data_mof_unit_57267.cif
_audit_creation_date              2012-12-10T18:47:41-0500
_audit_creation_method            fapswitch 2.2
_symmetry_space_group_name_H-M    P1
_symmetry_Int_Tables_number       1
_space_group_crystal_system       triclinic
_cell_length_a                    9.838495
_cell_length_b                    10.715019
_cell_length_c                    15.432592
_cell_angle_alpha                 89.765573
_cell_angle_beta                  67.333825
_cell_angle_gamma                 90.055392
_cell_volume                      1501.22805367

loop_
_atom_site_label
_atom_site_type_symbol
_atom_type_description
_atom_site_fract_x
_atom_site_fract_y
_atom_site_fract_z
_atom_type_partial_charge
C1    C     C_R   0.499936 0.740129 0.500233 0.850505
C2    C     C_R   0.499815 0.259850 0.500171 0.871499
C3    C     C_R   0.375187 0.652679 0.085546 -0.237415
C4    C     C_R   0.688315 0.513029 0.888384 -0.244044
C5    C     C_R   0.273176 0.671353 0.044558 -0.241611
C6    C     C_R   0.788829 0.489820 0.929328 -0.169606
C7    C     C_R   0.632031 0.936297 0.481832 -0.196414
C8    C     C_R   0.367156 0.063635 0.519791 -0.196501
C9    C     C_R   0.631996 0.064129 0.481734 -0.186615
C10   C     C_R   0.367222 0.935772 0.519814 -0.212590
C11   C     C_R   0.499610 0.127400 0.500568 -0.010739
C12   C     C_R   0.499701 0.872535 0.500705 -0.010300
C13   C     C_R   0.895723 0.416103 0.553438 -0.080603
C14   C     C_R   0.104139 0.584204 0.446809 -0.095892
C15   C     C_R   0.039545 0.416241 0.553548 -0.065002
C16   C     C_R   0.960110 0.584442 0.447035 -0.085414
C17   C     C_R   0.407731 0.502237 0.676616 0.889181
C18   C     C_R   0.592563 0.500174 0.323466 0.920189
C19   C     C_R   0.352164 0.526029 0.777699 -0.159536
C20   C     C_R   0.653808 0.506868 0.220941 -0.161523
C21   C     C_R   0.191386 0.634100 0.917203 -0.347306
C22   C     C_R   0.841273 0.461232 0.068351 -0.316759
C23   C     C_R   0.220251 0.590813 0.825982 0.461612
C24   C     C_R   0.795552 0.462181 0.166317 0.466716
C25   C     C_R   0.450811 0.504665 0.820886 -0.333870
C26   C     C_R   0.564333 0.556452 0.177941 -0.346292
C27   C     C_R   0.432742 0.560871 0.905855 0.105030
C28   C     C_R   0.607367 0.554193 0.080497 0.098942
C29   C     C_R   0.298419 0.622425 0.956188 0.111869
C30   C     C_R   0.747310 0.503750 0.025689 0.097934
C31   C     C_R   0.543661 0.553630 0.942874 0.080022
C32   C     C_R   0.508819 0.588434 0.037309 0.092184
H1    H     H_    0.172115 0.720965 0.083434 0.139477
H2    H     H_    0.896750 0.454260 0.886151 0.187477
H3    H     H_    0.456362 0.588554 0.222702 0.168755
H4    H     H_    0.544444 0.445673 0.785112 0.169408
H5    H     H_    0.087493 0.679656 0.956255 0.154125
H6    H     H_    0.946093 0.419473 0.025961 0.155206
H7    H     H_    0.348066 0.692269 0.154317 0.140439
H8    H     H_    0.727299 0.499642 0.813435 0.155801
H9    H     H_    0.735297 0.887806 0.466409 0.151474
H10   H     H_    0.263918 0.112156 0.535186 0.151381
H11   H     H_    0.735255 0.113017 0.466260 0.159684
H12   H     H_    0.264082 0.886836 0.535078 0.156773
H13   H     H_    0.815337 0.349022 0.596182 0.124493
H14   H     H_    0.184520 0.651290 0.404064 0.127194
H15   H     H_    0.068159 0.349349 0.596395 0.124588
H16   H     H_    0.931401 0.651545 0.404368 0.119641
N1    N     N_R   0.142780 0.500030 0.500020 -0.076713
N2    N     N_R   0.857220 0.499970 0.499980 -0.073232
O1    O     O_R   0.385370 0.683250 0.500010 -0.631866
O2    O     O_R   0.614630 0.316750 0.499990 -0.622457
O3    O     O_R   0.614700 0.683220 0.500000 -0.627977
O4    O     O_R   0.385300 0.316780 0.500000 -0.626883
O5    O     O_R   0.319830 0.500020 0.632250 -0.567371
O6    O     O_R   0.680170 0.499980 0.367750 -0.576113
O7    O     O_R   0.549160 0.499990 0.632240 -0.620739
O8    O     O_R   0.450840 0.500010 0.367760 -0.620794
Zn1   Zn    Zn3+2 0.346870 0.500020 0.500000 0.948937
Zn2   Zn    Zn3+2 0.653130 0.499980 0.500000 0.951464
O9    O     O_3   0.877488 0.400915 0.208922 -0.598972
C33   C     C_3   0.008661 0.467954 0.192644 0.102891
H17   H     H_    0.983430 0.563653 0.222520 0.128215
H18   H     H_    0.078210 0.473993 0.116436 0.149273
C34   C     C_3   0.097399 0.400102 0.240028 -0.775821
H19   H     H_    0.133660 0.307976 0.206396 0.248057
H20   H     H_    0.196107 0.456095 0.233198 0.206348
H21   H     H_    0.029210 0.385199 0.315615 0.264356
O10   O     O_3   0.118099 0.607040 0.785525 -0.614405
C35   C     C_3   0.116493 0.733740 0.760510 0.123249
H22   H     H_    0.229231 0.767002 0.715333 0.130171
H23   H     H_    0.071060 0.793227 0.824174 0.134708
C36   C     C_3   0.018464 0.748115 0.705287 -0.802507
H24   H     H_    0.904905 0.715949 0.748352 0.255900
H25   H     H_    0.014736 0.847653 0.686039 0.190591
H26   H     H_    0.062786 0.691948 0.640097 0.268124

loop_
_geom_bond_atom_site_label_1
_geom_bond_atom_site_label_2
_ccdc_geom_bond_type
C21   C29   A    
C24   O9    S    
O5    Zn1   S    
C27   C29   A    
C36   H24   S    
C23   O10   S    
C15   H15   S    
C16   H16   S    
C14   H14   S    
C8    H10   S    
C14   N1    A    
C22   H6    S    
C1    O3    A    
C33   H18   S    
O2    Zn2   S    
C18   O8    A    
C4    H8    S    
C34   H20   S    
C5    H1    S    
C35   H22   S    
C17   O5    A    
C18   C20   S    
O9    C33   S    
C18   O6    A    
C7    H9    S    
C3    H7    S    
C36   H25   S    
O10   C35   S    
C1    C12   S    
C2    C11   S    
C10   C12   A    
O3    Zn2   S    
C5    C29   A    
O4    Zn1   S    
C7    C12   A    
C9    H11   S    
C27   C31   A    
C20   C24   A    
C28   C32   A    
C4    C6    A    
C2    O4    A    
O7    Zn2   S    
O8    Zn1   S    
C10   H12   S    
C6    H2    S    
C19   C23   A    
C33   H17   S    
C1    O1    A    
C31   C32   A    
C34   H21   S    
C35   C36   S    
C9    C11   A    
C2    O2    A    
C6    C30   A    
C13   C15   A    
C36   H26   S    
C14   C16   A    
O1    Zn1   S    
C7    C9    A    
C22   C30   A    
C33   C34   S    
C16   N2    A    
C3    C5    A    
C25   C27   A    
C26   C28   A    
N1    Zn1   S    
N2    Zn2   S    
C21   C23   A    
C13   H13   S    
C20   C26   A    
C8    C11   A    
C28   C30   A    
C17   C19   S    
C22   C24   A    
C15   N1    A    
C3    C32   A    
C19   C25   A    
C4    C31   A    
C25   H4    S    
C13   N2    A    
O6    Zn2   S    
C26   H3    S    
C21   H5    S    
C8    C10   A    
C34   H19   S    
C35   H23   S    
C17   O7    A    
