data_mof_unit_20464.cif
_audit_creation_date              2012-12-10T18:11:36-0500
_audit_creation_method            fapswitch 2.2
_symmetry_space_group_name_H-M    P1
_symmetry_Int_Tables_number       1
_space_group_crystal_system       triclinic
_cell_length_a                    10.508225
_cell_length_b                    12.64522
_cell_length_c                    13.053871
_cell_angle_alpha                 82.723997
_cell_angle_beta                  91.159496
_cell_angle_gamma                 102.896648
_cell_volume                      1677.15366678

loop_
_atom_site_label
_atom_site_type_symbol
_atom_type_description
_atom_site_fract_x
_atom_site_fract_y
_atom_site_fract_z
_atom_type_partial_charge
C1    C     C_R   0.473816 0.439316 0.691270 0.942672
C2    C     C_3   0.063091 0.578648 0.426904 -0.133044
C3    C     C_3   0.988889 0.599543 0.520854 -0.171914
C4    C     C_3   0.878288 0.503325 0.499759 -0.019598
C5    C     C_R   0.501305 0.730442 0.046645 0.327021
C6    C     C_R   0.501532 0.595607 0.196797 -0.266487
C7    C     C_R   0.429901 0.291924 0.842214 0.333282
C8    C     C_R   0.398800 0.258859 0.947886 0.390317
C9    C     C_R   0.391736 0.337392 0.011775 -0.228863
C10   C     C_R   0.400833 0.448193 0.971496 0.040134
C11   C     C_R   0.402070 0.475602 0.863694 -0.003650
C12   C     C_R   0.742468 0.501205 0.500195 0.935510
C13   C     C_R   0.421434 0.534695 0.033959 0.091946
C14   C     C_R   0.441716 0.645062 0.988248 -0.000345
C15   C     C_R   0.409176 0.665265 0.884125 -0.188388
C16   C     C_R   0.382094 0.579882 0.824197 -0.149068
C17   C     C_R   0.434565 0.514759 0.139869 -0.325343
C18   C     C_R   0.547012 0.703195 0.146715 0.350305
C19   C     C_R   0.431315 0.401031 0.799646 -0.224380
C20   C     C_R   0.316213 0.082181 0.349441 -0.216443
C21   C     C_R   0.655677 0.800380 0.630002 0.024170
C22   C     C_R   0.687881 0.904679 0.659908 -0.226274
C23   C     C_R   0.514050 0.560817 0.307698 0.935850
C24   C     C_R   0.628344 0.985576 0.611872 -0.177175
C25   C     C_R   0.535648 0.961954 0.533450 0.038140
C26   C     C_R   0.505582 0.853651 0.506537 0.261290
C27   C     C_R   0.472131 0.040790 0.480342 -0.011660
C28   C     C_R   0.379429 0.007934 0.403526 0.075678
C29   C     C_R   0.350539 0.901166 0.379931 -0.245469
C30   C     C_R   0.413825 0.825539 0.430104 -0.111850
C31   C     C_R   0.496692 0.151246 0.499105 -0.080934
C32   C     C_R   0.342860 0.188940 0.370562 0.555949
C33   C     C_R   0.257595 0.498937 0.499547 0.843723
C34   C     C_3   0.939628 0.424092 0.570286 0.463670
C35   C     C_3   0.050930 0.518611 0.593498 -0.255071
C36   C     C_3   0.122054 0.497414 0.499293 -0.037779
C37   C     C_3   0.011926 0.400788 0.477987 -0.205414
C38   C     C_3   0.950082 0.482334 0.405945 -0.205888
H1    H     H_    0.095458 0.531256 0.670121 0.146496
H2    H     H_    0.396012 0.434442 0.178889 0.210941
H3    H     H_    0.379355 0.307969 0.092827 0.205723
H4    H     H_    0.352570 0.598448 0.745411 0.169347
H5    H     H_    0.280451 0.876360 0.320565 0.159060
H6    H     H_    0.245306 0.057511 0.290526 0.190926
H7    H     H_    0.565601 0.182986 0.555947 0.184486
H8    H     H_    0.701585 0.737258 0.667212 0.147746
H9    H     H_    0.656348 0.065160 0.637640 0.168603
H10   H     H_    0.758783 0.922774 0.720161 0.176340
H11   H     H_    0.392052 0.746428 0.404938 0.197838
H12   H     H_    0.024506 0.319500 0.462106 0.179319
H13   H     H_    0.904897 0.468697 0.329731 0.171738
H14   H     H_    0.118966 0.641985 0.367804 0.144296
H15   H     H_    0.975788 0.680390 0.537613 0.172237
H16   H     H_    0.410674 0.746463 0.845880 0.149013
N1    N     N_R   0.432930 0.222190 0.444670 -0.162261
N2    N     N_R   0.566370 0.776980 0.554790 -0.132521
O1    O     O_R   0.467970 0.366730 0.627150 -0.537469
O2    O     O_R   0.510820 0.544830 0.662520 -0.647792
O3    O     O_R   0.664630 0.410960 0.482340 -0.599336
O4    O     O_R   0.707470 0.589060 0.517710 -0.613943
O5    O     O_R   0.489180 0.455170 0.337480 -0.646963
O6    O     O_R   0.532030 0.633270 0.372850 -0.572080
O7    O     O_R   0.292530 0.410940 0.482290 -0.649672
O8    O     O_R   0.335370 0.589040 0.517660 -0.662277
Zn1   Zn    Zn3+2 0.471390 0.381080 0.476380 0.979790
Zn2   Zn    Zn3+2 0.528610 0.618920 0.523620 0.963889
O9    O     O_3   0.463578 0.221007 0.780631 -0.751373
H17   H     H_    0.501189 0.165834 0.824291 0.346488
O10   O     O_3   0.380328 0.151572 0.992571 -0.747103
H18   H     H_    0.349927 0.103042 0.938937 0.342676
O11   O     O_3   0.274738 0.257002 0.314188 -0.795576
H19   H     H_    0.295742 0.328196 0.339256 0.377944
O12   O     O_3   0.869283 0.344407 0.644736 -0.760617
H20   H     H_    0.933983 0.304890 0.677688 0.333345
S1    S     S_3+6 0.670150 0.801459 0.199968 0.084382
O13   O     O_2   0.751489 0.746768 0.276412 -0.278133
O14   O     O_2   0.758888 0.868251 0.115206 -0.222401
O15   O     O_3   0.601750 0.885923 0.258588 -0.528904
H21   H     H_    0.554103 0.921952 0.203417 0.375675
O16   O     O_3   0.526977 0.839223 0.005653 -0.720063
H22   H     H_    0.452193 0.852192 0.962541 0.325563

loop_
_geom_bond_atom_site_label_1
_geom_bond_atom_site_label_2
_ccdc_geom_bond_type
C22   H10   S    
O7    Zn1   S    
C18   S1    S    
C34   C37   S    
O12   H20   S    
C35   C36   S    
C7    C8    A    
C11   C19   A    
C8    O10   S    
C37   C38   S    
C36   C37   S    
C15   C16   A    
C33   C36   S    
C34   C35   S    
C20   H6    S    
C12   O3    A    
O2    Zn2   S    
C23   O6    A    
C8    C9    A    
C4    C12   S    
C9    C10   A    
C32   N1    A    
O4    Zn2   S    
C21   C22   A    
C29   H5    S    
N1    Zn1   S    
C32   O11   S    
C6    C18   A    
C4    C34   S    
C1    C19   S    
O6    Zn2   S    
C27   C31   A    
O9    H17   S    
C15   H16   S    
C24   C25   A    
O15   H21   S    
C5    C18   A    
C20   C28   A    
C25   C26   A    
C17   H2    S    
O8    Zn2   S    
C35   H1    S    
S1    O13   D    
C29   C30   A    
C1    O1    A    
C11   C16   A    
C2    C38   S    
C3    C35   S    
C33   O7    A    
C5    O16   S    
S1    O14   D    
C5    C14   A    
C2    H14   S    
C30   H11   S    
C4    C38   S    
C26   C30   A    
C7    C19   A    
C22   C24   A    
C3    C4    S    
C16   H4    S    
C21   H8    S    
C20   C32   A    
C2    C36   S    
C6    C17   A    
C28   C29   A    
C24   H9    S    
O1    Zn1   S    
O16   H22   S    
C10   C13   A    
C26   N2    A    
C21   N2    A    
C38   H13   S    
C25   C27   A    
C9    H3    S    
C13   C17   A    
C2    C3    S    
O11   H19   S    
C1    O2    A    
O3    Zn1   S    
C37   H12   S    
C3    H15   S    
C33   O8    A    
N2    Zn2   S    
C6    C23   S    
O10   H18   S    
S1    O15   S    
C10   C11   A    
C34   O12   S    
C7    O9    S    
C12   O4    A    
O5    Zn1   S    
C23   O5    A    
C31   H7    S    
C27   C28   A    
C14   C15   A    
C31   N1    A    
C13   C14   A    
