data_mof_unit_17785.cif
_audit_creation_date              2012-12-10T18:46:13-0500
_audit_creation_method            fapswitch 2.2
_symmetry_space_group_name_H-M    P1
_symmetry_Int_Tables_number       1
_space_group_crystal_system       triclinic
_cell_length_a                    9.851744
_cell_length_b                    10.672372
_cell_length_c                    13.137014
_cell_angle_alpha                 90.040313
_cell_angle_beta                  69.965555
_cell_angle_gamma                 89.832556
_cell_volume                      1297.6538663

loop_
_atom_site_label
_atom_site_type_symbol
_atom_type_description
_atom_site_fract_x
_atom_site_fract_y
_atom_site_fract_z
_atom_type_partial_charge
C1    C     C_R   0.499701 0.739862 0.500372 0.876545
C2    C     C_R   0.430313 0.521303 0.984809 0.094116
C3    C     C_R   0.457969 0.558089 0.876762 0.096469
C4    C     C_R   0.540346 0.539146 0.029770 0.084257
C5    C     C_R   0.665003 0.610541 0.973696 0.173994
C6    C     C_R   0.679437 0.662203 0.873248 -0.237962
C7    C     C_R   0.576848 0.636766 0.825438 -0.190155
C8    C     C_R   0.530617 0.486098 0.128592 -0.243770
C9    C     C_R   0.752094 0.587063 0.124203 -0.204630
C10   C     C_R   0.366903 0.513438 0.822233 -0.117475
C11   C     C_R   0.572501 0.933443 0.561369 -0.235633
C12   C     C_R   0.419759 0.505970 0.704217 0.874746
C13   C     C_R   0.571642 0.062150 0.564553 0.389121
C14   C     C_R   0.497763 0.127404 0.506356 -0.115333
C15   C     C_R   0.421877 0.064912 0.449273 -0.240018
C16   C     C_R   0.421523 0.936538 0.447982 -0.176222
C17   C     C_R   0.498231 0.871975 0.502919 -0.076953
C18   C     C_R   0.955506 0.413901 0.440551 -0.038523
C19   C     C_R   0.099360 0.414016 0.440474 -0.061024
C20   C     C_R   0.044520 0.586115 0.559409 -0.072940
C21   C     C_R   0.900898 0.586311 0.559109 -0.042459
C22   C     C_R   0.498882 0.260022 0.503052 0.922353
C23   C     C_R   0.580132 0.500364 0.295710 0.862226
C24   C     C_R   0.771762 0.631411 0.020310 -0.193215
C25   C     C_R   0.628424 0.517692 0.179288 -0.058217
C26   C     C_R   0.233288 0.459610 0.880840 -0.176430
C27   C     C_R   0.195093 0.441534 0.991749 -0.141775
C28   C     C_R   0.293752 0.468536 0.043270 -0.188614
H1    H     H_    0.828720 0.612370 0.163295 0.159137
H2    H     H_    0.365063 0.115360 0.404386 0.163114
H3    H     H_    0.364213 0.887801 0.402668 0.162370
H4    H     H_    0.923078 0.345109 0.392928 0.129521
H5    H     H_    0.175780 0.345319 0.392722 0.121208
H6    H     H_    0.076951 0.654993 0.606966 0.129536
H7    H     H_    0.825151 0.655852 0.605905 0.118818
H8    H     H_    0.771065 0.720771 0.830862 0.147254
H9    H     H_    0.866793 0.686450 0.978503 0.143872
H10   H     H_    0.443441 0.423748 0.170698 0.142091
H11   H     H_    0.258876 0.450313 0.129147 0.127814
H12   H     H_    0.590357 0.680580 0.748395 0.149703
H13   H     H_    0.628516 0.881367 0.605947 0.165688
N1    N     N_R   0.142790 0.500030 0.500030 -0.079718
N2    N     N_R   0.857180 0.499940 0.500010 -0.075866
O1    O     O_R   0.385370 0.683250 0.500010 -0.621182
O2    O     O_R   0.614700 0.683220 0.500010 -0.634443
O3    O     O_R   0.328400 0.499990 0.653620 -0.616932
O4    O     O_R   0.557730 0.499960 0.653620 -0.587113
O5    O     O_R   0.385300 0.316780 0.499990 -0.626182
O6    O     O_R   0.614630 0.316750 0.499990 -0.569770
O7    O     O_R   0.442270 0.500040 0.346380 -0.617183
O8    O     O_R   0.671600 0.500010 0.346380 -0.623081
Zn1   Zn    Zn3+2 0.346870 0.500020 0.500000 0.950503
Zn2   Zn    Zn3+2 0.653130 0.499980 0.500000 0.978295
Cl1   Cl    Cl    0.657524 0.136053 0.646349 -0.614883
H14   H     H_    0.160535 0.427732 0.840409 0.166507
H15   H     H_    0.091249 0.401192 0.037143 0.148439

loop_
_geom_bond_atom_site_label_1
_geom_bond_atom_site_label_2
_ccdc_geom_bond_type
C20   N1    A    
C7    H12   S    
C9    C24   A    
C6    C7    A    
C21   H7    S    
C2    C3    A    
C1    O1    A    
O7    Zn1   S    
C14   C15   A    
C19   N1    A    
C9    H1    S    
C4    C8    A    
C20   H6    S    
C26   H14   S    
O1    Zn1   S    
C24   H9    S    
C18   N2    A    
O2    Zn2   S    
C3    C10   A    
C13   C14   A    
C16   H3    S    
C8    C25   A    
C11   C13   A    
C1    O2    A    
C26   C27   A    
C5    C6    A    
C5    C24   A    
C10   C12   S    
C8    H10   S    
C12   O4    A    
O6    Zn2   S    
O4    Zn2   S    
C6    H8    S    
C22   O5    A    
C11   H13   S    
C3    C7    A    
C23   C25   S    
C14   C22   S    
C18   H4    S    
C9    C25   A    
C15   C16   A    
C2    C4    A    
O3    Zn1   S    
O5    Zn1   S    
C20   C21   A    
C15   H2    S    
C12   O3    A    
C13   Cl1   S    
C19   H5    S    
C22   O6    A    
C27   C28   A    
C27   H15   S    
C18   C19   A    
C23   O7    A    
C2    C28   A    
C28   H11   S    
C21   N2    A    
C4    C5    A    
C1    C17   S    
N2    Zn2   S    
C10   C26   A    
C11   C17   A    
C23   O8    A    
N1    Zn1   S    
C16   C17   A    
O8    Zn2   S    
