data_mof_unit_59517.cif
_audit_creation_date              2012-12-11T14:56:41-0500
_audit_creation_method            fapswitch 2.2
_symmetry_space_group_name_H-M    P1
_symmetry_Int_Tables_number       1
_space_group_crystal_system       triclinic
_cell_length_a                    10.580971
_cell_length_b                    10.723491
_cell_length_c                    17.130741
_cell_angle_alpha                 80.311574
_cell_angle_beta                  90.141687
_cell_angle_gamma                 119.472381
_cell_volume                      1660.74681076

loop_
_atom_site_label
_atom_site_type_symbol
_atom_type_description
_atom_site_fract_x
_atom_site_fract_y
_atom_site_fract_z
_atom_type_partial_charge
C1    C     C_R   0.223351 0.854659 0.128779 0.552149
C2    C     C_1   0.650415 0.343056 0.707076 -0.061607
C3    C     C_R   0.601965 0.701274 0.805266 -0.009365
C4    C     C_R   0.634038 0.271269 0.089994 0.525949
C5    C     C_R   0.586761 0.698284 0.725440 -0.116704
C6    C     C_R   0.674617 0.821178 0.667683 -0.002841
C7    C     C_R   0.786813 0.946023 0.690503 -0.113777
C8    C     C_R   0.802288 0.953646 0.770849 -0.008403
C9    C     C_R   0.696721 0.836416 0.828404 0.020070
C10   C     C_R   0.269045 0.965344 0.757301 -0.165778
C11   C     C_R   0.248760 0.949546 0.679379 -0.153938
C12   C     C_R   0.703174 0.247396 0.302672 0.125347
C13   C     C_R   0.153948 0.812179 0.663014 0.010839
C14   C     C_R   0.084197 0.688996 0.724682 -0.122818
C15   C     C_R   0.101154 0.705362 0.803495 0.105634
C16   C     C_R   0.640605 0.858627 0.125400 0.542296
C17   C     C_R   0.193380 0.844311 0.819136 0.065287
C18   C     C_R   0.686291 0.809877 0.357300 0.565718
C19   C     C_R   0.681795 0.385248 0.399120 0.541958
C20   C     C_R   0.103192 0.810161 0.359125 0.553752
C21   C     C_R   0.679302 0.799019 0.586730 0.541332
C22   C     C_R   0.678632 0.382095 0.624235 0.543700
C23   C     C_R   0.705154 0.237901 0.223273 -0.089869
C24   C     C_R   0.099474 0.801638 0.586004 0.548601
C25   C     C_R   0.227253 0.866094 0.898439 0.566774
C26   C     C_R   0.635893 0.280823 0.860304 0.523418
C27   C     C_R   0.649165 0.863920 0.901003 0.536468
C28   C     C_R   0.561378 0.357637 0.197040 -0.150771
C29   C     C_R   0.560746 0.370365 0.276190 -0.154552
C30   C     C_R   0.637710 0.322195 0.328424 0.030510
C31   C     C_3   0.899529 0.591128 0.904556 -0.274533
C32   C     C_3   0.924858 0.245209 0.341727 -0.257798
C33   C     C_3   0.520713 0.556315 0.863111 -0.250540
C34   C     C_R   0.639640 0.297739 0.169924 0.003845
C35   C     C_3   0.354750 0.489437 0.866155 -0.393611
C36   C     C_3   0.939443 0.079046 0.792550 -0.264556
C37   C     C_3   0.950894 0.226482 0.760898 -0.411067
C38   C     C_1   0.668834 0.849171 0.205531 -0.043587
C39   C     C_1   0.679827 0.839262 0.274982 -0.032799
C40   C     C_1   0.180915 0.825880 0.211303 -0.037273
C41   C     C_1   0.151138 0.819855 0.279785 -0.033990
C42   C     C_1   0.642395 0.319812 0.777567 -0.079593
Cr1   Cr    Cr6+3 0.402240 0.783890 0.019450 1.021673
Cr2   Cr    Cr6+3 0.382360 0.097900 0.991800 1.002409
Cr3   Cr    Cr6+3 0.715380 0.118170 0.988700 0.999306
Cr4   Cr    Cr6+3 0.936650 0.882420 0.465510 1.009354
Cr5   Cr    Cr6+3 0.605770 0.565620 0.493360 1.014341
Cr6   Cr    Cr6+3 0.921340 0.550490 0.496380 1.010368
H1    H     H_    0.504637 0.397759 0.156748 0.132116
H2    H     H_    0.819368 0.585360 0.861312 0.127030
H3    H     H_    0.844679 0.498504 0.955360 0.181513
H4    H     H_    0.939593 0.693043 0.928200 0.138584
H5    H     H_    0.726865 0.148279 0.414268 0.260578
H6    H     H_    0.949530 0.161400 0.328416 0.164954
H7    H     H_    0.977423 0.283271 0.395767 0.140737
H8    H     H_    0.973441 0.339801 0.291119 0.147102
H9    H     H_    0.320604 0.567598 0.878008 0.201947
H10   H     H_    0.314944 0.455727 0.809055 0.124809
H11   H     H_    0.302040 0.390912 0.914128 0.130428
H12   H     H_    0.301839 0.045038 0.632204 0.132319
H13   H     H_    0.548607 0.479833 0.842843 0.139867
H14   H     H_    0.557273 0.564601 0.923782 0.155388
H15   H     H_    0.980676 0.258607 0.695651 0.141433
H16   H     H_    0.845589 0.220945 0.773224 0.199525
H17   H     H_    0.036510 0.311517 0.789696 0.123530
H18   H     H_    0.947515 0.065223 0.857645 0.165493
H19   H     H_    0.035680 0.079286 0.766421 0.144583
H20   H     H_    0.006524 0.582985 0.712174 0.135078
H21   H     H_    0.509008 0.427484 0.294847 0.148618
H22   H     H_    0.755882 0.180410 0.203744 0.152269
H23   H     H_    0.512535 0.595129 0.708615 0.146473
H24   H     H_    0.866849 0.034723 0.645776 0.135738
H25   H     H_    0.343232 0.072584 0.769465 0.138256
H26   H     H_    0.987242 0.485351 0.852239 0.263920
N1    N     N_2   0.018335 0.585366 0.866608 -0.515931
N2    N     N_2   0.768185 0.182228 0.355357 -0.512815
O1    O     O_R   0.521780 0.757110 0.108900 -0.516472
O2    O     O_R   0.805020 0.410040 0.421340 -0.508775
O3    O     O_R   0.049240 0.685450 0.403290 -0.496766
O4    O     O_R   0.275160 0.783810 0.101120 -0.494493
O5    O     O_R   0.077520 0.903010 0.551800 -0.517915
O6    O     O_R   0.802980 0.872780 0.546830 -0.506308
O7    O     O_R   0.578090 0.681300 0.569920 -0.522003
O8    O     O_R   0.608530 0.436370 0.586530 -0.503597
O9    O     O_R   0.798770 0.401880 0.597100 -0.525684
O10   O     O_R   0.043450 0.677890 0.566230 -0.508137
O11   O     O_3   0.821250 0.666180 0.485090 -0.250983
O12   O     O_R   0.513330 0.228330 0.898660 -0.509886
O13   O     O_R   0.237900 0.972600 0.090980 -0.509531
O14   O     O_R   0.511190 0.220540 0.061620 -0.499959
O15   O     O_R   0.736920 0.257720 0.063840 -0.531854
O16   O     O_R   0.710450 0.984050 0.081720 -0.503531
O17   O     O_R   0.524090 0.765520 0.933110 -0.524021
O18   O     O_R   0.277300 0.791600 0.938160 -0.479301
O19   O     O_R   0.240210 0.981010 0.915190 -0.541481
O20   O     O_R   0.739230 0.266130 0.888050 -0.533873
O21   O     O_R   0.712580 0.991850 0.918770 -0.501823
O22   O     O_3   0.499990 0.999980 0.999980 -0.249442
O23   O     O_R   0.083770 0.911170 0.376030 -0.512602
O24   O     O_R   0.808770 0.880340 0.383890 -0.500478
O25   O     O_R   0.584340 0.689460 0.394160 -0.514079
O26   O     O_R   0.614320 0.443940 0.423590 -0.511874

loop_
_geom_bond_atom_site_label_1
_geom_bond_atom_site_label_2
_ccdc_geom_bond_type
C15   N1    S    
Cr4   O23   S    
Cr5   O25   S    
Cr1   O22   S    
C31   H4    S    
C24   O5    A    
C20   C41   S    
C36   H19   S    
C7    C8    A    
C12   C23   A    
C26   C42   S    
C19   C30   S    
C35   H10   S    
Cr6   O3    S    
C28   C29   A    
Cr3   O22   S    
C38   C39   T    
C10   H25   S    
C36   H18   S    
C3    C33   S    
C10   C17   A    
Cr1   O18   S    
C35   H11   S    
C16   O1    A    
C8    C36   S    
C22   O9    A    
Cr6   O2    S    
Cr3   O16   S    
C1    C40   S    
Cr1   O17   S    
Cr4   O6    S    
Cr2   O22   S    
C27   O21   A    
C21   O7    A    
C33   H14   S    
C37   H17   S    
C2    C22   S    
Cr5   O7    S    
C32   H7    S    
C29   H21   S    
C19   O26   A    
C4    O15   A    
C28   C34   A    
C25   O18   A    
Cr5   O26   S    
C13   C14   A    
C23   H22   S    
C18   O24   A    
C32   H6    S    
C37   H15   S    
C4    O14   A    
C26   O20   A    
C4    C34   S    
H26   N1    S    
C7    H24   S    
C8    C9    A    
Cr1   O4    S    
C6    C21   S    
C13   C24   S    
C18   O25   A    
C22   O8    A    
C19   O2    A    
C18   C39   S    
C29   C30   A    
C3    C9    A    
Cr4   O5    S    
C28   H1    S    
C31   N1    S    
C23   C34   A    
Cr6   O11   S    
Cr5   O8    S    
C33   H13   S    
C40   C41   T    
C16   O16   A    
C12   N2    S    
Cr6   O10   S    
C27   O17   A    
H5    N2    S    
C31   H2    S    
C11   H12   S    
C37   H16   S    
Cr2   O14   S    
C9    C27   S    
Cr4   O11   S    
C15   C17   A    
Cr4   O24   S    
C36   C37   S    
C1    O13   A    
C20   O3    A    
C12   C30   A    
Cr6   O9    S    
C31   H3    S    
C3    C5    A    
C32   N2    S    
C25   O19   A    
C6    C7    A    
Cr1   O1    S    
C35   H9    S    
C17   C25   S    
C5    H23   S    
Cr2   O19   S    
Cr3   O21   S    
C11   C13   A    
C5    C6    A    
C20   O23   A    
C2    C42   T    
C33   C35   S    
Cr3   O15   S    
C10   C11   A    
C21   O6    A    
C26   O12   A    
C1    O4    A    
C14   H20   S    
C14   C15   A    
Cr2   O12   S    
Cr3   O20   S    
C24   O10   A    
C32   H8    S    
Cr2   O13   S    
C16   C38   S    
Cr5   O11   S    
