data_mof_unit_12885.cif
_audit_creation_date              2012-10-26T18:27:01-0400
_audit_creation_method            fapswitch 2.2
_symmetry_space_group_name_H-M    P1
_symmetry_Int_Tables_number       1
_space_group_crystal_system       triclinic
_cell_length_a                    15.078122
_cell_length_b                    10.977084
_cell_length_c                    9.740699
_cell_angle_alpha                 88.975145
_cell_angle_beta                  88.289867
_cell_angle_gamma                 89.882734
_cell_volume                      1611.24249649

loop_
_atom_site_label
_atom_site_type_symbol
_atom_type_description
_atom_site_fract_x
_atom_site_fract_y
_atom_site_fract_z
_atom_type_partial_charge
C1    C     C_R   0.498283 0.265527 0.500908 0.599153
C2    C     C_R   0.184498 0.426292 0.593717 -0.067064
C3    C     C_R   0.232108 0.500384 0.500856 -0.001214
C4    C     C_R   0.328845 0.500437 0.501045 0.558107
C5    C     C_R   0.187576 0.569838 0.402257 -0.066165
C6    C     C_2   0.490446 0.937530 0.389525 0.244271
C7    C     C_2   0.515551 0.864004 0.493391 -0.099607
C8    C     C_2   0.515850 0.065672 0.395187 0.008031
C9    C     C_2   0.485804 0.134041 0.502217 0.010096
C10   C     C_2   0.431457 0.483802 0.933117 0.361931
C11   C     C_2   0.432926 0.523612 0.078228 0.071740
C12   C     C_R   0.907765 0.559521 0.398287 -0.037495
C13   C     C_R   0.501170 0.734107 0.498374 0.568511
C14   C     C_R   0.671060 0.494421 0.498489 0.579673
C15   C     C_R   0.815417 0.557770 0.400188 -0.156257
C16   C     C_R   0.767913 0.484614 0.495493 0.003805
C17   C     C_R   0.813202 0.406971 0.588222 0.245585
C18   C     C_R   0.906292 0.417683 0.595621 0.026575
C19   C     C_R   0.953502 0.491236 0.497146 0.015186
C20   C     C_2   0.582271 0.109062 0.288538 0.612611
C21   C     C_2   0.427048 0.082760 0.614327 0.554237
C22   C     C_R   0.953803 0.357694 0.699261 -0.055007
C23   C     C_R   0.045781 0.359886 0.697481 -0.096363
C24   C     C_R   0.092478 0.426815 0.596131 0.026596
C25   C     C_R   0.046771 0.495842 0.497121 0.026796
C26   C     C_R   0.094456 0.567715 0.397552 0.011462
C27   C     C_R   0.047472 0.634858 0.297333 0.261309
C28   C     C_R   0.954605 0.630531 0.299972 -0.080830
Cu1   Cu    Cu3+1 0.500020 0.500020 0.638630 1.159897
Cu2   Cu    Cu3+1 0.499980 0.499980 0.361370 1.099298
H1    H     H_    0.779993 0.614781 0.327924 0.141682
H2    H     H_    0.918235 0.682518 0.224579 0.169143
H3    H     H_    0.630272 0.096642 0.093635 0.359322
H4    H     H_    0.315577 0.989871 0.667403 0.362302
H5    H     H_    0.239854 0.294950 0.015557 0.370788
H6    H     H_    0.785986 0.106088 0.757037 0.379888
H7    H     H_    0.186921 0.882930 0.164211 0.386352
H8    H     H_    0.343782 0.988420 0.103137 0.375221
H9    H     H_    0.552487 0.901301 0.577190 0.090813
H10   H     H_    0.551680 0.545605 0.885305 0.196813
H11   H     H_    0.371912 0.556220 0.126738 0.203201
H12   H     H_    0.552381 0.456297 0.105409 0.226216
H13   H     H_    0.920921 0.310618 0.784572 0.202591
H14   H     H_    0.080493 0.310449 0.776960 0.145650
H15   H     H_    0.218828 0.365679 0.662272 0.196470
H16   H     H_    0.226635 0.624997 0.330318 0.220905
N1    N     N_2   0.499020 0.498660 0.846910 -0.334278
N2    N     N_2   0.499000 0.498630 0.153040 -0.362800
O1    O     O_R   0.500020 0.321960 0.617040 -0.408593
O2    O     O_R   0.581563 0.061481 0.156400 -0.600460
O3    O     O_2   0.446997 0.094376 0.734117 -0.416553
O4    O     O_R   0.349508 0.020982 0.582498 -0.648090
O5    O     O_2   0.265508 0.494173 0.853554 -0.284540
O6    O     O_2   0.352147 0.311388 0.787144 -0.254541
O7    O     O_3   0.297424 0.330673 0.040062 -0.498710
O8    O     O_2   0.728538 0.331890 0.821032 -0.285615
O9    O     O_2   0.675441 0.249209 0.606503 -0.249808
O10   O     O_3   0.820968 0.163470 0.697504 -0.522348
O11   O     O_2   0.166435 0.646840 0.087456 -0.248830
O12   O     O_R   0.499980 0.321920 0.382900 -0.476428
O13   O     O_2   0.035946 0.779053 0.070647 -0.260180
O14   O     O_3   0.157070 0.837773 0.241408 -0.471701
O15   O     O_2   0.472793 0.825693 0.149345 -0.248629
O16   O     O_2   0.346881 0.812899 0.314603 -0.259905
O17   O     O_3   0.374909 0.018450 0.183987 -0.445770
O18   O     O_R   0.370270 0.499990 0.617090 -0.438246
O19   O     O_R   0.370240 0.499950 0.382940 -0.507664
O20   O     O_R   0.500020 0.678080 0.617100 -0.512974
O21   O     O_R   0.499980 0.678040 0.382960 -0.445134
O22   O     O_R   0.629760 0.500050 0.617060 -0.471687
O23   O     O_R   0.629730 0.500010 0.382910 -0.502949
O24   O     O_2   0.639896 0.181731 0.317503 -0.468163
S1    S     S_3+6 0.334682 0.403646 0.896375 0.055460
S2    S     S_3+6 0.755978 0.287411 0.681010 0.029775
S3    S     S_3+6 0.101836 0.724786 0.167257 0.028733
S4    S     S_3+6 0.419755 0.893463 0.256602 0.098399

loop_
_geom_bond_atom_site_label_1
_geom_bond_atom_site_label_2
_ccdc_geom_bond_type
H10   N1    S    
C14   O23   A    
Cu2   O23   S    
Cu1   O1    S    
O13   S3    D    
C26   C27   A    
C8    C20   S    
O17   S4    S    
C12   C28   A    
Cu2   N2    S    
H6    O10   S    
C10   S1    S    
O15   S4    D    
C15   C16   A    
O6    S1    D    
C18   C19   A    
C20   O2    S    
C8    C9    D    
Cu2   O12   S    
C23   C24   A    
C12   C15   A    
Cu2   O19   S    
C14   O22   A    
C11   N2    D    
C27   S3    S    
H7    O14   S    
C2    H15   S    
C10   N1    D    
O8    S2    D    
H5    O7    S    
C28   H2    S    
C1    C9    S    
C24   C25   A    
C1    O12   A    
C16   C17   A    
C6    C8    S    
C25   C26   A    
C23   H14   S    
C5    C26   A    
O9    S2    D    
Cu1   Cu2   S    
Cu1   O20   S    
C22   H13   S    
H8    O17   S    
C17   C18   A    
O16   S4    D    
H12   N2    S    
C15   H1    S    
Cu1   N1    S    
C2    C24   A    
C17   S2    S    
C14   C16   S    
O14   S3    S    
C3    C4    S    
O11   S3    D    
C21   O3    D    
Cu2   O21   S    
O10   S2    S    
Cu1   O22   S    
C18   C22   A    
O5    S1    D    
C3    C5    A    
C4    O19   A    
C6    S4    S    
C6    C7    D    
C5    H16   S    
H4    O4    S    
C2    C3    A    
H3    O2    S    
C4    O18   A    
C9    C21   S    
C13   O21   A    
C12   C19   A    
C11   H11   S    
C19   C25   A    
C10   C11   S    
Cu1   O18   S    
O7    S1    S    
C7    C13   S    
C27   C28   A    
C7    H9    S    
C22   C23   A    
C20   O24   D    
C1    O1    A    
C21   O4    S    
C13   O20   A    
