data_mof_unit_15807.cif
_audit_creation_date              2012-12-11T14:08:03-0500
_audit_creation_method            fapswitch 2.2
_symmetry_space_group_name_H-M    P1
_symmetry_Int_Tables_number       1
_space_group_crystal_system       triclinic
_cell_length_a                    10.954628
_cell_length_b                    10.965451
_cell_length_c                    18.66007
_cell_angle_alpha                 89.753571
_cell_angle_beta                  89.538281
_cell_angle_gamma                 59.733777
_cell_volume                      1935.89856188

loop_
_atom_site_label
_atom_site_type_symbol
_atom_type_description
_atom_site_fract_x
_atom_site_fract_y
_atom_site_fract_z
_atom_type_partial_charge
C1    C     C_R   0.240057 0.643789 0.609853 0.545322
C2    C     C_3   0.696319 0.566707 0.801007 0.087197
C3    C     C_3   0.725514 0.691875 0.806827 -0.016165
C4    C     C_3   0.679500 0.657652 0.673183 0.090205
C5    C     C_3   0.824399 0.655729 0.677906 0.445804
C6    C     C_3   0.687234 0.536931 0.721782 -0.221714
C7    C     C_2   0.672247 0.164153 0.673020 -0.097299
C8    C     C_2   0.686204 0.173619 0.829411 -0.087652
C9    C     C_2   0.797955 0.132767 0.785515 -0.167567
C10   C     C_2   0.778605 0.164093 0.708410 -0.161094
C11   C     C_2   0.196008 0.655113 0.684619 -0.046340
C12   C     C_R   0.655133 0.624000 0.600308 0.591068
C13   C     C_2   0.203192 0.664751 0.841659 -0.016945
C14   C     C_2   0.233135 0.548199 0.805404 -0.086760
C15   C     C_2   0.257269 0.539905 0.727370 -0.099674
C16   C     C_2   0.670379 0.681515 0.330763 -0.077991
C17   C     C_2   0.704972 0.710924 0.178745 -0.090258
C18   C     C_2   0.813970 0.645207 0.223694 -0.138497
C19   C     C_2   0.795915 0.614904 0.297840 -0.136588
C20   C     C_2   0.666280 0.142723 0.330890 -0.082256
C21   C     C_2   0.709607 0.029553 0.187463 -0.077204
C22   C     C_2   0.602351 0.045144 0.229039 0.212400
C23   C     C_R   0.627519 0.229211 0.602561 0.555581
C24   C     C_2   0.605503 0.069368 0.306948 0.194324
C25   C     C_2   0.181621 0.667209 0.327664 0.261200
C26   C     C_2   0.186631 0.639567 0.171801 -0.051680
C27   C     C_2   0.241481 0.705309 0.206707 -0.126360
C28   C     C_2   0.273021 0.674978 0.281588 -0.080622
C29   C     C_R   0.702429 0.103833 0.898075 0.562820
C30   C     C_R   0.753697 0.709731 0.882559 0.604854
C31   C     C_R   0.121916 0.705480 0.908446 0.577841
C32   C     C_R   0.707175 0.030813 0.109588 0.581596
C33   C     C_R   0.733828 0.718827 0.104412 0.557440
C34   C     C_R   0.222073 0.650173 0.401515 0.530599
C35   C     C_R   0.099850 0.704584 0.110368 0.543844
C36   C     C_R   0.645026 0.626459 0.395757 0.556968
C37   C     C_R   0.620547 0.223160 0.396971 0.584010
C38   C     C_3   0.593580 0.829155 0.777155 -0.207744
C39   C     C_3   0.553167 0.801567 0.701678 0.411095
C40   C     C_3   0.860303 0.654711 0.759375 0.437750
Cr1   Cr    Cr6+3 0.393010 0.398050 0.501480 1.087973
Cr2   Cr    Cr6+3 0.398820 0.707980 0.501630 1.116055
Cr3   Cr    Cr6+3 0.708140 0.393940 0.496850 1.054676
Cr4   Cr    Cr6+3 0.937950 0.938450 0.008940 1.046150
Cr5   Cr    Cr6+3 0.626180 0.937030 0.994750 1.074068
Cr6   Cr    Cr6+3 0.937790 0.625760 0.001410 1.034871
H1    H     H_    0.613029 0.919016 0.777032 0.063207
H2    H     H_    0.782783 0.434676 0.707570 0.152181
H3    H     H_    0.905131 0.068159 0.805113 0.163094
H4    H     H_    0.851881 0.188015 0.681036 0.165626
H5    H     H_    0.579385 0.239751 0.809574 0.121306
H6    H     H_    0.603533 0.134710 0.700685 0.095362
H7    H     H_    0.232585 0.460499 0.832201 0.135414
H8    H     H_    0.324853 0.435687 0.704638 0.144656
H9    H     H_    0.219739 0.744772 0.816301 0.146850
H10   H     H_    0.500958 0.864048 0.813544 0.199502
H11   H     H_    0.127832 0.759921 0.706415 0.144187
H12   H     H_    0.921624 0.600201 0.203737 0.172716
H13   H     H_    0.887063 0.528725 0.323989 0.168425
H14   H     H_    0.595571 0.754505 0.194763 0.135099
H15   H     H_    0.579678 0.770702 0.306907 0.158789
H16   H     H_    0.806424 0.014160 0.211422 0.075457
H17   H     H_    0.729704 0.168609 0.296078 0.060695
H18   H     H_    0.248165 0.792768 0.183388 0.157210
H19   H     H_    0.368642 0.670965 0.300612 0.102694
H20   H     H_    0.189395 0.546555 0.194463 0.149222
H21   H     H_    0.784286 0.468607 0.824645 0.195667
H22   H     H_    0.595274 0.521896 0.712610 0.182457
O1    O     O_R   0.507110 0.256280 0.580300 -0.492886
O2    O     O_R   0.524640 0.695370 0.425100 -0.476112
O3    O     O_R   0.735890 0.504390 0.415980 -0.516326
O4    O     O_R   0.690560 0.277820 0.422350 -0.507309
O5    O     O_3   0.499990 0.499990 0.499980 -0.291820
O6    O     O_R   0.089190 0.825870 0.932320 -0.503229
O7    O     O_R   0.819070 0.053960 0.931440 -0.482799
O8    O     O_R   0.607070 0.076440 0.916460 -0.527532
O9    O     O_R   0.647110 0.806550 0.917690 -0.472735
O10   O     O_R   0.837080 0.593860 0.915300 -0.502928
O11   O     O_R   0.064770 0.636080 0.932550 -0.515815
O12   O     O_R   0.280830 0.527190 0.577940 -0.511366
O13   O     O_R   0.068250 0.829200 0.092940 -0.512132
O14   O     O_R   0.799650 0.057040 0.080330 -0.499171
O15   O     O_R   0.586130 0.079760 0.077080 -0.440239
O16   O     O_R   0.627700 0.809630 0.066580 -0.468103
O17   O     O_R   0.816140 0.597180 0.075920 -0.483906
O18   O     O_R   0.045360 0.639170 0.081440 -0.532108
O19   O     O_3   0.833980 0.833750 0.001700 -0.335050
O20   O     O_R   0.261360 0.738990 0.584270 -0.475389
O21   O     O_R   0.532590 0.694780 0.574370 -0.425425
O22   O     O_R   0.744470 0.503750 0.577000 -0.496286
O23   O     O_R   0.698520 0.277230 0.571620 -0.504221
O24   O     O_R   0.498530 0.256920 0.419280 -0.435011
O25   O     O_R   0.272880 0.527780 0.428680 -0.500618
O26   O     O_R   0.252780 0.739630 0.423250 -0.518914
O27   O     O_3   0.969115 0.516564 0.776061 -0.679196
H23   H     H_    0.007386 0.518410 0.823432 0.354997
O28   O     O_3   0.933080 0.533010 0.644335 -0.643010
H24   H     H_    0.017993 0.543249 0.641361 0.368984
O29   O     O_3   0.486478 0.048067 0.198086 -0.671817
H25   H     H_    0.410243 0.078618 0.234363 0.363108
Cl1   Cl    Cl    0.509908 0.019118 0.365507 -0.607819
O30   O     O_3   0.431812 0.788579 0.708637 -0.641113
H26   H     H_    0.350233 0.883926 0.719076 0.348080
O31   O     O_3   0.053414 0.684489 0.306374 -0.739882
H27   H     H_    0.002751 0.680980 0.349918 0.322696
O32   O     O_3   0.520601 0.912947 0.652955 -0.654765
H28   H     H_    0.579880 0.955013 0.662629 0.336263
O33   O     O_3   0.911195 0.748030 0.772698 -0.707850
H29   H     H_    0.835090 0.846155 0.763732 0.324885
O34   O     O_3   0.814687 0.774777 0.643201 -0.738006
H30   H     H_    0.804669 0.764298 0.591100 0.343952
Cl2   Cl    Cl    0.541421 0.597279 0.849748 -0.617193

loop_
_geom_bond_atom_site_label_1
_geom_bond_atom_site_label_2
_ccdc_geom_bond_type
Cr3   O5    S    
C7    C10   D    
Cr3   O4    S    
C39   O32   S    
C23   O1    A    
O27   H23   S    
C1    C11   S    
C34   O25   A    
Cr1   O12   S    
O28   H24   S    
C35   O13   A    
C29   O8    A    
C2    C6    S    
C25   C28   D    
C2    Cl2   S    
C26   C27   D    
C6    H2    S    
Cr5   O8    S    
C8    C29   S    
C3    C30   S    
C12   O22   A    
Cr5   O19   S    
C7    H6    S    
C18   C19   S    
Cr4   O14   S    
Cr6   O11   S    
C35   O18   A    
C5    O34   S    
Cr2   O2    S    
O33   H29   S    
C24   Cl1   S    
C33   O17   A    
O34   H30   S    
C30   O9    A    
C11   C15   D    
C18   H12   S    
Cr1   O25   S    
C20   C24   D    
C3    C38   S    
C8    C9    D    
C4    C12   S    
Cr4   O19   S    
C9    C10   S    
C36   O3    A    
C25   C34   S    
C40   O33   S    
Cr6   O17   S    
C1    O20   A    
C6    H22   S    
C13   C14   D    
Cr5   O15   S    
C17   C33   S    
O31   H27   S    
C36   O2    A    
C21   C32   S    
Cr3   O22   S    
C26   H20   S    
C15   H8    S    
C12   O21   A    
C9    H3    S    
C4    C6    S    
Cr4   O13   S    
Cr6   O10   S    
C31   O6    A    
C19   H13   S    
Cr3   O23   S    
Cr4   O7    S    
O29   H25   S    
C4    C39   S    
C14   H7    S    
C17   C18   D    
C21   H16   S    
Cr4   O6    S    
C8    H5    S    
C38   H1    S    
C5    O28   S    
C3    C40   S    
C2    H21   S    
C22   C24   S    
C5    C40   S    
Cr5   O16   S    
Cr2   O20   S    
C16   H15   S    
C40   O27   S    
C10   H4    S    
C39   O30   S    
Cr1   O1    S    
Cr6   O19   S    
C32   O15   A    
Cr2   O5    S    
Cr3   O3    S    
C22   O29   S    
C37   O24   A    
Cr2   O26   S    
C13   C31   S    
C34   O26   A    
C4    C5    S    
C25   O31   S    
C31   O11   A    
C29   O7    A    
C32   O14   A    
Cr2   O21   S    
C20   H17   S    
C2    C3    S    
C11   H11   S    
C16   C36   S    
C20   C37   S    
C38   C39   S    
C16   C19   D    
C7    C23   S    
C28   H19   S    
C23   O23   A    
O30   H26   S    
C33   O16   A    
C27   H18   S    
C17   H14   S    
Cr1   O5    S    
C30   O10   A    
C26   C35   S    
Cr1   O24   S    
C38   H10   S    
O32   H28   S    
C37   O4    A    
C27   C28   S    
C1    O12   A    
C14   C15   S    
Cr5   O9    S    
C13   H9    S    
C21   C22   D    
Cr6   O18   S    
