data_mof_unit_54738.cif
_audit_creation_date              2012-12-11T17:01:32-0500
_audit_creation_method            fapswitch 2.2
_symmetry_space_group_name_H-M    P1
_symmetry_Int_Tables_number       1
_space_group_crystal_system       triclinic
_cell_length_a                    15.059071
_cell_length_b                    14.923418
_cell_length_c                    14.900658
_cell_angle_alpha                 109.561629
_cell_angle_beta                  108.83848
_cell_angle_gamma                 109.955887
_cell_volume                      2579.44872477

loop_
_atom_site_label
_atom_site_type_symbol
_atom_type_description
_atom_site_fract_x
_atom_site_fract_y
_atom_site_fract_z
_atom_type_partial_charge
C1    C     C_R   0.968173 0.782825 0.060642 -0.154450
C2    C     C_R   0.223117 0.758994 0.315923 -0.131450
C3    C     C_R   0.907294 0.408142 0.210207 -0.119307
C4    C     C_R   0.794001 0.196421 0.701522 -0.145655
C5    C     C_R   0.315019 0.589041 0.044656 -0.139776
C6    C     C_R   0.936065 0.499943 0.302944 0.079504
C7    C     C_R   0.323465 0.495529 0.025646 0.018366
C8    C     C_R   0.326215 0.793516 0.326451 0.076428
C9    C     C_R   0.925874 0.128488 0.925440 0.113288
C10   C     C_3   0.554292 0.511102 0.972469 -0.480770
C11   C     C_3   0.453274 0.517557 0.962135 -0.401883
C12   C     C_R   0.700473 0.132577 0.697449 0.084360
C13   C     C_3   0.518949 0.382218 0.048603 0.158022
C14   C     C_3   0.623879 0.590274 0.175501 -0.379573
C15   C     C_3   0.603719 0.495700 0.071385 0.350535
C16   C     C_R   0.029145 0.591170 0.776725 -0.139123
C17   C     C_3   0.423533 0.492915 0.044586 0.351403
C18   C     C_3   0.410205 0.379223 0.026304 -0.441114
C19   C     C_3   0.515537 0.580586 0.163781 -0.405504
C20   C     C_R   0.624815 0.968492 0.517918 0.166666
C21   C     C_R   0.623779 0.016744 0.616138 -0.000930
C22   C     C_R   0.533295 0.958204 0.623690 -0.190000
C23   C     C_R   0.955648 0.499850 0.673673 0.072737
C24   C     C_R   0.435825 0.874321 0.528042 -0.196763
C25   C     C_R   0.429985 0.849648 0.425989 0.044454
C26   C     C_R   0.527618 0.888275 0.423677 0.105160
C27   C     C_3   0.559170 0.931135 0.354745 -0.582800
C28   C     C_R   0.703069 0.408100 0.008227 -0.234603
C29   C     C_3   0.667720 0.016659 0.456328 0.028644
C30   C     C_R   0.943364 0.601596 0.477162 0.181308
C31   C     C_R   0.898813 0.502217 0.382182 0.009934
C32   C     C_R   0.833230 0.404054 0.375492 -0.198744
C33   C     C_R   0.838718 0.404357 0.471162 -0.189254
C34   C     C_R   0.704415 0.498594 0.076723 -0.018317
C35   C     C_R   0.910242 0.502633 0.572611 0.011637
C36   C     C_R   0.949935 0.601837 0.571616 0.220483
C37   C     C_3   0.059229 0.704603 0.641307 -0.508669
C38   C     C_3   0.051426 0.704765 0.538419 -0.504088
C39   C     C_R   0.875331 0.895000 0.966123 0.059087
C40   C     C_R   0.938407 0.407485 0.684696 -0.121662
C41   C     C_R   0.969646 0.896784 0.967297 -0.055120
C42   C     C_R   0.007687 0.938102 0.905839 0.120702
C43   C     C_R   0.947260 0.971356 0.845804 0.455138
C44   C     C_R   0.887884 0.011186 0.885537 -0.216302
C45   C     C_R   0.996064 0.591123 0.299738 -0.149144
C46   C     C_R   0.838605 0.957182 0.931777 0.110692
C47   C     C_3   0.812812 0.991745 0.022786 0.119213
C48   C     C_3   0.849424 0.920392 0.057165 -0.539682
C49   C     C_R   0.795663 0.591054 0.103579 0.328159
C50   C     C_R   0.699721 0.196011 0.789575 -0.119462
C51   C     C_R   0.066840 0.788415 0.976634 -0.137592
C52   C     C_R   0.008545 0.833907 0.008830 0.133403
C53   C     C_3   0.559285 0.356227 0.140589 -1.025396
C54   C     C_3   0.759690 0.998885 0.446536 -0.819760
C55   C     C_3   0.122685 0.977619 0.926554 -0.921906
C56   C     C_R   0.220823 0.404798 0.960956 -0.144301
C57   C     C_3   0.691553 0.950923 0.980460 -0.971075
C58   C     C_3   0.854984 0.702364 0.203879 -1.099884
C59   C     C_R   0.313951 0.763294 0.223061 -0.135078
C60   C     C_R   0.898581 0.193302 0.988675 -0.149598
C61   C     C_R   0.994251 0.194964 0.902573 -0.114054
H1    H     H_    0.922155 0.799186 0.099048 0.131205
H2    H     H_    0.613743 0.587776 0.981937 0.175554
H3    H     H_    0.469024 0.601368 0.977945 0.165207
H4    H     H_    0.830686 0.168771 0.655851 0.136884
H5    H     H_    0.385043 0.457587 0.876732 0.168597
H6    H     H_    0.501055 0.314481 0.972268 0.111402
H7    H     H_    0.348306 0.314159 0.939933 0.144750
H8    H     H_    0.669496 0.590248 0.250849 0.176822
H9    H     H_    0.671035 0.671198 0.184794 0.180674
H10   H     H_    0.522594 0.662696 0.186833 0.149087
H11   H     H_    0.498133 0.556688 0.222004 0.171945
H12   H     H_    0.196561 0.318696 0.923553 0.110648
H13   H     H_    0.380546 0.356734 0.079364 0.175958
H14   H     H_    0.532366 0.985950 0.700185 0.128869
H15   H     H_    0.059829 0.675118 0.797438 0.106596
H16   H     H_    0.363738 0.839243 0.534235 0.128731
H17   H     H_    0.562587 0.870138 0.289936 0.197779
H18   H     H_    0.511845 0.968363 0.325505 0.183408
H19   H     H_    0.683318 0.101844 0.480267 0.128703
H20   H     H_    0.789440 0.325611 0.300909 0.128512
H21   H     H_    0.798559 0.326190 0.466602 0.127245
H22   H     H_    0.056909 0.774799 0.695352 0.237542
H23   H     H_    0.375578 0.782030 0.200949 0.104469
H24   H     H_    0.126384 0.691669 0.681433 0.186152
H25   H     H_    0.044163 0.774891 0.533504 0.231505
H26   H     H_    0.649222 0.322228 0.977202 0.117594
H27   H     H_    0.114413 0.692337 0.521736 0.188237
H28   H     H_    0.866827 0.079228 0.088679 0.126600
H29   H     H_    0.923096 0.968754 0.139486 0.174244
H30   H     H_    0.783030 0.845955 0.043807 0.200799
H31   H     H_    0.886007 0.322067 0.621323 0.092391
H32   H     H_    0.646396 0.168085 0.820401 0.085167
H33   H     H_    0.118736 0.814603 0.944743 0.110363
H34   H     H_    0.831196 0.165299 0.002966 0.101453
H35   H     H_    0.015909 0.674498 0.347769 0.114582
H36   H     H_    0.639367 0.362507 0.158687 0.252660
H37   H     H_    0.566624 0.412908 0.216889 0.268045
H38   H     H_    0.500744 0.270777 0.114501 0.254786
H39   H     H_    0.767232 0.010183 0.378850 0.223402
H40   H     H_    0.838855 0.059092 0.522276 0.265177
H41   H     H_    0.742962 0.914480 0.428711 0.270533
H42   H     H_    0.177552 0.994990 0.008525 0.226026
H43   H     H_    0.125594 0.917418 0.861447 0.253836
H44   H     H_    0.156043 0.057315 0.928049 0.258173
H45   H     H_    0.020243 0.169472 0.844222 0.179386
H46   H     H_    0.773586 0.922897 0.641079 0.345248
H47   H     H_    0.674700 0.963356 0.049583 0.248759
H48   H     H_    0.667846 0.998274 0.943689 0.237353
H49   H     H_    0.641328 0.862065 0.917288 0.260663
H50   H     H_    0.824071 0.755449 0.185903 0.242793
H51   H     H_    0.846998 0.694803 0.272822 0.263920
H52   H     H_    0.943069 0.743324 0.231180 0.258783
H53   H     H_    0.202074 0.769910 0.380042 0.096171
H54   H     H_    0.848390 0.323587 0.178432 0.086175
H55   H     H_    0.379592 0.670316 0.075664 0.080940
H56   H     H_    0.532657 0.441119 0.895272 0.170362
N1    N     N_R   0.995640 0.706130 0.053910 -0.042477
N2    N     N_R   0.054010 0.556790 0.847890 -0.044218
N3    N     N_R   0.789940 0.443190 0.997130 -0.046276
N4    N     N_R   0.997630 0.443170 0.791110 -0.042378
N5    N     N_R   0.846320 0.556810 0.053910 -0.049701
N6    N     N_R   0.791080 0.293860 0.847890 -0.039105
N7    N     N_R   0.052880 0.706130 0.997130 -0.044382
N8    N     N_R   0.002370 0.556830 0.208890 -0.037902
N9    N     N_R   0.153680 0.443190 0.946090 -0.037031
N10   N     N_R   0.208920 0.706140 0.152110 -0.041495
N11   N     N_R   0.947120 0.293870 0.002870 -0.041889
N12   N     N_R   0.004360 0.293870 0.946090 -0.050927
N13   N     N_R   0.151690 0.706140 0.208890 -0.041187
N14   N     N_R   0.945990 0.443210 0.152110 -0.038449
N15   N     N_R   0.210060 0.556810 0.002870 -0.036207
N16   N     N_R   0.848310 0.293860 0.791110 -0.043114
Ni1   Ni    Ni4+2 0.999010 0.630300 0.130220 0.209918
Ni2   Ni    Ni4+2 0.000990 0.369700 0.869780 0.230265
Ni3   Ni    Ni4+2 0.130280 0.630280 0.000000 0.209121
Ni4   Ni    Ni4+2 0.869720 0.369720 0.000000 0.204982
O1    O     O_2   0.042798 0.020045 0.730533 -0.302528
O2    O     O_2   0.898483 0.830696 0.646490 -0.308851
O3    O     O_3   0.843522 0.979208 0.656341 -0.553804
S1    S     S_3+6 0.935344 0.949409 0.717272 -0.071761

loop_
_geom_bond_atom_site_label_1
_geom_bond_atom_site_label_2
_ccdc_geom_bond_type
N8    Ni1   S    
C24   C25   A    
C8    C25   S    
C6    C45   A    
C27   C29   S    
C47   H28   S    
C41   C42   A    
C54   H40   S    
C19   H10   S    
C10   H2    S    
C43   C44   A    
C27   H17   S    
N11   N12   A    
C39   C41   A    
C53   H38   S    
C32   H20   S    
C26   C27   S    
C13   C18   S    
C38   H25   S    
C3    N14   A    
C7    C56   A    
C37   H24   S    
C36   C37   S    
C27   H18   S    
C10   C15   S    
C8    C59   A    
C30   C31   A    
C29   C54   S    
C59   N10   A    
C23   C40   A    
C55   H42   S    
C30   C38   S    
H46   O3    S    
N5    Ni1   S    
C2    N13   A    
N12   Ni2   S    
C5    N15   A    
C57   H48   S    
C35   C36   A    
C45   N8    A    
C7    C17   S    
C48   H30   S    
C58   H52   S    
C56   N9    A    
C4    C12   A    
C33   H21   S    
C15   C34   S    
N1    Ni1   S    
C11   H5    S    
C61   N12   A    
C3    C6    A    
C6    C31   S    
C28   C34   A    
C18   H13   S    
C48   H29   S    
C21   C22   A    
C1    H1    S    
C51   N7    A    
C14   H9    S    
C54   H39   S    
C19   H11   S    
N13   Ni1   S    
C22   H14   S    
C44   C46   A    
C13   C53   S    
C20   C29   S    
N2    N4    A    
N7    Ni3   S    
C51   C52   A    
C60   N11   A    
N10   Ni3   S    
C11   H3    S    
C28   N3    A    
C16   N2    A    
C5    C7    A    
C17   C19   S    
C53   H36   S    
C25   C26   A    
C12   C21   S    
N4    Ni2   S    
C49   C58   S    
C58   H50   S    
C38   H27   S    
N11   Ni4   S    
C37   C38   S    
C40   N4    A    
C42   C55   S    
C47   C57   S    
N8    N14   A    
C47   C48   S    
N9    N15   A    
N15   Ni3   S    
C28   H26   S    
C17   C18   S    
C50   H32   S    
N1    N7    A    
O3    S1    S    
C61   H45   S    
C2    H53   S    
C39   C46   A    
C55   H44   S    
N9    Ni2   S    
C16   C23   A    
C23   C35   S    
C13   C15   S    
C5    H55   S    
C14   H8    S    
C58   H51   S    
C43   S1    S    
C42   C43   A    
N3    N5    A    
C13   H6    S    
C46   C47   S    
C11   C17   S    
C9    C44   S    
C56   H12   S    
C41   C52   S    
C16   H15   S    
C14   C19   S    
C54   H41   S    
C31   C32   A    
C2    C8    A    
C50   N6    A    
N2    Ni3   S    
C39   C48   S    
O1    S1    D    
C12   C50   A    
C57   H49   S    
C53   H37   S    
C4    N16   A    
N6    Ni4   S    
C59   H23   S    
C30   C36   A    
C9    C60   A    
C32   C33   A    
N10   N13   A    
C10   H56   S    
C3    H54   S    
O2    S1    D    
C4    H4    S    
C29   H19   S    
C20   C26   A    
C49   N5    A    
C55   H43   S    
C33   C35   A    
C9    C61   A    
C22   C24   A    
C1    N1    A    
C1    C52   A    
C40   H31   S    
C10   C11   S    
C51   H33   S    
C60   H34   S    
C24   H16   S    
C57   H47   S    
C20   C21   A    
N6    N16   A    
C34   C49   A    
N16   Ni2   S    
C14   C15   S    
C37   H22   S    
N3    Ni4   S    
C45   H35   S    
C18   H7    S    
N14   Ni4   S    
