data_mof_unit_25851.cif
_audit_creation_date              2012-12-10T19:14:27-0500
_audit_creation_method            fapswitch 2.2
_symmetry_space_group_name_H-M    P1
_symmetry_Int_Tables_number       1
_space_group_crystal_system       triclinic
_cell_length_a                    15.991992
_cell_length_b                    14.772803
_cell_length_c                    10.791906
_cell_angle_alpha                 89.89952
_cell_angle_beta                  89.889351
_cell_angle_gamma                 89.88015
_cell_volume                      2549.5362977

loop_
_atom_site_label
_atom_site_type_symbol
_atom_type_description
_atom_site_fract_x
_atom_site_fract_y
_atom_site_fract_z
_atom_type_partial_charge
C1    C     C_R   0.340973 0.500098 0.499753 0.826004
C2    C     C_R   0.659021 0.499910 0.500207 0.804130
C3    C     C_R   0.956638 0.420913 0.501266 0.200189
C4    C     C_R   0.044018 0.421291 0.497244 0.207039
C5    C     C_1   0.822750 0.501128 0.505353 -0.028039
C6    C     C_1   0.177200 0.502107 0.497108 -0.036737
C7    C     C_1   0.252118 0.500678 0.498329 -0.191523
C8    C     C_1   0.747857 0.499997 0.502595 -0.203257
C9    C     C_R   0.568466 0.951375 0.549890 0.165814
C10   C     C_R   0.431869 0.951860 0.449436 0.165604
C11   C     C_R   0.500106 0.902996 0.499795 -0.105868
C12   C     C_R   0.431942 0.048672 0.449390 0.164920
C13   C     C_R   0.568425 0.048188 0.549823 0.162955
C14   C     C_R   0.500152 0.096998 0.499727 -0.101622
C15   C     C_1   0.500024 0.802595 0.499925 0.268163
C16   C     C_1   0.500099 0.197400 0.499873 0.254610
C17   C     C_R   0.498853 0.500072 0.262257 0.814342
C18   C     C_R   0.498529 0.499948 0.737763 0.816783
C19   C     C_R   0.651814 0.519709 0.128291 -0.144135
C20   C     C_R   0.651590 0.520535 0.870394 -0.139466
C21   C     C_R   0.726677 0.529545 0.063402 -0.140997
C22   C     C_R   0.726560 0.530039 0.934636 -0.140166
C23   C     C_R   0.574720 0.510415 0.934586 0.053286
C24   C     C_R   0.574817 0.510179 0.064775 0.052417
C25   C     C_R   0.498320 0.500272 0.128640 -0.156761
C26   C     C_R   0.498233 0.499713 0.871423 -0.154507
C27   C     C_R   0.421234 0.490480 0.065835 0.116945
C28   C     C_R   0.421356 0.488841 0.934984 0.118988
C29   C     C_R   0.955133 0.587369 0.512373 0.106483
C30   C     C_R   0.043898 0.587927 0.500716 0.094743
C31   C     C_R   0.912579 0.503306 0.508451 -0.040344
C32   C     C_R   0.087316 0.504147 0.496320 -0.051892
Cu1   Cu    Cu3+1 0.500000 0.589220 0.500000 0.963213
Cu2   Cu    Cu3+1 0.500000 0.410780 0.500000 0.967377
H1    H     H_    0.655061 0.519571 0.228360 0.120248
H2    H     H_    0.654684 0.520939 0.770310 0.120905
H3    H     H_    0.784956 0.536726 0.113282 0.129680
H4    H     H_    0.784757 0.537567 0.884292 0.131379
N1    N     N_1   0.500000 0.276710 0.500000 -0.163753
N2    N     N_1   0.500000 0.723290 0.500000 -0.164046
O1    O     O_R   0.380310 0.575320 0.500020 -0.579279
O2    O     O_R   0.619690 0.575320 0.499980 -0.575429
O3    O     O_R   0.380310 0.424640 0.499960 -0.574254
O4    O     O_R   0.619690 0.424640 0.500040 -0.565669
O5    O     O_R   0.500000 0.575360 0.319640 -0.579109
O6    O     O_R   0.500000 0.575360 0.680360 -0.574432
O7    O     O_R   0.500000 0.424670 0.319580 -0.575085
O8    O     O_R   0.500000 0.424670 0.680420 -0.580340
C33   C     C_3   0.339570 0.484456 0.139381 -0.403521
C34   C     C_3   0.317530 0.386570 0.171692 -0.819316
H5    H     H_    0.365992 0.356054 0.232104 0.279665
H6    H     H_    0.256925 0.384971 0.222066 0.232369
H7    H     H_    0.311907 0.344846 0.086761 0.239548
H8    H     H_    0.343232 0.524399 0.226159 0.189011
H9    H     H_    0.286841 0.516134 0.088843 0.206933
C35   C     C_3   0.340295 0.476648 0.862023 -0.409865
C36   C     C_3   0.302037 0.567751 0.826007 -0.846766
H10   H     H_    0.289368 0.609388 0.909477 0.245972
H11   H     H_    0.344634 0.605716 0.763643 0.270425
H12   H     H_    0.242175 0.556244 0.776664 0.239038
H13   H     H_    0.351074 0.436085 0.777057 0.201836
H14   H     H_    0.293473 0.436650 0.914086 0.208813
C37   C     C_3   0.093055 0.676188 0.490802 -0.371244
C38   C     C_3   0.110260 0.716978 0.618043 -0.826393
H15   H     H_    0.051279 0.736258 0.665107 0.254991
H16   H     H_    0.144659 0.667725 0.676800 0.254561
H17   H     H_    0.149118 0.778673 0.607383 0.233748
H18   H     H_    0.154035 0.665642 0.443695 0.204538
H19   H     H_    0.061168 0.725663 0.429647 0.176224
C39   C     C_3   0.904376 0.674413 0.529325 -0.369802
C40   C     C_3   0.869529 0.682290 0.661087 -0.829777
H20   H     H_    0.821678 0.629793 0.679666 0.253194
H21   H     H_    0.920408 0.675198 0.730254 0.247226
H22   H     H_    0.839604 0.749600 0.673230 0.237350
H23   H     H_    0.940559 0.736513 0.510972 0.200338
H24   H     H_    0.852018 0.676270 0.461811 0.197055
N3    N     N_2   0.913630 0.336395 0.499387 -0.402195
H25   H     H_    0.861195 0.333534 0.555026 0.251768
C41   C     C_3   0.899086 0.300749 0.376617 -0.656194
H26   H     H_    0.856463 0.346272 0.324158 0.215582
H27   H     H_    0.869713 0.232907 0.384022 0.217803
H28   H     H_    0.959056 0.293513 0.325414 0.241298
N4    N     N_2   0.087793 0.337090 0.492722 -0.402681
H29   H     H_    0.139817 0.336687 0.436092 0.247388
C42   C     C_3   0.103607 0.296978 0.612751 -0.653755
H30   H     H_    0.133178 0.229519 0.600442 0.215376
H31   H     H_    0.044124 0.287797 0.664584 0.242061
H32   H     H_    0.146510 0.340558 0.667242 0.215589
N5    N     N_2   0.637322 0.097644 0.598615 -0.420843
H33   H     H_    0.661804 0.073305 0.680302 0.246044
C43   C     C_3   0.700425 0.121764 0.508285 -0.666067
H34   H     H_    0.731220 0.059971 0.471405 0.225873
H35   H     H_    0.748495 0.164997 0.552705 0.223223
H36   H     H_    0.672160 0.160522 0.430571 0.232024
N6    N     N_2   0.363390 0.098603 0.399553 -0.422867
H37   H     H_    0.338726 0.073995 0.318321 0.245646
C44   C     C_3   0.300449 0.124526 0.489206 -0.674041
H38   H     H_    0.269096 0.063563 0.527456 0.226594
H39   H     H_    0.252818 0.168030 0.443659 0.222993
H40   H     H_    0.328946 0.163629 0.566088 0.230910
N7    N     N_2   0.637181 0.901770 0.600181 -0.424171
H41   H     H_    0.665075 0.926416 0.679052 0.247141
C45   C     C_3   0.693912 0.860005 0.512263 -0.676203
H42   H     H_    0.755804 0.893841 0.516051 0.209534
H43   H     H_    0.669981 0.864200 0.415702 0.225236
H44   H     H_    0.702205 0.787570 0.536906 0.243670
N8    N     N_2   0.363231 0.902700 0.399018 -0.424559
H45   H     H_    0.336078 0.927168 0.319288 0.246132
C46   C     C_3   0.305506 0.862703 0.486976 -0.678652
H46   H     H_    0.244778 0.899223 0.483999 0.209871
H47   H     H_    0.329924 0.865021 0.583364 0.225599
H48   H     H_    0.294737 0.790878 0.461682 0.239213

loop_
_geom_bond_atom_site_label_1
_geom_bond_atom_site_label_2
_ccdc_geom_bond_type
C6    C32   S    
N7    H41   S    
Cu1   O5    S    
N6    H37   S    
C18   C26   S    
C44   H38   S    
C28   C35   S    
C42   H30   S    
Cu1   O2    S    
C21   C22   A    
C19   C21   A    
C17   O5    A    
C46   H47   S    
C36   H11   S    
C43   H35   S    
C33   H8    S    
C22   H4    S    
C35   C36   S    
C23   C26   A    
C9    C13   A    
C11   C15   S    
C1    O3    A    
C37   H19   S    
C2    O4    A    
C34   H6    S    
N8    H45   S    
C12   N6    S    
C39   C40   S    
N5    C43   S    
N3    H25   S    
C42   H31   S    
N7    C45   S    
C13   C14   A    
Cu1   O6    S    
N8    C46   S    
C10   N8    S    
C18   O6    A    
C44   H39   S    
Cu1   Cu2   S    
N3    C41   S    
Cu1   N2    S    
Cu2   N1    S    
C34   H7    S    
C38   H17   S    
Cu2   O4    S    
C24   C25   A    
C46   H48   S    
C43   H34   S    
C40   H21   S    
C36   H12   S    
C33   H9    S    
C41   H26   S    
C38   H16   S    
C29   C30   A    
C40   H22   S    
N4    H29   S    
C20   C23   A    
C23   C24   A    
C34   H5    S    
C45   H43   S    
C3    C31   A    
C9    C11   A    
C4    C32   A    
C10   C12   A    
C1    O1    A    
N4    C42   S    
C20   C22   A    
C39   H24   S    
C14   C16   S    
C5    C8    T    
Cu2   O8    S    
C3    C4    A    
C3    N3    S    
C45   H42   S    
C44   H40   S    
C41   H27   S    
C29   C39   S    
C42   H32   S    
C37   H18   S    
C13   N5    S    
C1    C7    S    
C2    C8    S    
Cu2   O3    S    
C17   O7    A    
C12   C14   A    
C18   O8    A    
C41   H28   S    
N6    C44   S    
C6    C7    T    
C25   C27   A    
C26   C28   A    
Cu1   O1    S    
C38   H15   S    
C19   C24   A    
C17   C25   S    
C40   H20   S    
C29   C31   A    
C19   H1    S    
C46   H46   S    
C43   H36   S    
C30   C32   A    
C36   H10   S    
C4    N4    S    
C2    O2    A    
C45   H44   S    
C35   H14   S    
C15   N2    T    
C10   C11   A    
C16   N1    T    
C37   C38   S    
C20   H2    S    
C21   H3    S    
C39   H23   S    
C9    N7    S    
C33   C34   S    
C27   C28   A    
C35   H13   S    
Cu2   O7    S    
N5    H33   S    
C30   C37   S    
C27   C33   S    
C5    C31   S    
