data_mof_unit_54870.cif
_audit_creation_date              2012-10-26T19:08:22-0400
_audit_creation_method            fapswitch 2.2
_symmetry_space_group_name_H-M    P1
_symmetry_Int_Tables_number       1
_space_group_crystal_system       triclinic
_cell_length_a                    14.824546
_cell_length_b                    14.944191
_cell_length_c                    19.29594
_cell_angle_alpha                 74.763004
_cell_angle_beta                  102.216437
_cell_angle_gamma                 115.789186
_cell_volume                      3690.41266694

loop_
_atom_site_label
_atom_site_type_symbol
_atom_type_description
_atom_site_fract_x
_atom_site_fract_y
_atom_site_fract_z
_atom_type_partial_charge
C1    C     C_R   0.880515 0.312766 0.511928 0.553169
C2    C     C_R   0.288122 0.822669 0.505547 -0.104923
C3    C     C_R   0.640215 0.077845 0.509116 0.031288
C4    C     C_R   0.360718 0.921393 0.485797 0.040207
C5    C     C_R   0.674484 0.004241 0.553754 0.053067
C6    C     C_R   0.326661 0.994411 0.439863 0.049548
C7    C     C_R   0.535312 0.049979 0.485212 0.030504
C8    C     C_R   0.465815 0.948825 0.508657 0.041935
C9    C     C_R   0.503938 0.878186 0.553137 -0.099682
C10   C     C_R   0.497464 0.119954 0.439218 -0.115977
C11   C     C_R   0.606135 0.905345 0.574316 -0.113209
C12   C     C_R   0.119512 0.687251 0.487773 0.543215
C13   C     C_R   0.395305 0.092647 0.417691 -0.111510
C14   C     C_R   0.710984 0.654401 0.367951 -0.139854
C15   C     C_R   0.288739 0.345093 0.631717 -0.140287
C16   C     C_R   0.999915 0.500479 0.632247 0.562069
C17   C     C_R   0.000059 0.499487 0.367755 0.556963
C18   C     C_R   0.796815 0.634905 0.394738 0.013231
C19   C     C_R   0.202964 0.364679 0.604996 0.012920
C20   C     C_R   0.712041 0.508522 0.490847 0.185519
C21   C     C_R   0.287896 0.491584 0.509156 0.188637
C22   C     C_R   0.628837 0.537432 0.472476 -0.020168
C23   C     C_R   0.812881 0.205105 0.521604 0.006382
C24   C     C_R   0.371019 0.462556 0.527396 -0.025226
C25   C     C_R   0.624658 0.603740 0.405243 0.005523
C26   C     C_R   0.375170 0.396114 0.594557 0.005651
C27   C     C_R   0.546159 0.496315 0.515467 0.006056
C28   C     C_R   0.453827 0.504100 0.484528 0.001195
C29   C     C_R   0.446287 0.551126 0.411209 -0.101065
C30   C     C_R   0.553752 0.449751 0.588928 -0.100767
C31   C     C_R   0.531529 0.609619 0.374327 0.067030
C32   C     C_R   0.468438 0.390756 0.625651 0.065495
C33   C     C_R   0.072994 0.484863 0.761546 -0.136530
C34   C     C_R   0.187325 0.794871 0.476434 -0.002780
C35   C     C_R   0.927269 0.515664 0.238403 -0.137333
C36   C     C_R   0.073268 0.489273 0.832703 -0.130727
C37   C     C_R   0.927001 0.511344 0.167226 -0.131128
C38   C     C_R   0.000764 0.512544 0.851701 0.012124
C39   C     C_R   0.999239 0.487684 0.148247 0.012139
C40   C     C_R   0.928175 0.534587 0.797516 0.050587
C41   C     C_R   0.071528 0.465137 0.202459 0.049414
C42   C     C_R   0.928073 0.528372 0.726325 -0.102154
C43   C     C_R   0.071539 0.471119 0.273689 -0.106767
C44   C     C_R   0.000042 0.503718 0.707846 -0.006393
C45   C     C_R   0.777040 0.030721 0.578941 -0.117960
C46   C     C_R   0.999904 0.496255 0.292149 -0.009175
C47   C     C_R   0.999915 0.492682 0.071352 0.367300
C48   C     C_R   0.000097 0.507593 0.928597 0.367549
C49   C     C_2   0.518459 0.672462 0.302446 0.574136
C50   C     C_2   0.481561 0.328050 0.697580 0.574123
C51   C     C_2   0.304095 0.593224 0.464261 0.596584
C52   C     C_2   0.696439 0.407824 0.537170 0.591367
C53   C     C_2   0.854774 0.568982 0.811752 0.593316
C54   C     C_2   0.144737 0.430520 0.188193 0.593079
C55   C     C_R   0.223976 0.967950 0.415085 -0.120965
C56   C     C_R   0.845811 0.130860 0.563496 -0.122227
C57   C     C_R   0.154772 0.868361 0.432553 -0.128177
C58   C     C_R   0.712217 0.177640 0.492177 -0.124794
Cu1   Cu    Cu3+1 0.081740 0.475680 0.518680 0.990014
Cu2   Cu    Cu3+1 0.918260 0.524320 0.481320 0.993166
H1    H     H_    0.129623 0.466094 0.748770 0.142528
H2    H     H_    0.126291 0.453396 0.315337 0.192964
H3    H     H_    0.307495 0.764501 0.542527 0.150831
H4    H     H_    0.692174 0.237020 0.457865 0.148268
H5    H     H_    0.803478 0.974481 0.612688 0.121680
H6    H     H_    0.197740 0.023653 0.380114 0.122863
H7    H     H_    0.457320 0.800497 0.573151 0.148590
H8    H     H_    0.544423 0.196911 0.417644 0.143489
H9    H     H_    0.567315 0.809037 0.235872 0.352156
H10   H     H_    0.433165 0.191401 0.764106 0.352683
H11   H     H_    0.268930 0.678258 0.371719 0.341002
H12   H     H_    0.870888 0.534801 0.251158 0.142612
H13   H     H_    0.606153 0.258838 0.555944 0.343647
H14   H     H_    0.129135 0.472119 0.873509 0.153142
H15   H     H_    0.871370 0.528886 0.126390 0.152968
H16   H     H_    0.718924 0.576842 0.782847 0.356323
H17   H     H_    0.280366 0.422166 0.217156 0.356332
H18   H     H_    0.631663 0.848594 0.608430 0.124155
H19   H     H_    0.369986 0.148821 0.382312 0.126595
H20   H     H_    0.076693 0.848333 0.409941 0.133560
H21   H     H_    0.923820 0.150624 0.586224 0.132961
H22   H     H_    0.137136 0.325418 0.634018 0.132440
H23   H     H_    0.862550 0.673971 0.365615 0.131340
H24   H     H_    0.712556 0.706453 0.316990 0.163499
H25   H     H_    0.287085 0.292798 0.682564 0.163728
H26   H     H_    0.373877 0.544682 0.381958 0.178443
H27   H     H_    0.626201 0.456739 0.618401 0.174843
H28   H     H_    0.872983 0.545541 0.684712 0.187125
N1    N     N_R   0.912320 0.460450 0.958958 -0.163264
N2    N     N_R   0.087696 0.539815 0.040997 -0.164609
N3    N     N_R   0.912152 0.453748 0.029032 -0.201462
N4    N     N_R   0.087862 0.546524 0.970920 -0.202229
N5    N     N_R   0.795420 0.560800 0.453240 -0.259360
N6    N     N_R   0.204580 0.439200 0.546760 -0.257687
O1    O     O_R   0.977910 0.338110 0.524620 -0.515278
O2    O     O_R   0.585163 0.773994 0.286068 -0.698449
O3    O     O_2   0.553035 0.364234 0.741509 -0.468569
O4    O     O_R   0.415338 0.226317 0.713855 -0.701084
O5    O     O_2   0.372497 0.667543 0.484443 -0.557405
O6    O     O_R   0.248222 0.604763 0.397115 -0.683020
O7    O     O_2   0.749615 0.399346 0.594019 -0.499258
O8    O     O_R   0.613520 0.322723 0.518371 -0.729619
O9    O     O_2   0.876196 0.617903 0.859078 -0.485703
O10   O     O_R   0.762066 0.548708 0.768728 -0.667241
O11   O     O_2   0.123259 0.381807 0.140730 -0.485147
O12   O     O_R   0.022090 0.661890 0.475380 -0.514622
O13   O     O_R   0.237338 0.450389 0.231321 -0.667555
O14   O     O_R   0.839850 0.379180 0.493080 -0.475669
O15   O     O_R   0.160150 0.620820 0.506920 -0.477977
O16   O     O_R   0.069040 0.479450 0.615630 -0.518224
O17   O     O_R   0.930960 0.520550 0.384370 -0.519484
O18   O     O_R   0.930990 0.520520 0.584090 -0.461814
O19   O     O_R   0.069010 0.479480 0.415910 -0.458320
O20   O     O_2   0.446613 0.636595 0.258661 -0.472447

loop_
_geom_bond_atom_site_label_1
_geom_bond_atom_site_label_2
_ccdc_geom_bond_type
C25   C31   A    
C23   C58   A    
C12   O12   A    
C20   N5    A    
C13   H19   S    
C26   C32   A    
C7    C10   A    
C14   C18   A    
C14   H24   S    
C6    C55   A    
C4    C8    A    
H9    O2    S    
Cu1   O16   S    
C17   O19   A    
C56   H21   S    
C39   C41   A    
C15   C19   A    
C52   O8    S    
Cu1   O1    S    
C54   O13   S    
C28   C29   A    
C35   C37   A    
C24   C26   A    
C5    C11   A    
C3    C7    A    
C21   N6    A    
C53   O10   S    
C33   C36   A    
C23   C56   A    
C45   C56   A    
C8    C9    A    
C22   C25   A    
C34   C57   A    
Cu1   N6    S    
N1    N3    A    
C19   H22   S    
C16   C44   S    
C38   C48   S    
Cu2   O14   S    
Cu1   O19   S    
C15   H25   S    
Cu2   N5    S    
C2    C34   A    
C40   C42   A    
C49   O20   D    
C37   H15   S    
Cu1   Cu2   S    
C49   O2    S    
C38   C40   A    
C27   C30   A    
C58   H4    S    
C41   C43   A    
C57   H20   S    
C42   C44   A    
C31   C49   S    
C17   O17   A    
C12   O15   A    
C51   O5    D    
C37   C39   A    
C52   O7    D    
C50   O4    S    
C16   O16   A    
H17   O13   S    
C17   C46   S    
C4    C6    A    
C15   C26   A    
C5    C45   A    
C2    C4    A    
H16   O10   S    
C9    H7    S    
Cu2   O18   S    
C11   H18   S    
N2    N4    A    
C1    O1    A    
C18   H23   S    
C9    C11   A    
C32   C50   S    
C29   H26   S    
C19   N6    A    
C36   H14   S    
H13   O8    S    
C20   C22   A    
C35   H12   S    
C1    C23   S    
C48   N1    A    
C55   C57   A    
C45   H5    S    
C47   N2    A    
C42   H28   S    
C12   C34   S    
C21   C51   S    
C55   H6    S    
Cu2   O12   S    
C2    H3    S    
C16   O18   A    
C39   C47   S    
C51   O6    S    
C50   O3    D    
C54   O11   D    
C33   C44   A    
C47   N3    A    
C24   C28   A    
C3    C5    A    
C10   C13   A    
C10   H8    S    
C20   C52   S    
H11   O6    S    
C22   C27   A    
C36   C38   A    
C29   C31   A    
Cu2   O17   S    
C6    C13   A    
C30   C32   A    
C53   O9    D    
Cu1   O15   S    
C14   C25   A    
C43   C46   A    
C41   C54   S    
C7    C8    A    
C1    O14   A    
C3    C58   A    
C33   H1    S    
C40   C53   S    
C48   N4    A    
C21   C24   A    
C27   C28   A    
C18   N5    A    
C30   H27   S    
C35   C46   A    
H10   O4    S    
C43   H2    S    
