data_mof_unit_13184.cif
_audit_creation_date              2013-03-05T15:42:04-0500
_audit_creation_method            fapswitch 2.2
_symmetry_space_group_name_H-M    P1
_symmetry_Int_Tables_number       1
_space_group_crystal_system       triclinic
_cell_length_a                    7.944462
_cell_length_b                    8.586839
_cell_length_c                    15.749969
_cell_angle_alpha                 93.637895
_cell_angle_beta                  86.150952
_cell_angle_gamma                 92.951653
_cell_volume                      1068.64050127

loop_
_atom_site_label
_atom_site_type_symbol
_atom_site_description
_atom_site_fract_x
_atom_site_fract_y
_atom_site_fract_z
_atom_type_partial_charge
O1    O     O_R   0.389250 0.738570 0.505570 -0.614212
O2    O     O_R   0.610750 0.261430 0.494430 -0.614924
O3    O     O_R   0.678390 0.711630 0.491020 -0.638503
O4    O     O_R   0.321610 0.288370 0.508980 -0.640569
C1    C     C_R   0.544490 0.793759 0.498078 0.953755
C2    C     C_R   0.455510 0.206242 0.501925 0.949230
O5    O     O_R   0.355460 0.513480 0.630490 -0.628127
O6    O     O_R   0.644540 0.486520 0.369510 -0.619296
O7    O     O_R   0.644600 0.486540 0.615950 -0.631696
O8    O     O_R   0.355400 0.513460 0.384050 -0.632249
C3    C     C_R   0.502714 0.501589 0.661304 0.879056
C4    C     C_R   0.497133 0.497627 0.338718 0.879152
Zn1   Zn    Zn3+2 0.306940 0.517990 0.509710 0.976837
Zn2   Zn    Zn3+2 0.693060 0.482010 0.490290 0.980291
C5    C     C_2   0.567824 0.957110 0.496817 -0.347024
C6    C     C_2   0.432176 0.042894 0.503194 -0.347893
C7    C     C_3   0.438933 0.623325 0.034530 0.185812
C8    C     C_3   0.546500 0.351220 0.965309 0.183622
C9    C     C_3   0.602895 0.603254 0.978598 0.193559
C10   C     C_3   0.381934 0.371591 0.021938 0.219320
C11   C     C_1   0.509823 0.501299 0.749653 -0.126583
C12   C     C_1   0.487962 0.490384 0.250340 -0.113799
C13   C     C_3   0.342154 0.512436 0.971828 0.001447
C14   C     C_3   0.642298 0.461980 0.028168 -0.016488
C15   C     C_3   0.507158 0.493034 0.915184 -0.148783
C16   C     C_3   0.478227 0.483057 0.084759 -0.131370
N1    N     N_2   0.950320 0.457950 0.477300 0.023509
N2    N     N_2   0.049680 0.542050 0.522700 0.021044
H1    H     H_    0.696686 0.006321 0.490560 0.194456
H2    H     H_    0.303313 0.993685 0.509451 0.194383
C17   C     C_1   0.513351 0.498911 0.824546 0.162860
C18   C     C_1   0.479104 0.485063 0.175536 0.170728
N3    N     N_R   0.725890 0.728963 0.957574 0.253534
O9    O     O_R   0.802015 0.808367 0.018068 -0.299225
O10   O     O_R   0.764613 0.758877 0.878554 -0.356096
N4    N     N_R   0.263189 0.244697 0.046319 0.252264
O11   O     O_R   0.189606 0.156894 0.988148 -0.317389
O12   O     O_R   0.239334 0.211559 0.125773 -0.370990
N5    N     N_R   0.378708 0.772348 0.070480 0.256912
O13   O     O_R   0.342786 0.878049 0.020009 -0.253342
O14   O     O_R   0.356210 0.799236 0.152523 -0.346927
N6    N     N_R   0.604900 0.202586 0.927644 0.249397
O15   O     O_R   0.613741 0.085413 0.975134 -0.265984
O16   O     O_R   0.642903 0.184377 0.846145 -0.365712
N7    N     N_2   0.803944 0.442024 0.062341 -0.289976
H3    H     H_    0.905924 0.477379 0.023679 0.276935
C19   C     C_3   0.825011 0.296840 0.101215 -0.529119
H4    H     H_    0.924317 0.315296 0.147518 0.240696
H5    H     H_    0.865475 0.206198 0.051818 0.302615
H6    H     H_    0.706580 0.255352 0.135961 0.237184
N8    N     N_2   0.178400 0.545118 0.943293 -0.294018
H7    H     H_    0.159344 0.662255 0.939951 0.300922
C20   C     C_3   0.119510 0.451256 0.870621 -0.648995
H8    H     H_    0.979539 0.449989 0.872414 0.251346
H9    H     H_    0.158943 0.329363 0.870340 0.285185
H10   H     H_    0.169430 0.502635 0.810689 0.220577
N9    N     N_2   0.017638 0.332505 0.429718 -0.228483
H11   H     H_    0.142827 0.343904 0.413440 0.282254
C21   C     C_3   0.929137 0.281239 0.355084 -0.644172
H12   H     H_    0.996226 0.184156 0.319807 0.227451
H13   H     H_    0.926713 0.378380 0.311910 0.240786
H14   H     H_    0.800154 0.235439 0.372464 0.264023
N10   N     N_2   0.982293 0.667936 0.569857 -0.232169
H15   H     H_    0.857244 0.656122 0.586437 0.281612
C22   C     C_3   0.070818 0.720396 0.644272 -0.624848
H16   H     H_    0.004112 0.818383 0.678882 0.228745
H17   H     H_    0.200059 0.765272 0.626822 0.263296
H18   H     H_    0.072437 0.624194 0.688010 0.234165

loop_
_geom_bond_atom_site_label_1
_geom_bond_atom_site_label_2
_geom_bond_distance
_ccdc_geom_bond_type
C15   C17   1.429090 S    
O1    Zn1   1.975298 S    
O7    Zn2   1.989021 S    
N10   C22   1.442998 S    
Zn1   N2    2.060003 S    
C16   C18   1.429232 S    
Zn2   N1    2.060002 S    
C19   H5    1.108959 S    
C11   C17   1.183272 T    
C12   C18   1.182816 T    
C20   H9    1.107560 S    
C13   N8    1.450958 S    
C19   H4    1.108626 S    
C22   H17   1.101388 S    
C10   C13   1.542539 S    
O6    C4    1.307412 A    
C22   H18   1.109782 S    
O3    C1    1.301054 A    
N4    O12   1.300258 A    
C9    C14   1.539889 S    
C21   H12   1.111278 S    
N5    O14   1.300138 A    
C7    C13   1.542816 S    
C20   H8    1.109973 S    
O5    C3    1.307417 A    
O7    C3    1.301058 A    
N9    H11   1.011622 S    
O2    C2    1.298806 A    
O3    Zn2   1.980395 S    
N6    O16   1.300231 A    
O1    C1    1.298806 A    
C14   N7    1.447524 S    
O8    C4    1.300627 A    
N1    N2    1.267847 D    
N4    O11   1.299389 A    
C7    C9    1.533715 S    
C14   C16   1.540783 S    
C5    H1    1.087892 S    
C19   H6    1.110276 S    
C8    C10   1.543550 S    
N7    C19   1.445407 S    
C9    N3    1.457021 S    
O2    Zn2   1.975296 S    
C8    C15   1.548604 S    
C8    C14   1.539826 S    
C21   H13   1.110818 S    
N9    C21   1.443361 S    
C1    C5    1.406590 S    
N6    O15   1.298667 A    
C7    C16   1.538444 S    
C9    C15   1.542621 S    
C2    C6    1.406572 S    
C5    C6    1.331110 D    
C10   N4    1.457137 S    
N2    N10   1.382407 S    
C4    C12   1.396015 S    
O5    Zn1   1.969286 S    
C13   C15   1.545535 S    
N3    O9    1.300334 A    
O4    C2    1.301049 A    
C22   H16   1.111247 S    
N1    N9    1.382402 S    
C20   H10   1.107914 S    
N5    O13   1.298391 A    
C7    N5    1.456614 S    
C21   H14   1.101870 S    
O6    Zn2   1.969286 S    
C8    N6    1.457410 S    
N3    O10   1.300230 A    
N7    H3    1.025298 S    
C6    H2    1.087887 S    
C3    C11   1.396581 S    
N8    H7    1.029986 S    
O4    Zn1   1.980394 S    
C10   C16   1.544777 S    
N10   H15   1.011721 S    
N8    C20   1.447251 S    
O8    Zn1   1.989021 S    
