data_mof_unit_62646.cif
_audit_creation_date              2012-12-10T19:30:21-0500
_audit_creation_method            fapswitch 2.2
_symmetry_space_group_name_H-M    P1
_symmetry_Int_Tables_number       1
_space_group_crystal_system       monoclinic
_cell_length_a                    17.726516
_cell_length_b                    16.448713
_cell_length_c                    19.372912
_cell_angle_alpha                 90.0
_cell_angle_beta                  90.466295
_cell_angle_gamma                 90.0
_cell_volume                      5648.53511831

loop_
_atom_site_label
_atom_site_type_symbol
_atom_type_description
_atom_site_fract_x
_atom_site_fract_y
_atom_site_fract_z
_atom_type_partial_charge
C1    C     C_R   0.355226 0.500000 0.499885 0.808515
C2    C     C_R   0.451906 0.170944 0.455970 -0.340739
C3    C     C_R   0.451906 0.829056 0.455970 -0.340739
C4    C     C_R   0.548094 0.170944 0.544030 -0.340739
C5    C     C_R   0.547336 0.743249 0.543336 0.693834
C6    C     C_R   0.452664 0.256750 0.456664 0.693834
C7    C     C_R   0.452664 0.743249 0.456664 0.693834
C8    C     C_R   0.547336 0.256750 0.543336 0.693834
C9    C     C_R   0.500000 0.873166 0.500000 -0.026844
C10   C     C_R   0.500000 0.126834 0.500000 -0.026844
C11   C     C_1   0.500000 0.962728 0.500000 0.033494
C12   C     C_R   0.644773 0.500000 0.500114 0.808515
C13   C     C_1   0.500000 0.037271 0.500000 0.033494
C14   C     C_R   0.499853 0.500000 0.367176 0.806399
C15   C     C_R   0.500147 0.500000 0.632824 0.806399
C16   C     C_R   0.499583 0.573661 0.254722 -0.159026
C17   C     C_R   0.500417 0.426339 0.745278 -0.159025
C18   C     C_R   0.500417 0.573661 0.745278 -0.159026
C19   C     C_R   0.499583 0.426339 0.254722 -0.159026
C20   C     C_R   0.499564 0.573670 0.182802 -0.154131
C21   C     C_R   0.500436 0.426330 0.817198 -0.154131
C22   C     C_R   0.500436 0.573670 0.817198 -0.154131
C23   C     C_R   0.727723 0.500000 0.500251 -0.047424
C24   C     C_R   0.499564 0.426330 0.182802 -0.154131
C25   C     C_R   0.499609 0.500000 0.146107 0.051658
C26   C     C_R   0.500391 0.500000 0.853893 0.051658
C27   C     C_R   0.499667 0.500000 0.291290 -0.043996
C28   C     C_R   0.500333 0.500000 0.708710 -0.043997
C29   C     C_R   0.500223 0.500000 0.929980 0.416682
C30   C     C_R   0.499777 0.500000 0.070020 0.416682
C31   C     C_R   0.846380 0.573699 0.500287 -0.153251
C32   C     C_R   0.153620 0.426301 0.499713 -0.153251
C33   C     C_R   0.153620 0.573699 0.499713 -0.153251
C34   C     C_R   0.272276 0.500000 0.499749 -0.047424
C35   C     C_R   0.846380 0.426301 0.500287 -0.153251
C36   C     C_R   0.767737 0.573800 0.500305 -0.164745
C37   C     C_R   0.232263 0.426200 0.499695 -0.164745
C38   C     C_R   0.232263 0.573800 0.499695 -0.164745
C39   C     C_R   0.767737 0.426200 0.500305 -0.164745
C40   C     C_R   0.885592 0.500000 0.500239 0.142387
C41   C     C_R   0.114408 0.500000 0.499761 0.142387
C42   C     C_1   0.966175 0.500000 0.500077 -0.050562
C43   C     C_1   0.033825 0.500000 0.499923 -0.050562
C44   C     C_R   0.548094 0.829056 0.544030 -0.340739
Cu1   Cu    Cu3+1 0.500000 0.580420 0.500000 1.044187
Cu2   Cu    Cu3+1 0.500000 0.419580 0.500000 1.044187
F1    F     F_    0.594438 0.702357 0.586454 -0.655122
F2    F     F_    0.405562 0.297643 0.413546 -0.655122
F3    F     F_    0.405562 0.702357 0.413546 -0.655123
F4    F     F_    0.594438 0.297643 0.586454 -0.655122
H1    H     H_    0.499570 0.631388 0.281620 0.178732
H2    H     H_    0.123429 0.369015 0.499725 0.139077
H3    H     H_    0.123429 0.630985 0.499725 0.139077
H4    H     H_    0.876571 0.369015 0.500275 0.139077
H5    H     H_    0.738373 0.631541 0.500325 0.179074
H6    H     H_    0.261627 0.368459 0.499675 0.179074
H7    H     H_    0.261627 0.631541 0.499675 0.179074
H8    H     H_    0.738373 0.368459 0.500325 0.179074
H9    H     H_    0.586114 0.860747 0.578837 0.184088
H10   H     H_    0.413886 0.139253 0.421163 0.184088
H11   H     H_    0.413886 0.860747 0.421163 0.184088
H12   H     H_    0.500429 0.368612 0.718380 0.178732
H13   H     H_    0.586114 0.139253 0.578837 0.184088
H14   H     H_    0.500429 0.631388 0.718380 0.178732
H15   H     H_    0.499570 0.368612 0.281620 0.178732
H16   H     H_    0.499558 0.631476 0.156067 0.159221
H17   H     H_    0.500442 0.368524 0.843933 0.159221
H18   H     H_    0.500442 0.631476 0.843933 0.159221
H19   H     H_    0.499558 0.368524 0.156067 0.159221
H20   H     H_    0.876571 0.630985 0.500275 0.139077
N1    N     N_R   0.499893 0.429010 0.034321 -0.235886
N2    N     N_R   0.500107 0.570990 0.965679 -0.235886
N3    N     N_R   0.500107 0.429010 0.965679 -0.235886
N4    N     N_R   0.499893 0.570990 0.034321 -0.235886
N5    N     N_R   0.500000 0.701220 0.500000 -0.271452
N6    N     N_R   0.500000 0.298780 0.500000 -0.271452
O1    O     O_R   0.391260 0.567930 0.500000 -0.551244
O2    O     O_R   0.608740 0.432070 0.500000 -0.551244
O3    O     O_R   0.608740 0.567930 0.500000 -0.551244
O4    O     O_R   0.391260 0.432070 0.500000 -0.551244
O5    O     O_R   0.499990 0.567930 0.400140 -0.551403
O6    O     O_R   0.500010 0.432070 0.599860 -0.551403
O7    O     O_R   0.500010 0.567930 0.599860 -0.551403
O8    O     O_R   0.499990 0.432070 0.400140 -0.551403

loop_
_geom_bond_atom_site_label_1
_geom_bond_atom_site_label_2
_ccdc_geom_bond_type
C21   C26   A    
C34   C37   A    
C1    O1    A    
C16   H1    S    
C14   O8    A    
C4    C8    A    
Cu2   N6    S    
C30   N1    A    
Cu1   O7    S    
Cu1   Cu2   S    
C5    F1    S    
C12   C23   S    
C6    F2    S    
C20   H16   S    
C3    C7    A    
C30   N4    A    
C2    H10   S    
C29   N3    A    
C20   C25   A    
C44   H9    S    
C12   O3    A    
C8    N6    A    
C31   C40   A    
C32   H2    S    
Cu2   O6    S    
C37   H6    S    
C31   H20   S    
C12   O2    A    
C1    C34   S    
C32   C41   A    
C19   H15   S    
C14   C27   S    
C19   C27   A    
C29   N2    A    
C16   C27   A    
C40   C42   S    
C34   C38   A    
C21   H17   S    
C35   H4    S    
C41   C43   S    
C2    C6    A    
C24   H19   S    
C15   O6    A    
C3    H11   S    
C33   H3    S    
C18   C28   A    
C24   C25   A    
C7    F3    S    
N2    N4    A    
N1    N3    A    
C7    N5    A    
C39   H8    S    
C17   C21   A    
C5    N5    A    
C35   C39   A    
C3    C9    A    
C17   H12   S    
C38   H7    S    
C4    H13   S    
C16   C20   A    
Cu1   O3    S    
C32   C37   A    
C9    C11   S    
C22   H18   S    
Cu2   O8    S    
C5    C44   A    
C42   C43   T    
C4    C10   A    
C2    C10   A    
C8    F4    S    
Cu2   O2    S    
C25   C30   S    
C9    C44   A    
C18   C22   A    
C17   C28   A    
Cu1   O5    S    
C10   C13   S    
C15   O7    A    
C6    N6    A    
C33   C38   A    
Cu1   N5    S    
C33   C41   A    
C35   C40   A    
C36   H5    S    
Cu2   O4    S    
C11   C13   T    
C18   H14   S    
C15   C28   S    
C23   C39   A    
C19   C24   A    
C26   C29   S    
C23   C36   A    
C22   C26   A    
C1    O4    A    
C31   C36   A    
Cu1   O1    S    
C14   O5    A    
