data_mof_unit_5989.cif
_audit_creation_date              2012-12-11T14:06:53-0500
_audit_creation_method            fapswitch 2.2
_symmetry_space_group_name_H-M    P1
_symmetry_Int_Tables_number       1
_space_group_crystal_system       triclinic
_cell_length_a                    6.92509
_cell_length_b                    17.283252
_cell_length_c                    24.098445
_cell_angle_alpha                 104.423204
_cell_angle_beta                  90.471296
_cell_angle_gamma                 89.992317
_cell_volume                      2793.29034275

loop_
_atom_site_label
_atom_site_type_symbol
_atom_type_description
_atom_site_fract_x
_atom_site_fract_y
_atom_site_fract_z
_atom_type_partial_charge
O1    O     O_R   0.494290 0.391990 0.999150 -0.538320
O2    O     O_R   0.827170 0.534410 0.082350 -0.525771
O3    O     O_R   0.994360 0.608010 0.000850 -0.530477
C1    C     C_R   0.659370 0.551929 0.105953 0.746198
O4    O     O_R   0.824210 0.388010 0.004470 -0.548738
O5    O     O_R   0.991370 0.460560 0.922410 -0.543604
C2    C     C_R   0.654537 0.354878 0.001478 0.763096
O6    O     O_R   0.497270 0.539440 0.077590 -0.533829
O7    O     O_3   0.659770 0.523970 0.973170 -0.375749
V1    V     V_3+5 0.935840 0.495550 0.004980 1.450616
O8    O     O_R   0.320910 0.465590 0.917650 -0.546376
C3    C     C_R   0.151300 0.449650 0.893945 0.696661
O9    O     O_R   0.323870 0.611990 0.995530 -0.544406
C4    C     C_R   0.154413 0.645117 0.998500 0.809576
V2    V     V_3+5 0.435470 0.504450 0.995020 1.437957
O10   O     O_3   0.161670 0.476030 0.026830 -0.365528
C5    C     C_2   0.142784 0.730298 0.998140 -0.319288
H1    H     H_    0.277159 0.761165 0.994726 0.148002
C6    C     C_2   0.972794 0.769779 0.002133 -0.318359
H2    H     H_    0.838436 0.738918 0.005584 0.151897
C7    C     C_R   0.195496 0.253600 0.623352 0.586374
N1    N     N_R   0.095566 0.321602 0.649057 -0.558979
C8    C     C_R   0.978561 0.358642 0.617257 0.585650
C9    C     C_R   0.957563 0.327301 0.557684 -0.026707
C10   C     C_R   0.059944 0.257858 0.530806 -0.013586
C11   C     C_R   0.180302 0.220602 0.563752 -0.033513
C12   C     C_R   0.837247 0.363869 0.524414 -0.141185
C13   C     C_R   0.819702 0.332163 0.465282 -0.140467
C14   C     C_R   0.922258 0.263155 0.437898 -0.017436
C15   C     C_R   0.042353 0.225763 0.470813 -0.007434
C16   C     C_R   0.145546 0.156592 0.443841 -0.014061
C17   C     C_R   0.264196 0.119542 0.477237 -0.062106
C18   C     C_R   0.281500 0.151157 0.536418 -0.120722
C19   C     C_R   0.909355 0.231042 0.378213 0.586157
N2    N     N_R   0.011664 0.163842 0.352276 -0.559737
C20   C     C_R   0.127744 0.126368 0.384026 0.615935
O11   O     O_2   0.307496 0.217344 0.655360 -0.515158
O12   O     O_2   0.883963 0.426110 0.643056 -0.510171
H3    H     H_    0.756376 0.417227 0.543918 0.174322
H4    H     H_    0.726030 0.362149 0.441098 0.176345
O13   O     O_2   0.797695 0.267586 0.346298 -0.521300
O14   O     O_2   0.225222 0.059865 0.357910 -0.490106
H5    H     H_    0.344296 0.066024 0.457802 0.214978
H6    H     H_    0.374684 0.121003 0.560622 0.184033
C21   C     C_R   0.822499 0.108352 0.263497 -0.056085
H7    H     H_    0.693169 0.110122 0.288745 0.153822
C22   C     C_R   0.810543 0.081237 0.203716 -0.192539
H8    H     H_    0.671248 0.062675 0.184172 0.137171
C23   C     C_R   0.976420 0.077988 0.169750 -0.058425
C24   C     C_R   0.154464 0.102340 0.197272 -0.189079
H9    H     H_    0.285165 0.100829 0.172663 0.130734
C25   C     C_R   0.165889 0.129901 0.256987 -0.082195
H10   H     H_    0.303922 0.149397 0.277077 0.135457
C26   C     C_R   0.000084 0.133337 0.290668 0.355833
C27   C     C_R   0.945957 0.360435 0.744824 -0.079906
H11   H     H_    0.806941 0.340606 0.725577 0.133646
C28   C     C_R   0.959244 0.392050 0.804105 -0.196854
H12   H     H_    0.828982 0.395862 0.829192 0.130384
C29   C     C_R   0.138217 0.417541 0.830622 -0.054540
C30   C     C_R   0.303483 0.410736 0.796052 -0.194373
H13   H     H_    0.443530 0.429712 0.814871 0.132470
C31   C     C_R   0.289657 0.379480 0.736583 -0.072746
H14   H     H_    0.418296 0.375387 0.710769 0.138779
C32   C     C_R   0.110739 0.353928 0.710445 0.369779
C33   C     C_R   0.548226 0.884355 0.615081 0.665681
N3    N     N_R   0.495195 0.833836 0.648093 -0.543529
C34   C     C_R   0.450943 0.755490 0.623367 0.728762
C35   C     C_R   0.472023 0.723981 0.563894 -0.021880
C36   C     C_R   0.529896 0.774798 0.529386 -0.008656
C37   C     C_R   0.565305 0.855817 0.555046 -0.099175
C38   C     C_R   0.439076 0.642772 0.538414 -0.110266
C39   C     C_R   0.465382 0.612124 0.479754 -0.140590
C40   C     C_R   0.521544 0.662154 0.444758 0.003645
C41   C     C_R   0.552292 0.744349 0.469328 -0.062889
C42   C     C_R   0.606123 0.795532 0.434182 -0.165677
C43   C     C_R   0.645253 0.877870 0.461165 0.472374
C44   C     C_R   0.621802 0.906225 0.520698 -0.205553
C45   C     C_R   0.548737 0.631234 0.385689 0.572528
N4    N     N_R   0.592947 0.680755 0.351157 -0.564744
C46   C     C_R   0.616095 0.761556 0.373865 0.673484
O15   O     O_2   0.586776 0.961701 0.640283 -0.508993
O16   O     O_2   0.387451 0.708105 0.656235 -0.472650
H15   H     H_    0.395271 0.602295 0.563835 0.177266
H16   H     H_    0.440411 0.548917 0.461863 0.167087
O17   O     O_2   0.532278 0.551804 0.363014 -0.520270
O18   O     O_2   0.642281 0.808528 0.337671 -0.446283
H17   H     H_    0.650561 0.968498 0.540744 0.209466
C47   C     C_R   0.780016 0.662084 0.261126 -0.098407
H18   H     H_    0.895266 0.698056 0.285187 0.166471
C48   C     C_R   0.798065 0.632699 0.201558 0.109833
C49   C     C_R   0.649891 0.584489 0.169391 -0.101286
C50   C     C_R   0.484229 0.569364 0.198569 -0.200489
H19   H     H_    0.367579 0.533141 0.175485 0.158053
C51   C     C_R   0.464963 0.601182 0.257627 -0.052421
H20   H     H_    0.333353 0.590003 0.278332 0.148939
C52   C     C_R   0.613134 0.647478 0.289774 0.316540
C53   C     C_R   0.639124 0.846439 0.745167 0.410384
C54   C     C_R   0.626856 0.875415 0.805004 -0.280256
H21   H     H_    0.741618 0.862114 0.831964 0.174569
C55   C     C_R   0.466656 0.920164 0.830498 -0.122895
C56   C     C_R   0.318404 0.936372 0.794904 -0.140480
H22   H     H_    0.193761 0.971060 0.813173 0.145632
C57   C     C_R   0.330627 0.908869 0.735221 -0.035222
H23   H     H_    0.215532 0.922608 0.708574 0.182026
C58   C     C_R   0.488864 0.863147 0.709776 0.251201
C59   C     C_2   0.642886 0.269702 0.001887 -0.338254
H24   H     H_    0.777465 0.238798 0.005252 0.149492
C60   C     C_2   0.472621 0.230255 0.997963 -0.339909
H25   H     H_    0.338041 0.261158 0.994599 0.149077
O19   O     O_R   0.618210 0.960470 0.922400 -0.540519
O20   O     O_R   0.291310 0.111960 0.995450 -0.548882
O21   O     O_R   0.124210 0.039530 0.077580 -0.540986
C61   C     C_R   0.460978 0.145092 0.998414 0.767017
O22   O     O_R   0.288310 0.965490 0.917650 -0.539119
O23   O     O_R   0.121180 0.892010 0.999220 -0.534013
C62   C     C_R   0.456695 0.950142 0.893931 0.731234
O24   O     O_R   0.621230 0.107990 0.000760 -0.536488
O25   O     O_3   0.455770 0.976060 0.026840 -0.371056
V3    V     V_3+5 0.179680 0.004440 0.995020 1.431010
O26   O     O_R   0.791670 0.888040 0.004570 -0.545699
C63   C     C_R   0.961136 0.854915 0.001622 0.783437
O27   O     O_R   0.794680 0.034510 0.082370 -0.544004
C64   C     C_R   0.964301 0.049385 0.106150 0.709013
V4    V     V_3+5 0.680070 0.995560 0.005010 1.427988
O28   O     O_3   0.953840 0.023940 0.973160 -0.371753
S1    S     S_3+6 0.736750 0.947738 0.424620 0.037701
O29   O     O_2   0.584226 0.964879 0.384576 -0.286089
O30   O     O_2   0.792955 0.024875 0.466209 -0.354262
O31   O     O_3   0.933191 0.909274 0.387084 -0.464540
H26   H     H_    0.951934 0.942094 0.359215 0.399624
I1    I     I_    0.044255 0.672478 0.164290 -0.383023
S2    S     S_3+6 0.843190 0.789347 0.715810 0.028924
O32   O     O_2   0.917962 0.817875 0.665994 -0.319939
O33   O     O_2   0.000857 0.796718 0.760060 -0.338917
O34   O     O_3   0.780684 0.692643 0.692579 -0.447502
H27   H     H_    0.729633 0.677821 0.726811 0.353088

loop_
_geom_bond_atom_site_label_1
_geom_bond_atom_site_label_2
_ccdc_geom_bond_type
C27   H11   S    
C47   C52   A    
S1    O29   D    
O23   C63   A    
C43   S1    S    
C40   C41   A    
C20   O14   S    
N2    C20   A    
C55   C62   S    
C9    C12   A    
C1    O6    A    
C53   C54   A    
C48   C49   A    
O34   H27   S    
C22   C23   A    
C21   H7    S    
O26   C63   A    
C31   H14   S    
C30   C31   A    
C13   C14   A    
O24   V4    S    
C35   C38   A    
O5    C3    A    
C15   C16   A    
C28   C29   A    
C59   H24   S    
C13   H4    S    
C33   C37   A    
C23   C64   S    
C60   H25   S    
O20   V3    S    
C19   N2    A    
O25   V3    S    
C50   H19   S    
C31   C32   A    
O19   V4    S    
C3    C29   S    
O8    V2    S    
C22   H8    S    
C12   H3    S    
S2    O32   D    
C24   C25   A    
C40   C45   A    
O1    V2    S    
C42   C46   A    
O22   V3    S    
C1    C49   S    
C53   C58   A    
N3    C34   A    
C29   C30   A    
C56   C57   A    
O9    C4    A    
N2    C26   S    
C4    C5    S    
C51   H20   S    
C19   O13   S    
C7    C11   A    
C25   C26   A    
C24   H9    S    
C38   H15   S    
C21   C22   A    
C41   C42   A    
C34   C35   A    
C56   H22   S    
C43   C44   A    
O21   C64   A    
C57   C58   A    
C49   C50   A    
O4    C2    A    
C45   N4    A    
C35   C36   A    
S1    O31   S    
C10   C11   A    
C14   C19   A    
O23   V3    S    
C30   H13   S    
C60   C61   S    
O2    C1    A    
C42   C43   A    
C14   C15   A    
C11   C18   A    
C33   O15   S    
C16   C17   A    
C8    C9    A    
C27   C32   A    
C50   C51   A    
C5    H1    S    
C2    C59   S    
C7    O11   S    
C36   C41   A    
O20   C61   A    
O25   V4    S    
C9    C10   A    
C51   C52   A    
C39   H16   S    
O3    C4    A    
C61   O24   A    
C48   I1    S    
V3    O28   S    
C45   O17   S    
C47   C48   A    
C21   C26   A    
C54   H21   S    
O6    V2    S    
C54   C55   A    
O9    V2    S    
N3    C58   S    
O27   V4    S    
O2    V1    S    
O19   C62   A    
C12   C13   A    
C25   H10   S    
O31   H26   S    
O7    V1    S    
C10   C15   A    
C6    C63   S    
S1    O30   D    
O1    C2    A    
C18   H6    S    
N1    C8    A    
C53   S2    S    
C39   C40   A    
O5    V1    S    
O21   V3    S    
O22   C62   A    
O8    C3    A    
C8    O12   S    
C46   O18   S    
C17   C18   A    
C6    H2    S    
C27   C28   A    
O7    V2    S    
N4    C52   S    
O3    V1    S    
V1    O10   S    
C28   H12   S    
C59   C60   D    
S2    O34   S    
C55   C56   A    
C5    C6    D    
C17   H5    S    
C33   N3    A    
C36   C37   A    
N1    C32   S    
N4    C46   A    
O26   V4    S    
O4    V1    S    
C38   C39   A    
C47   H18   S    
C44   H17   S    
C34   O16   S    
S2    O33   D    
C23   C24   A    
C57   H23   S    
C16   C20   A    
O27   C64   A    
C7    N1    A    
V2    O10   S    
V4    O28   S    
C37   C44   A    
