data_mof_unit_34883.cif
_audit_creation_date              2012-12-10T17:13:34-0500
_audit_creation_method            fapswitch 2.2
_symmetry_space_group_name_H-M    P1
_symmetry_Int_Tables_number       1
_space_group_crystal_system       triclinic
_cell_length_a                    10.763931
_cell_length_b                    13.002494
_cell_length_c                    11.709095
_cell_angle_alpha                 99.203222
_cell_angle_beta                  93.74346
_cell_angle_gamma                 90.700204
_cell_volume                      1613.80651632

loop_
_atom_site_label
_atom_site_type_symbol
_atom_type_description
_atom_site_fract_x
_atom_site_fract_y
_atom_site_fract_z
_atom_type_partial_charge
C1    C     C_R   0.501680 0.299270 0.479131 0.814639
C2    C     C_3   0.878380 0.508427 0.498125 -0.014625
C3    C     C_3   0.935452 0.612284 0.570926 0.283090
C4    C     C_3   0.920503 0.498669 0.372565 -0.353149
C5    C     C_R   0.509709 0.813085 0.532121 -0.015639
C6    C     C_R   0.502976 0.185709 0.467121 -0.149515
C7    C     C_R   0.443879 0.017901 0.353460 -0.200094
C8    C     C_R   0.450994 0.125684 0.364413 -0.268984
C9    C     C_R   0.553240 0.136479 0.558012 0.353085
C10   C     C_R   0.537270 0.028648 0.550579 0.069106
C11   C     C_R   0.484858 0.969098 0.446519 0.109453
C12   C     C_R   0.259995 0.502214 0.500378 0.822315
C13   C     C_R   0.473412 0.861479 0.437334 -0.216990
C14   C     C_R   0.557563 0.872354 0.636578 -0.177754
C15   C     C_R   0.571901 0.979430 0.645650 -0.218822
C16   C     C_R   0.353236 0.436514 0.029795 -0.330798
C17   C     C_R   0.371589 0.437006 0.149361 0.071704
C18   C     C_R   0.565037 0.526657 0.154054 0.052481
C19   C     C_R   0.551709 0.525723 0.032473 0.016666
C20   C     C_R   0.446339 0.476455 0.968640 -0.025219
C21   C     C_R   0.437112 0.468669 0.845294 0.580838
C22   C     C_R   0.622770 0.571337 0.853039 -0.019712
C23   C     C_R   0.500841 0.700471 0.520843 0.894978
C24   C     C_R   0.639823 0.573811 0.973687 -0.338707
C25   C     C_R   0.740207 0.503342 0.499611 0.853462
C26   C     C_3   0.072607 0.408294 0.543234 -0.498067
C27   C     C_3   0.930760 0.413964 0.550127 -0.503687
C28   C     C_3   0.081076 0.603944 0.584450 0.266199
C29   C     C_3   0.062927 0.507632 0.375548 -0.360362
C30   C     C_3   0.122212 0.506360 0.500588 0.052643
Cu1   Cu    Cu3+1 0.509350 0.507730 0.615930 0.984037
Cu2   Cu    Cu3+1 0.490650 0.492270 0.384070 0.958394
H1    H     H_    0.116208 0.402577 0.630586 0.220284
H2    H     H_    0.878660 0.559365 0.326152 0.220756
H3    H     H_    0.434592 0.815616 0.357079 0.156008
H4    H     H_    0.586252 0.835791 0.710617 0.167963
H5    H     H_    0.403242 0.972982 0.273478 0.150820
H6    H     H_    0.609743 0.023272 0.727245 0.179528
H7    H     H_    0.413763 0.162212 0.292991 0.175354
H8    H     H_    0.096336 0.336958 0.483235 0.187626
H9    H     H_    0.690970 0.609666 0.809416 0.154580
H10   H     H_    0.265608 0.405780 0.986445 0.162366
H11   H     H_    0.721088 0.613790 0.020754 0.159666
H12   H     H_    0.300002 0.403979 0.194007 0.120662
H13   H     H_    0.645204 0.565393 0.204170 0.137706
H14   H     H_    0.887637 0.340642 0.501258 0.184838
H15   H     H_    0.908093 0.420446 0.642216 0.188890
H16   H     H_    0.106270 0.588236 0.674334 0.030454
H17   H     H_    0.900965 0.620038 0.659396 0.036656
H18   H     H_    0.090880 0.580739 0.345039 0.228358
H19   H     H_    0.096521 0.441324 0.313768 0.157349
H20   H     H_    0.888731 0.421909 0.321920 0.167215
N1    N     N_R   0.523430 0.519360 0.790130 -0.213922
N2    N     N_R   0.476570 0.480640 0.209880 -0.183643
O1    O     O_R   0.506640 0.354460 0.582000 -0.527277
O2    O     O_R   0.490840 0.341410 0.386200 -0.601511
O3    O     O_R   0.325590 0.506510 0.597900 -0.546456
O4    O     O_R   0.309790 0.493450 0.402100 -0.612466
O5    O     O_R   0.509160 0.658590 0.613800 -0.604821
O6    O     O_R   0.493360 0.645540 0.418000 -0.564817
O7    O     O_R   0.690210 0.506550 0.597900 -0.608456
O8    O     O_R   0.674410 0.493490 0.402100 -0.582966
O9    O     O_3   0.144091 0.694978 0.562977 -0.544520
C31   C     C_3   0.178190 0.762755 0.667687 0.113154
H21   H     H_    0.264847 0.734935 0.708716 0.133431
H22   H     H_    0.103659 0.767762 0.730043 0.154930
C32   C     C_3   0.202244 0.872012 0.641783 -0.708198
H23   H     H_    0.114264 0.905160 0.610626 0.277437
H24   H     H_    0.240877 0.923330 0.721514 0.177492
H25   H     H_    0.269232 0.869874 0.573767 0.243150
S1    S     S_3+6 0.884468 0.728552 0.513882 -0.018850
O10   O     O_2   0.969171 0.755786 0.425477 -0.262225
O11   O     O_2   0.755311 0.712892 0.457155 -0.343610
O12   O     O_3   0.884121 0.828379 0.624546 -0.569036
H26   H     H_    0.850888 0.887738 0.589456 0.365841
O13   O     O_3   0.613073 0.194059 0.656122 -0.605383
C33   C     C_3   0.742418 0.193066 0.643746 0.072683
H27   H     H_    0.764672 0.228074 0.566913 0.128555
H28   H     H_    0.778253 0.112349 0.634106 0.143377
C34   C     C_3   0.808256 0.256414 0.751604 -0.801532
H29   H     H_    0.790387 0.220211 0.828854 0.243480
H30   H     H_    0.910178 0.258791 0.742024 0.197673
H31   H     H_    0.773309 0.337212 0.764656 0.254949
O14   O     O_3   0.340477 0.410846 0.779913 -0.585592
C35   C     C_3   0.359900 0.303055 0.779451 0.072939
H32   H     H_    0.339480 0.278865 0.862859 0.121875
H33   H     H_    0.457385 0.282607 0.763964 0.215989
C36   C     C_3   0.273794 0.238666 0.685790 -0.787763
H34   H     H_    0.296930 0.154965 0.678783 0.209363
H35   H     H_    0.175547 0.247925 0.708445 0.224350
H36   H     H_    0.284125 0.263715 0.600676 0.244328

loop_
_geom_bond_atom_site_label_1
_geom_bond_atom_site_label_2
_ccdc_geom_bond_type
Cu1   O7    S    
C2    C4    S    
C19   C20   A    
Cu2   O4    S    
C6    C9    A    
C3    H17   S    
C7    C8    A    
C33   H27   S    
C23   O5    A    
C26   C27   S    
C4    H20   S    
C3    C28   S    
C1    O2    A    
C13   H3    S    
C10   C15   A    
C14   H4    S    
C33   C34   S    
C22   H9    S    
C18   C19   A    
Cu1   O5    S    
C16   C17   A    
C21   O14   S    
C2    C27   S    
C9    O13   S    
C9    C10   A    
C5    C13   A    
C4    C29   S    
C12   O4    A    
C35   H33   S    
C34   H31   S    
Cu2   N2    S    
C7    C11   A    
C22   N1    A    
C29   H18   S    
C33   H28   S    
C23   O6    A    
C4    H2    S    
O12   H26   S    
C32   H23   S    
C31   C32   S    
O13   C33   S    
C34   H30   S    
S1    O11   D    
C6    C8    A    
C35   H32   S    
Cu1   N1    S    
C1    C6    S    
C32   H24   S    
C31   H22   S    
C3    S1    S    
C15   H6    S    
C29   C30   S    
C26   H1    S    
Cu1   Cu2   S    
C5    C23   S    
C36   H36   S    
C16   C20   A    
C20   C21   A    
C7    H5    S    
C25   O7    A    
O14   C35   S    
C5    C14   A    
C12   O3    A    
C27   H14   S    
C8    H7    S    
C36   H35   S    
C26   C30   S    
C22   C24   A    
Cu2   O6    S    
C18   H13   S    
C16   H10   S    
C29   H19   S    
C35   C36   S    
C27   H15   S    
C28   H16   S    
C12   C30   S    
C34   H29   S    
S1    O12   S    
C32   H25   S    
C31   H21   S    
Cu1   O3    S    
C28   C30   S    
C2    C3    S    
C1    O1    A    
C17   H12   S    
Cu2   O8    S    
S1    O10   D    
C21   N1    A    
C11   C13   A    
C26   H8    S    
C19   C24   A    
C2    C25   S    
C25   O8    A    
C10   C11   A    
C18   N2    A    
O9    C31   S    
C28   O9    S    
C36   H34   S    
C24   H11   S    
C14   C15   A    
Cu1   O1    S    
C17   N2    A    
Cu2   O2    S    
