data_mof_unit_39034.cif
_audit_creation_date              2013-03-05T16:03:51-0500
_audit_creation_method            fapswitch 2.2
_symmetry_space_group_name_H-M    P1
_symmetry_Int_Tables_number       1
_space_group_crystal_system       triclinic
_cell_length_a                    6.94712
_cell_length_b                    17.693948
_cell_length_c                    19.558559
_cell_angle_alpha                 109.229207
_cell_angle_beta                  90.215126
_cell_angle_gamma                 90.742397
_cell_volume                      2269.77192801

loop_
_atom_site_label
_atom_site_type_symbol
_atom_site_description
_atom_site_fract_x
_atom_site_fract_y
_atom_site_fract_z
_atom_type_partial_charge
O1    O     O_R   0.505700 0.440210 0.561730 -0.553849
O2    O     O_R   0.169350 0.406300 0.412660 -0.594364
O3    O     O_R   0.005650 0.559790 0.438270 -0.608707
C1    C     C_R   0.337993 0.383058 0.385052 0.927479
O4    O     O_R   0.175560 0.430650 0.559600 -0.557562
O5    O     O_R   0.011900 0.584320 0.586250 -0.584354
C2    C     C_R   0.345747 0.413487 0.579525 0.962132
O6    O     O_R   0.499450 0.415680 0.413750 -0.586369
O7    O     O_3   0.341370 0.550390 0.508570 -0.293219
V1    V     V_3+5 0.063940 0.490650 0.498410 1.217048
O8    O     O_R   0.682570 0.593700 0.587340 -0.604183
C3    C     C_R   0.852293 0.616404 0.615080 0.969845
O9    O     O_R   0.676370 0.569350 0.440400 -0.607699
C4    C     C_R   0.845471 0.584292 0.418769 0.899513
V2    V     V_3+5 0.564750 0.509350 0.501590 1.194976
O10   O     O_3   0.837190 0.449610 0.491430 -0.216465
C5    C     C_R   0.040119 0.682748 0.286214 -0.151542
H1    H     H_    0.173943 0.682878 0.258110 0.102695
C6    C     C_R   0.029046 0.637760 0.333205 -0.148396
H2    H     H_    0.155206 0.605677 0.340293 0.124383
C7    C     C_R   0.857065 0.633110 0.369518 -0.120712
C8    C     C_R   0.696578 0.675004 0.357668 -0.165506
H3    H     H_    0.561887 0.673115 0.384808 0.128184
C9    C     C_R   0.708324 0.720894 0.311387 -0.153906
H4    H     H_    0.582685 0.753742 0.305362 0.099893
C10   C     C_R   0.880216 0.725417 0.274662 0.110772
C11   C     C_R   0.730487 0.783435 0.184756 -0.147828
H5    H     H_    0.594582 0.754446 0.188334 0.101736
C12   C     C_R   0.741710 0.829296 0.138492 -0.161943
H6    H     H_    0.613754 0.834997 0.108855 0.127791
C13   C     C_R   0.916076 0.866256 0.129734 -0.115274
C14   C     C_R   0.078703 0.856548 0.168901 -0.155446
H7    H     H_    0.214896 0.884804 0.164110 0.119337
C15   C     C_R   0.066882 0.811681 0.216029 -0.155894
H8    H     H_    0.194334 0.807698 0.246566 0.097666
C16   C     C_R   0.892659 0.774068 0.224622 0.114775
H9    H     H_    0.561624 0.661040 0.925266 0.123220
C17   C     C_R   0.089660 0.890307 0.751964 -0.169153
C18   C     C_R   0.168715 0.896560 0.688690 -0.125898
C19   C     C_R   0.147376 0.833896 0.623866 -0.104813
C20   C     C_R   0.047453 0.764469 0.621947 -0.158497
C21   C     C_R   0.968359 0.755758 0.685674 0.116759
C22   C     C_R   0.989024 0.820252 0.752040 0.126215
C23   C     C_R   0.865484 0.685226 0.683634 -0.326080
C24   C     C_R   0.780504 0.679799 0.747823 0.100755
C25   C     C_R   0.802388 0.744104 0.814296 0.119285
C26   C     C_R   0.905643 0.814567 0.816363 -0.320120
C27   C     C_R   0.676614 0.610336 0.747695 -0.120390
C28   C     C_R   0.597530 0.604205 0.811007 -0.086273
C29   C     C_R   0.621402 0.666423 0.876006 -0.119027
C30   C     C_R   0.723302 0.735443 0.878036 -0.155192
H10   H     H_    0.107415 0.941284 0.800514 0.118905
H11   H     H_    0.245325 0.950669 0.689877 0.115788
H12   H     H_    0.207091 0.839338 0.574619 0.114314
H13   H     H_    0.031012 0.718472 0.569692 0.109270
H14   H     H_    0.655487 0.559723 0.699005 0.155984
H15   H     H_    0.518761 0.550515 0.809668 0.133018
H16   H     H_    0.740950 0.781240 0.930353 0.111155
H17   H     H_    0.537278 0.485085 0.191723 0.128201
C31   C     C_R   0.250825 0.218314 0.374717 -0.146504
C32   C     C_R   0.217366 0.139754 0.372610 -0.095950
C33   C     C_R   0.250376 0.076404 0.309450 -0.123736
C34   C     C_R   0.317316 0.091068 0.247868 -0.162660
C35   C     C_R   0.351214 0.170184 0.247968 0.126973
C36   C     C_R   0.316925 0.235230 0.312898 0.110250
C37   C     C_R   0.420378 0.184745 0.185027 -0.304607
C38   C     C_R   0.453635 0.264860 0.187366 0.092694
C39   C     C_R   0.419715 0.329845 0.252377 0.127652
C40   C     C_R   0.351865 0.315203 0.315347 -0.305014
C41   C     C_R   0.516371 0.282088 0.125294 -0.127837
C42   C     C_R   0.546188 0.360878 0.127293 -0.056085
C43   C     C_R   0.514424 0.424044 0.190629 -0.145489
C44   C     C_R   0.451367 0.409091 0.252477 -0.158691
H18   H     H_    0.224229 0.265428 0.425310 0.112362
H19   H     H_    0.166258 0.127976 0.420399 0.120293
H20   H     H_    0.225029 0.015463 0.308237 0.119191
H21   H     H_    0.343727 0.039613 0.200511 0.106422
H22   H     H_    0.542067 0.235077 0.074553 0.130273
H23   H     H_    0.593068 0.373258 0.079367 0.171460
H24   H     H_    0.425300 0.460476 0.299947 0.108716
C45   C     C_R   0.546499 0.306179 0.705429 -0.279067
H25   H     H_    0.686404 0.295897 0.724890 0.138588
C46   C     C_R   0.539209 0.349809 0.657307 0.388112
C47   C     C_R   0.361611 0.361854 0.626856 -0.331956
C48   C     C_R   0.198411 0.323908 0.642788 -0.112295
H26   H     H_    0.066320 0.324983 0.615600 0.228242
C49   C     C_R   0.204375 0.282254 0.692324 -0.137773
H27   H     H_    0.070798 0.257663 0.704631 0.120079
C50   C     C_R   0.379078 0.273029 0.725026 0.093957
C51   C     C_R   0.254041 0.165947 0.774064 -0.136624
H28   H     H_    0.138575 0.150677 0.734463 0.108556
C52   C     C_R   0.267215 0.122106 0.821584 -0.097679
H29   H     H_    0.158583 0.076666 0.818049 0.148815
C53   C     C_R   0.420350 0.134733 0.871410 -0.305298
C54   C     C_R   0.559852 0.194849 0.873841 0.359945
C55   C     C_R   0.539033 0.241512 0.828596 -0.244058
H30   H     H_    0.643187 0.289134 0.834024 0.157755
C56   C     C_R   0.389557 0.226668 0.776796 0.089137
O11   O     O_R   0.273230 0.084330 0.086440 -0.586444
O12   O     O_R   0.596660 0.069390 0.940470 -0.557053
O13   O     O_R   0.760270 0.915710 0.913690 -0.592145
C57   C     C_R   0.428453 0.085340 0.919942 0.952165
O14   O     O_R   0.603330 0.093680 0.087390 -0.588461
O15   O     O_R   0.766990 0.940160 0.061660 -0.606076
C58   C     C_R   0.434684 0.116824 0.115241 0.931237
O16   O     O_R   0.266510 0.059870 0.938470 -0.576523
O17   O     O_3   0.431050 0.949630 0.991510 -0.289951
V3    V     V_3+5 0.708490 0.009340 0.001580 1.208421
O18   O     O_R   0.096270 0.930570 0.059390 -0.604373
C59   C     C_R   0.927238 0.915476 0.080905 0.903748
O19   O     O_R   0.089600 0.906290 0.912460 -0.597716
C60   C     C_R   0.919618 0.883348 0.884969 0.944866
V4    V     V_3+5 0.207670 0.990600 0.998190 1.181869
O20   O     O_3   0.935250 0.050360 0.008480 -0.231325
N1    N     N_R   0.716365 0.375982 0.635753 0.214139
O21   O     O_R   0.772748 0.343981 0.569159 -0.425701
O22   O     O_R   0.830505 0.424305 0.683877 -0.462993
N2    N     N_R   0.723524 0.210056 0.921541 0.224407
O23   O     O_R   0.861570 0.158370 0.907809 -0.393692
O24   O     O_R   0.760912 0.282928 0.963147 -0.438982

loop_
_geom_bond_atom_site_label_1
_geom_bond_atom_site_label_2
_geom_bond_distance
_ccdc_geom_bond_type
C49   H27   1.081015 S    
C41   H22   1.081701 S    
C20   C21   1.417291 A    
C54   C55   1.403277 A    
C1    O6    1.292836 A    
C42   H23   1.080941 S    
C45   H25   1.081688 S    
C24   C25   1.423959 A    
C32   H19   1.082599 S    
O13   C60   1.295428 A    
C12   H6    1.083207 S    
C46   C47   1.416796 A    
C5    C10   1.409715 A    
C4    C7    1.492442 S    
C6    C7    1.407474 A    
C9    C10   1.410744 A    
O5    C3    1.296087 A    
C17   C18   1.392525 A    
C11   C12   1.402087 A    
C26   C60   1.487050 S    
C28   H15   1.082881 S    
C15   H8    1.082145 S    
V3    O20   1.711994 S    
N2    O23   1.300427 A    
C20   H13   1.081099 S    
O8    V2    2.004878 S    
C44   H24   1.082108 S    
O17   V4    1.708537 S    
O19   C60   1.299009 A    
C39   C40   1.420402 A    
N1    O22   1.300959 A    
C55   C56   1.408369 A    
O17   V3    2.162688 S    
C57   O16   1.302929 A    
C41   C42   1.394461 A    
O1    V2    1.996732 S    
O7    V1    2.162735 S    
O18   V4    1.995751 S    
H17   C43   1.082832 S    
C45   C50   1.406241 A    
O13   V3    1.993289 S    
C2    C47   1.504220 S    
O9    C4    1.303191 A    
C33   H20   1.082796 S    
C32   C33   1.389878 A    
C21   C23   1.419049 A    
O12   C57   1.298473 A    
C1    C40   1.495079 S    
C45   C46   1.401296 A    
C29   C30   1.392684 A    
C48   C49   1.398011 A    
C54   N2    1.433319 S    
O11   C58   1.292739 A    
O12   V3    2.003000 S    
V2    O10   2.157623 S    
O16   V4    1.991793 S    
C38   C39   1.428514 A    
C46   N1    1.422880 S    
C47   C48   1.397886 A    
O19   V4    2.005003 S    
C18   C19   1.388237 A    
O4    C2    1.313672 A    
C39   C44   1.415841 A    
C48   H26   1.062388 S    
C25   C30   1.417141 A    
C31   C32   1.393458 A    
C35   C37   1.422275 A    
O2    C1    1.305475 A    
O5    V1    1.993452 S    
C33   C34   1.393274 A    
C51   C52   1.396442 A    
C13   C14   1.406404 A    
C55   H30   1.081449 S    
C52   C53   1.405003 A    
C5    H1    1.082173 S    
O14   C58   1.306662 A    
C30   H16   1.081216 S    
C9    H4    1.082131 S    
O14   V3    1.991272 S    
O3    C4    1.299979 A    
C10   C16   1.503328 S    
C19   C20   1.392721 A    
C31   C36   1.414689 A    
O6    V2    2.000855 S    
C19   H12   1.082667 S    
C49   C50   1.406007 A    
C8    C9    1.402968 A    
C21   C22   1.423507 A    
C37   C58   1.496927 S    
O2    V1    1.991317 S    
O15   V3    2.000268 S    
C23   C24   1.420361 A    
V4    O20   2.157500 S    
C34   H21   1.081945 S    
C24   C27   1.416509 A    
C27   H14   1.078997 S    
C25   C26   1.419165 A    
C27   C28   1.392492 A    
O1    C2    1.295065 A    
C43   C44   1.391750 A    
O11   V4    2.006514 S    
O8    C3    1.298212 A    
C11   C16   1.410004 A    
C50   C56   1.500499 S    
C38   C41   1.414574 A    
C35   C36   1.428542 A    
C6    H2    1.083258 S    
O9    V2    1.995800 S    
O7    V2    1.708703 S    
C17   C22   1.415639 A    
C12   C13   1.406833 A    
O3    V1    2.000318 S    
V1    O10   1.711967 S    
O18   C59   1.302670 A    
C14   H7    1.083143 S    
O15   C59   1.299818 A    
H9    C29   1.082685 S    
C51   H28   1.080849 S    
C18   H11   1.082804 S    
C36   C40   1.417709 A    
C31   H18   1.081790 S    
C52   H29   1.080756 S    
C5    C6    1.401818 A    
C13   C59   1.491044 S    
C37   C38   1.419025 A    
C15   C16   1.410833 A    
C53   C54   1.418644 A    
N2    O24   1.300294 A    
C34   C35   1.415904 A    
O4    V1    2.002986 S    
C17   H10   1.078200 S    
C53   C57   1.488376 S    
C3    C23   1.486520 S    
C28   C29   1.388326 A    
C11   H5    1.082133 S    
C8    H3    1.083078 S    
C42   C43   1.388832 A    
C7    C8    1.406731 A    
C22   C26   1.419760 A    
C51   C56   1.406808 A    
N1    O21   1.301640 A    
C14   C15   1.402674 A    
