data_mof_unit_27316.cif
_audit_creation_date              2012-10-26T20:39:24-0400
_audit_creation_method            fapswitch 2.2
_symmetry_space_group_name_H-M    P1
_symmetry_Int_Tables_number       1
_space_group_crystal_system       triclinic
_cell_length_a                    14.33396
_cell_length_b                    12.998811
_cell_length_c                    11.796178
_cell_angle_alpha                 100.848908
_cell_angle_beta                  95.484041
_cell_angle_gamma                 91.440583
_cell_volume                      2146.66047965

loop_
_atom_site_label
_atom_site_type_symbol
_atom_type_description
_atom_site_fract_x
_atom_site_fract_y
_atom_site_fract_z
_atom_type_partial_charge
C1    C     C_R   0.502135 0.299191 0.477811 0.588924
C2    C     C_R   0.456695 0.461424 0.840686 0.552108
C3    C     C_R   0.541791 0.521722 0.034379 -0.119731
C4    C     C_R   0.470059 0.459450 0.962622 -0.116113
C5    C     C_R   0.331011 0.499486 0.498669 0.584177
C6    C     C_R   0.668993 0.500859 0.501361 0.588228
C7    C     C_1   0.228520 0.499444 0.496653 0.077484
C8    C     C_1   0.771493 0.501175 0.503268 0.087540
C9    C     C_1   0.143128 0.499697 0.497081 0.026403
C10   C     C_1   0.856874 0.501017 0.502719 0.053373
C11   C     C_1   0.042630 0.500161 0.498892 0.061863
C12   C     C_R   0.495843 0.700778 0.521981 0.587455
C13   C     C_1   0.957360 0.500587 0.500795 0.071900
C14   C     C_R   0.490137 0.814978 0.535814 -0.071389
C15   C     C_R   0.503361 0.185071 0.463232 -0.065901
C16   C     C_R   0.446456 0.016313 0.351685 0.440285
C17   C     C_R   0.543078 0.985191 0.647198 0.438394
C18   C     C_R   0.458017 0.123809 0.362102 -0.098664
C19   C     C_R   0.530110 0.878250 0.638875 -0.097590
C20   C     C_R   0.546787 0.136639 0.550361 0.258628
C21   C     C_R   0.447751 0.861926 0.446275 0.252930
C22   C     C_R   0.521459 0.030676 0.549241 -0.054462
C23   C     C_R   0.470540 0.969023 0.448163 -0.053922
C24   C     C_R   0.418387 0.391499 0.014523 0.222104
C25   C     C_R   0.614679 0.557893 0.979484 0.215365
C26   C     C_R   0.415384 0.413896 0.136962 0.297082
C27   C     C_R   0.597373 0.567365 0.859817 0.265585
C28   C     C_R   0.545178 0.534721 0.158576 0.556743
Cu1   Cu    Cu3+1 0.506360 0.507730 0.615930 1.188107
Cu2   Cu    Cu3+1 0.493640 0.492270 0.384070 1.211888
F1    F     F_    0.414695 0.960016 0.245588 -0.506830
F2    F     F_    0.574141 0.043391 0.752654 -0.505127
F3    F     F_    0.382945 0.407447 0.773283 -0.541886
F4    F     F_    0.604821 0.607646 0.228329 -0.524309
H1    H     H_    0.551846 0.845284 0.714135 0.211368
H2    H     H_    0.431945 0.159059 0.289778 0.222640
H3    H     H_    0.347101 0.685455 0.182736 0.376255
H4    H     H_    0.752228 0.318696 0.626941 0.376390
H5    H     H_    0.686972 0.781628 0.944485 0.360296
H6    H     H_    0.186480 0.469877 0.238963 0.368844
H7    H     H_    0.263051 0.195691 0.814657 0.379631
H8    H     H_    0.874855 0.542486 0.015906 0.382946
N1    N     N_R   0.515930 0.519350 0.790130 -0.266803
N2    N     N_R   0.484070 0.480650 0.209870 -0.264489
O1    O     O_R   0.504510 0.354460 0.582000 -0.421392
O2    O     O_2   0.279378 0.865712 0.321469 -0.166565
O3    O     O_3   0.397208 0.736285 0.224507 -0.420325
O4    O     O_2   0.618200 0.260732 0.751571 -0.167477
O5    O     O_2   0.716979 0.121459 0.665798 -0.172557
O6    O     O_3   0.700042 0.283874 0.570558 -0.552020
O7    O     O_2   0.762856 0.571496 0.767343 -0.202096
O8    O     O_2   0.657893 0.701893 0.718028 -0.290938
O9    O     O_3   0.737864 0.734080 0.922141 -0.405528
O10   O     O_2   0.238825 0.319643 0.084884 -0.181165
O11   O     O_2   0.316814 0.315471 0.275453 -0.278325
O12   O     O_R   0.495490 0.645540 0.418000 -0.407789
O13   O     O_3   0.251622 0.492014 0.230241 -0.506015
O14   O     O_2   0.451680 0.228086 0.847637 -0.172593
O15   O     O_2   0.378288 0.186640 0.012794 -0.198551
O16   O     O_3   0.276360 0.267697 0.859943 -0.401743
O17   O     O_2   0.754351 0.668826 0.126376 -0.164133
O18   O     O_2   0.734672 0.483173 0.133661 -0.234206
O19   O     O_3   0.814940 0.530018 0.965086 -0.414400
O20   O     O_R   0.493770 0.341410 0.386200 -0.499398
O21   O     O_R   0.506230 0.658590 0.613800 -0.491382
O22   O     O_R   0.381420 0.506530 0.597920 -0.458492
O23   O     O_R   0.618580 0.493470 0.402080 -0.447990
O24   O     O_R   0.370680 0.493470 0.402120 -0.410358
O25   O     O_R   0.629320 0.506530 0.597880 -0.436086
O26   O     O_2   0.310179 0.709012 0.400995 -0.298945
S1    S     S_3+6 0.354280 0.792351 0.348121 0.132230
S2    S     S_3+6 0.647267 0.200555 0.639817 0.134926
S3    S     S_3+6 0.688041 0.643010 0.811030 0.112158
S4    S     S_3+6 0.304641 0.380223 0.182678 0.098451
S5    S     S_3+6 0.382508 0.264025 0.933143 0.158230
S6    S     S_3+6 0.731250 0.561337 0.054278 0.146750

loop_
_geom_bond_atom_site_label_1
_geom_bond_atom_site_label_2
_ccdc_geom_bond_type
C6    O25   A    
Cu2   O20   S    
C15   C18   A    
Cu2   N2    S    
C26   N2    A    
C16   F1    S    
C21   S1    S    
C14   C21   A    
C3    C28   A    
C24   C26   A    
C4    C24   A    
O19   S6    S    
O6    S2    S    
C17   C19   A    
O10   S4    D    
O11   S4    D    
O5    S2    D    
O26   S1    D    
C1    C15   S    
H3    O3    S    
Cu2   O23   S    
C28   F4    S    
Cu1   N1    S    
O18   S6    D    
O4    S2    D    
C5    O24   A    
O14   S5    D    
Cu1   O25   S    
O17   S6    D    
C15   C20   A    
C3    C25   A    
O8    S3    D    
C5    C7    S    
C6    C8    S    
Cu2   O12   S    
C28   N2    A    
Cu1   O1    S    
O13   S4    S    
C2    C4    A    
Cu1   Cu2   S    
C2    N1    A    
C9    C11   S    
O3    S1    S    
O2    S1    D    
C12   O12   A    
Cu1   O21   S    
C2    F3    S    
C8    C10   T    
C6    O23   A    
C12   C14   S    
C16   C23   A    
C21   C23   A    
C3    C4    A    
C1    O20   A    
O15   S5    D    
C7    C9    T    
H6    O13   S    
C14   C19   A    
O9    S3    S    
O7    S3    D    
H7    O16   S    
C20   C22   A    
C5    O22   A    
C10   C13   S    
C24   S5    S    
H4    O6    S    
C25   C27   A    
C12   O21   A    
O16   S5    S    
C17   C22   A    
C25   S6    S    
C19   H1    S    
C11   C13   T    
C1    O1    A    
H5    O9    S    
C26   S4    S    
Cu1   O22   S    
C27   N1    A    
C16   C18   A    
C17   F2    S    
C22   C23   A    
C20   S2    S    
C27   S3    S    
C18   H2    S    
H8    O19   S    
Cu2   O24   S    
