data_mof_unit_21954.cif
_audit_creation_date              2012-12-10T16:53:10-0500
_audit_creation_method            fapswitch 2.2
_symmetry_space_group_name_H-M    P1
_symmetry_Int_Tables_number       1
_space_group_crystal_system       triclinic
_cell_length_a                    10.854128
_cell_length_b                    10.88577
_cell_length_c                    9.867112
_cell_angle_alpha                 92.497008
_cell_angle_beta                  88.98607
_cell_angle_gamma                 92.265689
_cell_volume                      1163.68743681

loop_
_atom_site_label
_atom_site_type_symbol
_atom_type_description
_atom_site_fract_x
_atom_site_fract_y
_atom_site_fract_z
_atom_type_partial_charge
C1    C     C_R   0.499880 0.265743 0.497858 0.831485
C2    C     C_R   0.065228 0.559446 0.619626 0.075574
C3    C     C_R   0.132323 0.546285 0.498021 -0.214021
C4    C     C_R   0.067791 0.551634 0.374537 0.024949
C5    C     C_R   0.939156 0.529940 0.376631 0.340034
C6    C     C_R   0.875194 0.506006 0.499901 -0.208366
C7    C     C_2   0.553448 0.931524 0.403515 -0.162529
C8    C     C_2   0.516418 0.867662 0.510902 -0.321954
C9    C     C_2   0.563081 0.066312 0.409635 -0.154344
C10   C     C_2   0.493208 0.132982 0.495283 -0.317403
C11   C     C_2   0.418707 0.439555 0.925472 0.271151
C12   C     C_R   0.264769 0.517394 0.500485 0.786656
C13   C     C_2   0.439804 0.418340 0.074094 0.168854
C14   C     C_R   0.504545 0.734511 0.502663 0.814230
C15   C     C_R   0.738365 0.497916 0.499536 0.824924
C16   C     C_R   0.116522 0.618896 0.735927 -0.161851
C17   C     C_R   0.055586 0.611523 0.860592 -0.195184
C18   C     C_R   0.946882 0.540400 0.870945 -0.137037
C19   C     C_R   0.890936 0.490883 0.753529 -0.132410
C20   C     C_R   0.941645 0.516445 0.623866 0.021535
Cu1   Cu    Cu3+1 0.500020 0.500020 0.638630 0.945930
Cu2   Cu    Cu3+1 0.499980 0.499980 0.361370 0.945728
H1    H     H_    0.430170 0.090618 0.567518 0.140715
H2    H     H_    0.520924 0.582755 0.113791 0.236945
H3    H     H_    0.204664 0.668936 0.731255 0.142055
H4    H     H_    0.096485 0.655393 0.949337 0.144041
H5    H     H_    0.904728 0.525362 0.969332 0.185112
H6    H     H_    0.810497 0.431199 0.767217 0.190336
H7    H     H_    0.580203 0.884289 0.308927 0.165772
H8    H     H_    0.500837 0.912773 0.609591 0.152122
H9    H     H_    0.625494 0.111172 0.338567 0.157209
N1    N     N_2   0.498640 0.498660 0.846910 -0.042684
N2    N     N_2   0.498610 0.498630 0.153040 -0.273777
O1    O     O_R   0.500020 0.321960 0.617040 -0.571390
O2    O     O_R   0.499980 0.321920 0.382900 -0.584564
O3    O     O_R   0.319670 0.500020 0.617100 -0.591720
O4    O     O_R   0.319630 0.499980 0.382950 -0.595097
O5    O     O_R   0.500020 0.678080 0.617100 -0.591174
O6    O     O_R   0.499980 0.678040 0.382960 -0.584133
O7    O     O_R   0.680370 0.500020 0.617050 -0.606339
O8    O     O_R   0.680330 0.499980 0.382900 -0.506574
C21   C     C_3   0.131323 0.591904 0.243350 -0.353019
C22   C     C_3   0.197073 0.719277 0.263661 -0.319775
C23   C     C_3   0.273626 0.755290 0.139194 -0.843444
H10   H     H_    0.316352 0.674259 0.088270 0.243269
H11   H     H_    0.215515 0.800280 0.066042 0.234214
H12   H     H_    0.348623 0.821633 0.171196 0.253202
H13   H     H_    0.127504 0.789899 0.286369 0.197812
H14   H     H_    0.259240 0.721069 0.351618 0.230971
H15   H     H_    0.194173 0.521196 0.202328 0.210088
H16   H     H_    0.064660 0.599268 0.161390 0.194487
C24   C     C_3   0.291263 0.395283 0.876265 -0.398681
C25   C     C_3   0.282372 0.261895 0.814667 -0.299281
C26   C     C_3   0.194618 0.246533 0.695214 -0.802971
H17   H     H_    0.106913 0.292704 0.719152 0.258298
H18   H     H_    0.237714 0.283801 0.602498 0.254655
H19   H     H_    0.173200 0.147098 0.673412 0.215964
H20   H     H_    0.373978 0.228023 0.784783 0.227583
H21   H     H_    0.245301 0.198692 0.891762 0.191290
H22   H     H_    0.223110 0.403016 0.961129 0.122442
H23   H     H_    0.251507 0.462112 0.816008 0.246483
O9    O     O_3   0.606831 0.532176 0.903902 -0.685016
H24   H     H_    0.648797 0.587451 0.839460 0.367262
C27   C     C_3   0.384679 0.299759 0.129154 -0.347897
C28   C     C_3   0.470823 0.193902 0.097069 -0.303497
C29   C     C_3   0.408059 0.069656 0.124919 -0.890652
H25   H     H_    0.369348 0.069280 0.229762 0.276591
H26   H     H_    0.332133 0.048872 0.052481 0.245740
H27   H     H_    0.476538 0.996871 0.111535 0.242372
H28   H     H_    0.499084 0.192870 0.988197 0.205555
H29   H     H_    0.555887 0.207898 0.156997 0.238231
H30   H     H_    0.354328 0.309972 0.234988 0.235754
H31   H     H_    0.293885 0.273917 0.087950 0.147915
O10   O     O_3   0.876030 0.530349 0.257043 -0.719487
H32   H     H_    0.869429 0.618354 0.236823 0.310736

loop_
_geom_bond_atom_site_label_1
_geom_bond_atom_site_label_2
_ccdc_geom_bond_type
C11   N1    D    
C29   H26   S    
C25   H20   S    
C13   N2    D    
O9    H24   S    
C19   H6    S    
C10   H1    S    
C12   O3    A    
C6    C20   A    
C22   H13   S    
H2    N2    S    
Cu1   O1    S    
C23   H12   S    
C21   H16   S    
C27   H31   S    
C8    H8    S    
C27   C28   S    
C29   H25   S    
C25   H21   S    
N1    O9    S    
C7    C8    D    
C28   C29   S    
Cu1   O3    S    
C28   H29   S    
Cu1   Cu2   S    
C24   C25   S    
Cu2   O2    S    
C11   C13   S    
C15   O8    A    
Cu1   O5    S    
C13   C27   S    
C4    C21   S    
C21   H15   S    
C7    H7    S    
C17   H4    S    
C23   H11   S    
C1    O1    A    
C2    C3    A    
C24   H23   S    
C27   H30   S    
C22   C23   S    
C5    C6    A    
Cu1   N1    S    
C26   H18   S    
C15   O7    A    
C6    C15   S    
Cu2   O8    S    
C14   O5    A    
C21   C22   S    
C1    C10   S    
C2    C20   A    
C28   H28   S    
C29   H27   S    
C16   C17   A    
O10   H32   S    
C12   O4    A    
C2    C16   A    
C23   H10   S    
C1    O2    A    
C17   C18   A    
C18   C19   A    
C9    C10   D    
C16   H3    S    
C7    C9    S    
Cu2   N2    S    
C9    H9    S    
C5    O10   S    
C22   H14   S    
C8    C14   S    
C11   C24   S    
C24   H22   S    
C3    C12   S    
C14   O6    A    
C26   H17   S    
Cu2   O4    S    
Cu2   O6    S    
C26   H19   S    
C18   H5    S    
C19   C20   A    
C25   C26   S    
C4    C5    A    
C3    C4    A    
Cu1   O7    S    
