data_mof_unit_6905.cif
_audit_creation_date              2012-12-10T16:42:59-0500
_audit_creation_method            fapswitch 2.2
_symmetry_space_group_name_H-M    P1
_symmetry_Int_Tables_number       1
_space_group_crystal_system       triclinic
_cell_length_a                    7.496686
_cell_length_b                    8.670243
_cell_length_c                    13.045972
_cell_angle_alpha                 87.315368
_cell_angle_beta                  78.576081
_cell_angle_gamma                 102.522957
_cell_volume                      807.80998806

loop_
_atom_site_label
_atom_site_type_symbol
_atom_type_description
_atom_site_fract_x
_atom_site_fract_y
_atom_site_fract_z
_atom_type_partial_charge
C1    C     C_R   0.452949 0.199875 0.503378 0.854529
C2    C     C_R   0.547051 0.800125 0.496623 0.854789
C3    C     C_R   0.466774 0.500664 0.700871 0.794483
C4    C     C_R   0.533026 0.498057 0.299184 0.793452
C5    C     C_R   0.550932 0.495619 0.185746 -0.181533
C6    C     C_R   0.448420 0.498419 0.814427 -0.185780
C7    C     C_R   0.253798 0.405481 0.986933 0.526243
C8    C     C_R   0.747322 0.578826 0.012373 0.529946
C9    C     C_R   0.275855 0.426852 0.878621 -0.237563
C10   C     C_R   0.724959 0.561147 0.120955 -0.245272
C11   C     C_R   0.601574 0.562978 0.858525 -0.094458
C12   C     C_R   0.397111 0.429899 0.142255 -0.097763
C13   C     C_R   0.588348 0.532991 0.967394 -0.074403
C14   C     C_R   0.411238 0.455121 0.032858 -0.080218
C15   C     C_2   0.426475 0.031996 0.505076 -0.357477
C16   C     C_2   0.573528 0.968006 0.494918 -0.357088
Cu1   Cu    Cu3+1 0.686350 0.517570 0.488220 1.045276
Cu2   Cu    Cu3+1 0.313650 0.482430 0.511780 1.044859
H1    H     H_    0.845799 0.597579 0.155103 0.164593
H2    H     H_    0.155349 0.388295 0.844436 0.167667
H3    H     H_    0.284620 0.960726 0.514733 0.215221
H4    H     H_    0.715384 0.039277 0.485260 0.215490
N1    N     N_2   0.033570 0.455950 0.529530 0.162609
N2    N     N_2   0.966430 0.544050 0.470470 0.163472
O1    O     O_R   0.621060 0.286250 0.492350 -0.531164
O2    O     O_R   0.378940 0.713750 0.507650 -0.531403
O3    O     O_R   0.306310 0.256580 0.512240 -0.587770
O4    O     O_R   0.693690 0.743420 0.487760 -0.587409
O5    O     O_R   0.631800 0.512400 0.642670 -0.566530
O6    O     O_R   0.368200 0.487600 0.357330 -0.567465
O7    O     O_R   0.317060 0.482730 0.662570 -0.616633
O8    O     O_R   0.682940 0.517270 0.337430 -0.616518
C17   C     C_1   0.233020 0.326024 0.209738 0.352543
N3    N     N_1   0.103114 0.243277 0.264049 -0.275114
C18   C     C_1   0.762772 0.673143 0.793005 0.350419
N4    N     N_1   0.890380 0.760981 0.740415 -0.280735
O9    O     O_3   0.074758 0.352214 0.048140 -0.557118
C19   C     C_3   0.000884 0.193669 0.030914 -0.338420
H5    H     H_    0.102864 0.117972 0.033458 0.134764
H6    H     H_    0.952778 0.187489 0.955672 0.152680
H7    H     H_    0.876699 0.143789 0.094676 0.198305
O10   O     O_3   0.926298 0.622165 0.949352 -0.558621
C20   C     C_3   0.023778 0.770770 0.972117 -0.336921
H8    H     H_    0.089716 0.756606 0.039992 0.160194
H9    H     H_    0.932783 0.856945 0.985877 0.129804
H10   H     H_    0.138426 0.821774 0.903409 0.198479
O11   O     O_3   0.911585 0.319598 0.571848 -0.477272
C21   C     C_3   0.934756 0.289481 0.674477 -0.129673
H11   H     H_    0.944080 0.397585 0.717851 0.154196
H12   H     H_    0.057415 0.237539 0.674152 0.162688
H13   H     H_    0.809833 0.200278 0.717882 0.121240
O12   O     O_3   0.088364 0.680464 0.428216 -0.476029
C22   C     C_3   0.065239 0.710682 0.325586 -0.134733
H14   H     H_    0.942392 0.762362 0.325899 0.164104
H15   H     H_    0.056289 0.602693 0.282125 0.149638
H16   H     H_    0.190019 0.800123 0.282275 0.119404

loop_
_geom_bond_atom_site_label_1
_geom_bond_atom_site_label_2
_ccdc_geom_bond_type
N2    O12   S    
O11   C21   S    
C3    O7    A    
C20   H8    S    
O9    C19   S    
Cu2   O6    S    
Cu1   O5    S    
C9    H2    S    
C18   N4    T    
Cu2   O2    S    
C15   H3    S    
C10   H1    S    
N1    N2    D    
C3    C6    S    
Cu1   O1    S    
C6    C9    A    
C21   H12   S    
Cu1   Cu2   S    
C7    O9    S    
C5    C10   A    
C2    O2    A    
C13   C14   A    
C1    O1    A    
C20   H9    S    
C3    O5    A    
C4    O8    A    
C5    C12   A    
C1    C15   S    
C11   C18   S    
C21   H11   S    
C19   H6    S    
C12   C14   A    
C17   N3    T    
C22   H15   S    
C19   H5    S    
C20   H10   S    
C21   H13   S    
Cu1   N2    S    
N1    O11   S    
O10   C20   S    
C8    O10   S    
C15   C16   D    
C8    C13   A    
C7    C9    A    
C11   C13   A    
C2    C16   S    
O12   C22   S    
C19   H7    S    
C8    C10   A    
C22   H16   S    
C6    C11   A    
C1    O3    A    
Cu1   O8    S    
C2    O4    A    
Cu2   O7    S    
C12   C17   S    
C22   H14   S    
Cu1   O4    S    
C7    C14   A    
C4    O6    A    
Cu2   O3    S    
Cu2   N1    S    
C16   H4    S    
C4    C5    S    
