data_mof_unit_11122.cif
_audit_creation_date              2012-12-10T18:48:42-0500
_audit_creation_method            fapswitch 2.2
_symmetry_space_group_name_H-M    P1
_symmetry_Int_Tables_number       1
_space_group_crystal_system       triclinic
_cell_length_a                    16.899119
_cell_length_b                    13.576472
_cell_length_c                    9.988627
_cell_angle_alpha                 89.301346
_cell_angle_beta                  89.535952
_cell_angle_gamma                 91.719091
_cell_volume                      2290.41095533

loop_
_atom_site_label
_atom_site_type_symbol
_atom_type_description
_atom_site_fract_x
_atom_site_fract_y
_atom_site_fract_z
_atom_type_partial_charge
C1    C     C_R   0.120008 0.379822 0.500038 0.929802
C2    C     C_R   0.995403 0.411315 0.929359 0.267289
C3    C     C_R   0.997775 0.411287 0.074980 0.256585
C4    C     C_R   0.005059 0.588877 0.926251 0.258771
C5    C     C_R   0.502536 0.088793 0.071995 0.256967
C6    C     C_R   0.495403 0.911315 0.929359 0.267287
C7    C     C_R   0.497774 0.911287 0.074980 0.256586
C8    C     C_R   0.505060 0.088876 0.926251 0.258771
C9    C     C_R   0.771163 0.295985 0.374007 0.173400
C10   C     C_R   0.234231 0.695677 0.615236 0.171607
C11   C     C_R   0.228956 0.706494 0.371449 0.162543
C12   C     C_R   0.879794 0.619964 0.499863 0.928660
C13   C     C_R   0.772428 0.287779 0.619300 0.156710
C14   C     C_R   0.212316 0.269224 0.619918 0.056779
C15   C     C_R   0.774108 0.710214 0.378962 0.180181
C16   C     C_R   0.785660 0.727476 0.619909 0.057488
C17   C     C_R   0.226956 0.292378 0.379329 0.175773
C18   C     C_R   0.271163 0.795985 0.374008 0.173398
C19   C     C_R   0.734230 0.195678 0.615236 0.171609
C20   C     C_R   0.728956 0.206493 0.371450 0.162543
C21   C     C_R   0.272429 0.787777 0.619301 0.156711
C22   C     C_R   0.712315 0.769223 0.619918 0.056780
C23   C     C_R   0.874684 0.387868 0.500107 0.928756
C24   C     C_R   0.274109 0.210215 0.378962 0.180180
C25   C     C_R   0.285660 0.227477 0.619909 0.057489
C26   C     C_R   0.726956 0.792376 0.379329 0.175773
C27   C     C_R   0.201135 0.665078 0.493905 -0.215990
C28   C     C_R   0.800628 0.329993 0.498173 -0.221498
C29   C     C_R   0.812988 0.685945 0.499511 -0.158376
C30   C     C_R   0.186570 0.313636 0.499803 -0.155727
C31   C     C_R   0.701135 0.165079 0.493906 -0.215992
C32   C     C_R   0.300628 0.829993 0.498174 -0.221498
C33   C     C_R   0.312988 0.185945 0.499511 -0.158376
C34   C     C_R   0.125657 0.610765 0.498540 0.936911
C35   C     C_R   0.686570 0.813635 0.499803 -0.155726
C36   C     C_3   0.776641 0.356969 0.245508 -0.769376
C37   C     C_3   0.244542 0.621813 0.728523 -0.748626
C38   C     C_3   0.222239 0.652904 0.239216 -0.759445
C39   C     C_3   0.753111 0.353708 0.735730 -0.671285
C40   C     C_3   0.161475 0.252116 0.742567 -0.646202
C41   C     C_3   0.766804 0.641543 0.261420 -0.785528
C42   C     C_3   0.835321 0.742789 0.742355 -0.649603
C43   C     C_3   0.232883 0.362343 0.260599 -0.791520
C44   C     C_3   0.276640 0.856970 0.245509 -0.769378
C45   C     C_R   0.620008 0.879822 0.500038 0.929803
C46   C     C_3   0.744542 0.121816 0.728525 -0.748616
C47   C     C_3   0.722240 0.152902 0.239217 -0.759447
C48   C     C_3   0.253113 0.853705 0.735733 -0.671275
C49   C     C_3   0.661474 0.752115 0.742567 -0.646201
C50   C     C_3   0.266804 0.141545 0.261419 -0.785525
C51   C     C_3   0.335321 0.242790 0.742355 -0.649603
C52   C     C_3   0.732882 0.862341 0.260599 -0.791518
C53   C     C_R   0.379794 0.119965 0.499863 0.928662
C54   C     C_R   0.374684 0.887868 0.500107 0.928757
C55   C     C_R   0.625657 0.110765 0.498540 0.936910
C56   C     C_R   0.002536 0.588793 0.071995 0.256967
H1    H     H_    0.994156 0.788308 0.342237 0.360094
H2    H     H_    0.816429 0.323213 0.171894 0.285938
H3    H     H_    0.716916 0.362184 0.200905 0.252485
H4    H     H_    0.188815 0.601070 0.781212 0.275468
H5    H     H_    0.269535 0.553607 0.687460 0.203244
H6    H     H_    0.286571 0.649520 0.804437 0.278834
H7    H     H_    0.201158 0.575717 0.250049 0.225770
H8    H     H_    0.182729 0.691402 0.169963 0.287240
H9    H     H_    0.281694 0.649569 0.191700 0.257166
H10   H     H_    0.795673 0.416166 0.748661 0.232929
H11   H     H_    0.694369 0.385689 0.717768 0.223423
H12   H     H_    0.961795 0.220245 0.657715 0.358114
H13   H     H_    0.749078 0.312231 0.831762 0.286367
H14   H     H_    0.147229 0.321729 0.792833 0.259746
H15   H     H_    0.109757 0.207485 0.710644 0.278338
H16   H     H_    0.189430 0.204681 0.819047 0.223673
H17   H     H_    0.823536 0.628274 0.210642 0.281574
H18   H     H_    0.739264 0.571399 0.298452 0.208930
H19   H     H_    0.726354 0.670055 0.183957 0.270331
H20   H     H_    0.849418 0.672531 0.793074 0.257904
H21   H     H_    0.887112 0.787927 0.709411 0.281728
H22   H     H_    0.806715 0.789127 0.818618 0.223512
H23   H     H_    0.005100 0.210486 0.350605 0.360070
H24   H     H_    0.176402 0.369533 0.207393 0.282357
H25   H     H_    0.254465 0.434840 0.296860 0.209422
H26   H     H_    0.277209 0.338518 0.185938 0.271053
H27   H     H_    0.297023 0.933570 0.261352 0.225716
H28   H     H_    0.316428 0.823215 0.171894 0.285938
H29   H     H_    0.216915 0.862186 0.200907 0.252485
H30   H     H_    0.688815 0.101069 0.781210 0.275465
H31   H     H_    0.769539 0.053612 0.687464 0.203244
H32   H     H_    0.786567 0.149525 0.804442 0.278834
H33   H     H_    0.701159 0.075716 0.250051 0.225770
H34   H     H_    0.036362 0.781583 0.647639 0.355415
H35   H     H_    0.682730 0.191400 0.169963 0.287240
H36   H     H_    0.781694 0.149567 0.191702 0.257166
H37   H     H_    0.295681 0.916156 0.748677 0.232941
H38   H     H_    0.194375 0.885696 0.717765 0.223415
H39   H     H_    0.249072 0.812223 0.831762 0.286368
H40   H     H_    0.647229 0.821728 0.792833 0.259746
H41   H     H_    0.609756 0.707484 0.710644 0.278338
H42   H     H_    0.689429 0.704680 0.819047 0.223673
H43   H     H_    0.323537 0.128275 0.210642 0.281574
H44   H     H_    0.239263 0.071402 0.298451 0.208930
H45   H     H_    0.494157 0.288308 0.342237 0.360094
H46   H     H_    0.226355 0.170058 0.183956 0.270331
H47   H     H_    0.349419 0.172532 0.793074 0.257904
H48   H     H_    0.387113 0.287928 0.709411 0.281728
H49   H     H_    0.306716 0.289127 0.818618 0.223511
H50   H     H_    0.676401 0.869532 0.207393 0.282357
H51   H     H_    0.754465 0.934838 0.296859 0.209422
H52   H     H_    0.777208 0.838515 0.185937 0.271053
H53   H     H_    0.461794 0.720245 0.657715 0.358114
H54   H     H_    0.505098 0.710485 0.350605 0.360069
H55   H     H_    0.536363 0.281583 0.647639 0.355414
H56   H     H_    0.797024 0.433568 0.261350 0.225717
N1    N     N_R   0.000000 0.500000 0.857200 -0.238254
N2    N     N_R   0.000000 0.500000 0.142800 -0.244440
N3    N     N_R   0.500000 0.000000 0.857200 -0.238255
N4    N     N_R   0.500000 0.000000 0.142800 -0.244440
O1    O     O_R   0.091610 0.408380 0.614620 -0.585365
O2    O     O_R   0.408390 0.091620 0.385380 -0.572972
O3    O     O_R   0.408390 0.091620 0.614620 -0.583862
O4    O     O_R   0.591610 0.908380 0.385380 -0.571676
O5    O     O_R   0.408390 0.908380 0.385380 -0.553716
O6    O     O_R   0.591610 0.091620 0.614620 -0.548239
O7    O     O_R   0.591610 0.091620 0.385380 -0.557457
O8    O     O_R   0.408390 0.908380 0.614620 -0.548314
O9    O     O_2   0.062893 0.775996 0.106237 -0.240404
O10   O     O_2   0.919559 0.750406 0.122552 -0.308245
O11   O     O_3   0.004420 0.718313 0.323438 -0.514379
O12   O     O_R   0.908390 0.591620 0.385380 -0.572971
O13   O     O_2   0.019295 0.211138 0.905067 -0.220859
O14   O     O_2   0.887922 0.271724 0.872569 -0.331242
O15   O     O_3   0.990093 0.282287 0.682625 -0.540379
O16   O     O_2   0.934882 0.225902 0.117944 -0.243568
O17   O     O_2   0.078842 0.247799 0.126434 -0.308859
O18   O     O_3   0.996394 0.281005 0.330711 -0.515108
O19   O     O_2   0.977376 0.787921 0.896404 -0.222081
O20   O     O_2   0.110523 0.733430 0.862340 -0.325338
O21   O     O_3   0.009033 0.718821 0.675013 -0.541731
O22   O     O_2   0.562894 0.275995 0.106237 -0.240405
O23   O     O_R   0.908390 0.591620 0.614620 -0.583862
O24   O     O_2   0.419560 0.250406 0.122551 -0.308245
O25   O     O_3   0.504420 0.218313 0.323438 -0.514379
O26   O     O_2   0.519294 0.711138 0.905068 -0.220858
O27   O     O_2   0.387921 0.771725 0.872569 -0.331244
O28   O     O_3   0.490093 0.782287 0.682625 -0.540380
O29   O     O_2   0.434881 0.725903 0.117945 -0.243569
O30   O     O_2   0.578841 0.747798 0.126434 -0.308857
O31   O     O_3   0.496394 0.781005 0.330711 -0.515108
O32   O     O_2   0.477377 0.287922 0.896404 -0.222081
O33   O     O_2   0.610524 0.233429 0.862340 -0.325335
O34   O     O_R   0.091610 0.408380 0.385380 -0.571676
O35   O     O_3   0.509033 0.218821 0.675013 -0.541732
O36   O     O_R   0.908390 0.408380 0.385380 -0.553717
O37   O     O_R   0.091610 0.591620 0.614620 -0.548239
O38   O     O_R   0.091610 0.591620 0.385380 -0.557458
O39   O     O_R   0.908390 0.408380 0.614620 -0.548310
O40   O     O_R   0.591610 0.908380 0.614620 -0.585366
S1    S     S_3+6 0.997808 0.707570 0.157556 0.091171
S2    S     S_3+6 0.973921 0.294220 0.846690 0.071623
S3    S     S_3+6 0.001566 0.292361 0.164155 0.091942
S4    S     S_3+6 0.025025 0.706958 0.839253 0.068179
S5    S     S_3+6 0.497809 0.207570 0.157556 0.091170
S6    S     S_3+6 0.473921 0.794220 0.846691 0.071620
S7    S     S_3+6 0.501566 0.792361 0.164155 0.091942
S8    S     S_3+6 0.525026 0.206958 0.839253 0.068179
Zn1   Zn    Zn3+2 0.000000 0.500000 0.653120 1.075505
Zn2   Zn    Zn3+2 0.000000 0.500000 0.346880 1.076169
Zn3   Zn    Zn3+2 0.500000 0.000000 0.653120 1.075503
Zn4   Zn    Zn3+2 0.500000 0.000000 0.346880 1.076169

loop_
_geom_bond_atom_site_label_1
_geom_bond_atom_site_label_2
_ccdc_geom_bond_type
C10   C27   A    
C3    S3    S    
C23   O36   A    
C11   C18   A    
O25   S5    S    
C48   H39   S    
C23   O39   A    
C12   C29   S    
O15   S2    S    
C47   H36   S    
C36   H3    S    
C19   C31   A    
C25   C51   S    
C37   H6    S    
C19   C46   S    
C22   C35   A    
C50   H43   S    
C40   H14   S    
C10   C37   S    
C40   H15   S    
C46   H31   S    
C26   C52   S    
N1    Zn1   S    
C2    N1    A    
O9    S1    D    
O10   S1    D    
C51   H47   S    
O34   Zn2   S    
O23   Zn1   S    
C8    N3    A    
C41   H18   S    
H45   O25   S    
C6    S6    S    
C52   H51   S    
O1    Zn1   S    
C36   H56   S    
C9    C36   S    
C13   C28   A    
N2    Zn2   S    
O19   S4    D    
O22   S5    D    
O11   S1    S    
O27   S6    D    
C38   H8    S    
C51   H49   S    
C21   C48   S    
O28   S6    S    
C44   H27   S    
O18   S3    S    
C49   H42   S    
C55   O6    A    
C52   H50   S    
C10   C21   A    
C4    C56   A    
O12   Zn2   S    
C17   C30   A    
C47   H33   S    
C47   H35   S    
C14   C30   A    
C32   C54   S    
O13   S2    D    
C15   C29   A    
C46   H32   S    
C34   O38   A    
C27   C34   S    
C33   C53   S    
C6    N3    A    
C21   C32   A    
C55   O7    A    
O16   S3    D    
C48   H37   S    
C13   C19   A    
C36   H2    S    
C17   C24   A    
C4    N1    A    
C15   C41   S    
C8    S8    S    
O33   S8    D    
C53   O2    A    
C15   C26   A    
O29   S7    D    
O40   Zn3   S    
C51   H48   S    
C14   C40   S    
O17   S3    D    
O32   S8    D    
C7    N4    A    
H12   O15   S    
C17   C43   S    
H1    O11   S    
C56   S1    S    
C18   C44   S    
C41   H19   S    
O8    Zn3   S    
C9    C20   A    
O36   Zn2   S    
C38   H9    S    
C11   C27   A    
C2    S2    S    
C39   H13   S    
C12   O23   A    
C1    O34   A    
C45   O40   A    
C1    O1    A    
C23   C28   S    
C24   C50   S    
C48   H38   S    
C22   C49   S    
O7    Zn4   S    
C45   O4    A    
C54   O5    A    
C42   H22   S    
C5    N4    A    
C43   H25   S    
C39   H10   S    
C18   C32   A    
N3    Zn3   S    
H54   O31   S    
C35   C45   S    
C16   C42   S    
H34   O21   S    
O4    Zn4   S    
C38   H7    S    
C34   O37   A    
H23   O18   S    
C54   O8    A    
C16   C22   A    
O6    Zn3   S    
C40   H16   S    
O21   S4    S    
O37   Zn1   S    
C39   H11   S    
O38   Zn2   S    
C44   H28   S    
C3    N2    A    
H55   O35   S    
O26   S6    D    
C5    C8    A    
C37   H5    S    
C53   O3    A    
C50   H46   S    
C6    C7    A    
C12   O12   A    
O30   S7    D    
C42   H20   S    
C24   C33   A    
O14   S2    D    
O24   S5    D    
C2    C3    A    
C16   C29   A    
O31   S7    S    
C14   C25   A    
C4    S4    S    
C7    S7    S    
O39   Zn1   S    
O2    Zn4   S    
C1    C30   S    
C43   H24   S    
H53   O28   S    
O5    Zn4   S    
C49   H40   S    
O3    Zn3   S    
C50   H44   S    
C13   C39   S    
C37   H4    S    
C41   H17   S    
O20   S4    D    
C26   C35   A    
C52   H52   S    
C42   H21   S    
O35   S8    S    
C25   C33   A    
C43   H26   S    
C56   N2    A    
N4    Zn4   S    
C11   C38   S    
C31   C55   S    
C20   C47   S    
C44   H29   S    
C9    C28   A    
C5    S5    S    
C46   H30   S    
C20   C31   A    
C49   H41   S    
