data_mof_unit_47102.cif
_audit_creation_date              2012-12-10T18:09:02-0500
_audit_creation_method            fapswitch 2.2
_symmetry_space_group_name_H-M    P1
_symmetry_Int_Tables_number       1
_space_group_crystal_system       triclinic
_cell_length_a                    12.703242
_cell_length_b                    13.062685
_cell_length_c                    13.67599
_cell_angle_alpha                 90.985003
_cell_angle_beta                  96.922517
_cell_angle_gamma                 98.598245
_cell_volume                      2226.07569773

loop_
_atom_site_label
_atom_site_type_symbol
_atom_type_description
_atom_site_fract_x
_atom_site_fract_y
_atom_site_fract_z
_atom_type_partial_charge
C1    C     C_R   0.560197 0.691724 0.515756 0.857717
C2    C     C_R   0.462252 0.033221 0.518911 0.011311
C3    C     C_R   0.365649 0.995579 0.557873 0.063744
C4    C     C_R   0.516778 0.497863 0.318664 0.888126
C5    C     C_R   0.352520 0.896652 0.596724 -0.205701
C6    C     C_R   0.431069 0.834596 0.593647 -0.195765
C7    C     C_R   0.469577 0.127219 0.469661 0.118360
C8    C     C_R   0.300793 0.158148 0.521576 0.005669
C9    C     C_R   0.598421 0.803001 0.533182 -0.174450
C10   C     C_R   0.896367 0.350075 0.636222 -0.367474
C11   C     C_R   0.212754 0.616684 0.373966 -0.000867
C12   C     C_1   0.530330 0.504557 0.218643 -0.210698
C13   C     C_R   0.109655 0.629427 0.334202 0.190401
C14   C     C_R   0.023181 0.581527 0.379244 -0.299259
C15   C     C_R   0.039523 0.525279 0.465754 -0.000495
C16   C     C_R   0.439217 0.307886 0.487920 0.870090
C17   C     C_R   0.145097 0.506944 0.496244 0.213359
C18   C     C_R   0.955379 0.479377 0.518283 -0.034807
C19   C     C_R   0.977833 0.404947 0.589842 0.154985
C20   C     C_R   0.081866 0.386201 0.615765 -0.275395
C21   C     C_R   0.164347 0.437213 0.569943 -0.173769
C22   C     C_R   0.849978 0.504188 0.506229 0.170428
C23   C     C_R   0.283106 0.056485 0.555519 0.170989
C24   C     C_R   0.792598 0.370005 0.613183 0.242119
C25   C     C_R   0.483578 0.502887 0.681428 0.870518
C26   C     C_1   0.474477 0.505470 0.782556 -0.180838
C27   C     C_2   0.466244 0.511990 0.971485 -0.255097
C28   C     C_2   0.557153 0.519433 0.033224 0.264224
C29   C     C_1   0.544493 0.511552 0.134643 -0.030064
C30   C     C_1   0.468017 0.508449 0.868387 0.000528
C31   C     C_3   0.754463 0.557500 0.072077 -0.792446
C32   C     C_3   0.126868 0.650249 0.160705 -0.799230
C33   C     C_3   0.181322 0.028612 0.694471 -0.827367
C34   C     C_R   0.399483 0.196241 0.487960 -0.161032
C35   C     C_3   0.508971 0.077299 0.307863 -0.787400
C36   C     C_3   0.892786 0.038795 0.613482 -0.812437
C37   C     C_R   0.704395 0.845313 0.521330 -0.219446
C38   C     C_R   0.733123 0.952709 0.518876 0.255814
C39   C     C_R   0.653605 0.016103 0.516895 -0.229437
C40   C     C_R   0.546999 0.973924 0.527508 0.074911
C41   C     C_R   0.525235 0.869624 0.551786 0.082694
H1    H     H_    0.418118 0.759482 0.626122 0.171380
H2    H     H_    0.677607 0.098713 0.512760 0.167685
H3    H     H_    0.667952 0.560650 0.932411 0.235989
H4    H     H_    0.828471 0.558609 0.036115 0.236437
H5    H     H_    0.756351 0.500581 0.131455 0.252151
H6    H     H_    0.753676 0.636042 0.104228 0.235576
H7    H     H_    0.725805 0.327821 0.735710 0.170645
H8    H     H_    0.703398 0.236140 0.643898 0.156077
H9    H     H_    0.793143 0.584631 0.389442 0.186967
H10   H     H_    0.886877 0.658733 0.476471 0.169243
H11   H     H_    0.016944 0.710206 0.237003 0.226721
H12   H     H_    0.099519 0.331578 0.671976 0.144838
H13   H     H_    0.111172 0.702926 0.099556 0.240426
H14   H     H_    0.081611 0.571888 0.139570 0.241672
H15   H     H_    0.214233 0.646584 0.171476 0.242951
H16   H     H_    0.152278 0.189770 0.474147 0.186932
H17   H     H_    0.198602 0.225857 0.593183 0.180735
H18   H     H_    0.116865 0.033547 0.547022 0.232236
H19   H     H_    0.179733 0.110770 0.715225 0.230796
H20   H     H_    0.252256 0.002798 0.736877 0.252442
H21   H     H_    0.108129 0.980821 0.715252 0.248202
H22   H     H_    0.552853 0.222558 0.372778 0.242927
H23   H     H_    0.912939 0.292314 0.689631 0.149053
H24   H     H_    0.568287 0.095791 0.254931 0.237016
H25   H     H_    0.428163 0.086395 0.271047 0.240035
H26   H     H_    0.509084 0.995464 0.328290 0.256603
H27   H     H_    0.850681 0.052067 0.464380 0.224696
H28   H     H_    0.973385 0.081906 0.606974 0.237443
H29   H     H_    0.900783 0.974737 0.664934 0.257520
H30   H     H_    0.845604 0.094058 0.644220 0.229694
H31   H     H_    0.281595 0.652532 0.340854 0.151856
H32   H     H_    0.944767 0.584137 0.341370 0.142654
H33   H     H_    0.241822 0.416296 0.589701 0.219169
H34   H     H_    0.388470 0.504267 0.998643 0.146045
H35   H     H_    0.280447 0.865049 0.627456 0.184395
H36   H     H_    0.764004 0.795676 0.513045 0.175002
N1    N     N_R   0.773270 0.445590 0.549770 -0.095750
N2    N     N_2   0.841740 0.997530 0.517651 -0.307313
N3    N     N_R   0.227520 0.553880 0.450750 -0.155604
N4    N     N_2   0.661042 0.527985 0.999892 -0.288244
N5    N     N_3   0.707025 0.315290 0.659475 -0.387134
N6    N     N_3   0.822945 0.597752 0.463832 -0.421329
N7    N     N_2   0.092553 0.689448 0.249352 -0.306394
N8    N     N_3   0.219612 0.222909 0.522000 -0.433347
N9    N     N_2   0.183927 0.015968 0.589360 -0.309914
N10   N     N_2   0.537799 0.146971 0.393645 -0.308536
O1    O     O_R   0.631100 0.627590 0.523760 -0.588541
O2    O     O_R   0.455900 0.662370 0.491970 -0.615556
O3    O     O_R   0.600200 0.480080 0.377830 -0.614021
O4    O     O_R   0.425000 0.514870 0.346040 -0.613369
O5    O     O_R   0.544100 0.337630 0.508030 -0.602557
O6    O     O_R   0.368900 0.372410 0.476240 -0.592383
O7    O     O_R   0.575000 0.485130 0.653960 -0.585244
O8    O     O_R   0.399800 0.519920 0.622170 -0.641102
Zn1   Zn    Zn3+2 0.616980 0.476780 0.521230 0.959741
Zn2   Zn    Zn3+2 0.383020 0.523220 0.478770 0.929875

loop_
_geom_bond_atom_site_label_1
_geom_bond_atom_site_label_2
_ccdc_geom_bond_type
C15   C18   A    
O1    Zn1   S    
H10   N6    S    
C12   C29   T    
C3    C23   A    
C2    C7    A    
C23   N9    S    
C13   N7    S    
C16   O6    A    
C28   C29   S    
C18   C19   A    
C5    C6    A    
N3    Zn2   S    
C38   N2    S    
C35   H24   S    
O5    Zn1   S    
C8    C23   A    
C8    N8    S    
H11   N7    S    
C24   N5    S    
C16   C34   S    
C35   N10   S    
C7    N10   S    
C19   C20   A    
N1    Zn1   S    
C33   H21   S    
C31   H5    S    
C4    C12   S    
C32   H14   S    
C36   H30   S    
C4    O4    A    
H27   N2    S    
C25   O7    A    
C31   H6    S    
C13   C14   A    
C27   C30   S    
C32   H15   S    
C27   H34   S    
C32   H13   S    
C36   H29   S    
H9    N6    S    
C4    O3    A    
C32   N7    S    
C14   H32   S    
C1    C9    S    
C22   N1    A    
H3    N4    S    
C39   C40   A    
C11   H31   S    
C39   H2    S    
C35   H25   S    
C10   C24   A    
C25   C26   S    
C37   H36   S    
C21   H33   S    
C6    C41   A    
C17   N3    A    
C17   C21   A    
O2    Zn2   S    
H8    N5    S    
C33   N9    S    
C37   C38   A    
C35   H26   S    
C10   C19   A    
O3    Zn1   S    
C9    C37   A    
C8    C34   A    
O4    Zn2   S    
O7    Zn1   S    
C24   N1    A    
C40   C41   A    
C25   O8    A    
C33   H19   S    
C6    H1    S    
C7    C34   A    
H17   N8    S    
O6    Zn2   S    
C36   H28   S    
C15   C17   A    
C1    O2    A    
H22   N10   S    
C28   N4    S    
C18   C22   A    
C10   H23   S    
C20   H12   S    
C3    C5    A    
C36   N2    S    
O8    Zn2   S    
C16   O5    A    
C9    C41   A    
C31   N4    S    
C22   N6    S    
C5    H35   S    
C2    C3    A    
H18   N9    S    
C11   C13   A    
C38   C39   A    
C1    O1    A    
H7    N5    S    
C11   N3    A    
C2    C40   A    
C20   C21   A    
C33   H20   S    
C31   H4    S    
C27   C28   D    
C14   C15   A    
H16   N8    S    
C26   C30   T    
