data_mof_unit_39813.cif
_audit_creation_date              2012-10-26T21:10:51-0400
_audit_creation_method            fapswitch 2.2
_symmetry_space_group_name_H-M    P1
_symmetry_Int_Tables_number       1
_space_group_crystal_system       triclinic
_cell_length_a                    10.813529
_cell_length_b                    14.694861
_cell_length_c                    14.55728
_cell_angle_alpha                 65.083692
_cell_angle_beta                  103.921148
_cell_angle_gamma                 102.974088
_cell_volume                      2016.25112394

loop_
_atom_site_label
_atom_site_type_symbol
_atom_type_description
_atom_site_fract_x
_atom_site_fract_y
_atom_site_fract_z
_atom_type_partial_charge
C1    C     C_R   0.472117 0.119884 0.311502 0.550404
C2    C     C_R   0.679756 0.769807 0.967412 -0.117910
C3    C     C_R   0.304229 0.167820 0.152581 0.051409
C4    C     C_R   0.653784 0.836863 0.866193 0.046017
C5    C     C_R   0.496190 0.287732 0.167764 0.075309
C6    C     C_R   0.464521 0.718929 0.836487 0.058031
C7    C     C_R   0.430240 0.369389 0.094803 0.074674
C8    C     C_R   0.493562 0.648876 0.940021 0.072307
C9    C     C_R   0.305196 0.345948 0.044813 -0.001868
C10   C     C_R   0.605309 0.675317 0.003197 -0.004843
C11   C     C_R   0.483794 0.473436 0.068771 0.043195
C12   C     C_R   0.524810 0.880076 0.688814 0.560274
C13   C     C_R   0.423894 0.549231 0.980480 0.044965
C14   C     C_R   0.295615 0.522920 0.939328 -0.107558
C15   C     C_R   0.588456 0.505402 0.132335 -0.109618
C16   C     C_R   0.262842 0.998737 0.502765 0.551930
C17   C     C_R   0.737121 0.001281 0.497201 0.553912
C18   C     C_R   0.237858 0.422926 0.970438 -0.136158
C19   C     C_R   0.646277 0.605326 0.100833 -0.141160
C20   C     C_R   0.739274 0.297217 0.647622 -0.151031
C21   C     C_R   0.259899 0.700536 0.355143 -0.116737
C22   C     C_R   0.699754 0.214036 0.620491 0.055169
C23   C     C_R   0.870546 0.002226 0.494751 -0.001007
C24   C     C_R   0.298361 0.783497 0.382705 0.046439
C25   C     C_R   0.509453 0.280043 0.519225 0.077334
C26   C     C_R   0.492425 0.721149 0.479062 0.033639
C27   C     C_R   0.551592 0.372831 0.533858 -0.009081
C28   C     C_R   0.450379 0.627623 0.466133 -0.042109
C29   C     C_R   0.663412 0.375978 0.607464 0.005884
C30   C     C_R   0.337911 0.623503 0.393575 0.060916
C31   C     C_R   0.484548 0.459860 0.481966 -0.006773
C32   C     C_R   0.517564 0.540685 0.518586 -0.055319
C33   C     C_R   0.614152 0.529579 0.607674 0.128531
C34   C     C_R   0.129320 0.998003 0.504859 -0.001427
C35   C     C_R   0.388309 0.470350 0.393242 0.084202
C36   C     C_R   0.693161 0.454030 0.644402 0.146640
C37   C     C_R   0.308221 0.546136 0.356269 0.105415
C38   C     C_R   0.351928 0.046569 0.791969 0.128168
C39   C     C_R   0.640791 0.952464 0.211771 0.146285
C40   C     C_R   0.264814 0.012135 0.720707 -0.058469
C41   C     C_R   0.730784 0.987632 0.281106 -0.062071
C42   C     C_R   0.188132 0.077561 0.638033 0.003832
C43   C     C_R   0.811357 0.923209 0.361022 0.003786
C44   C     C_R   0.197776 0.178198 0.626974 -0.120811
C45   C     C_R   0.905684 0.960629 0.434694 -0.024372
C46   C     C_R   0.803866 0.823467 0.369906 -0.111933
C47   C     C_R   0.283894 0.214178 0.697404 0.124035
C48   C     C_R   0.715400 0.786893 0.300772 0.106344
C49   C     C_R   0.361264 0.148427 0.780522 0.199507
C50   C     C_R   0.632797 0.851955 0.221001 0.199868
C51   C     C_R   0.964602 0.042098 0.557930 -0.134060
C52   C     C_R   0.035211 0.957928 0.441834 -0.134708
C53   C     C_R   0.094108 0.039873 0.564592 -0.024749
C54   C     C_R   0.427924 0.188799 0.205373 0.001999
C55   C     C_R   0.546529 0.812408 0.799015 0.006484
C56   C     C_R   0.246250 0.245762 0.071217 -0.110238
Cu1   Cu    Cu3+1 0.466270 0.918260 0.475690 0.944523
Cu2   Cu    Cu3+1 0.533730 0.081740 0.524310 0.952658
H1    H     H_    0.150838 0.228523 0.031981 0.151109
H2    H     H_    0.169224 0.697166 0.304226 0.156113
H3    H     H_    0.256372 0.934071 0.729590 0.097629
H4    H     H_    0.737615 0.065131 0.273453 0.093326
H5    H     H_    0.137999 0.228598 0.563257 0.106022
H6    H     H_    0.866699 0.773907 0.431458 0.109767
H7    H     H_    0.936933 0.072200 0.605310 0.152643
H8    H     H_    0.062845 0.927230 0.395015 0.154031
H9    H     H_    0.139529 0.405770 0.935907 0.122423
H10   H     H_    0.728402 0.626507 0.151049 0.151304
H11   H     H_    0.507011 0.134643 0.905391 0.269535
H12   H     H_    0.764604 0.789022 0.016822 0.159451
H13   H     H_    0.390935 0.199226 0.894152 0.258424
H14   H     H_    0.571308 0.857547 0.076701 0.258263
H15   H     H_    0.537301 0.741643 0.165696 0.245679
H16   H     H_    0.883992 0.458882 0.702940 0.215928
H17   H     H_    0.784704 0.386010 0.790416 0.245474
H18   H     H_    0.138550 0.480294 0.299876 0.230397
H19   H     H_    0.233171 0.556451 0.210266 0.242465
H20   H     H_    0.533943 0.601072 0.670115 0.229981
H21   H     H_    0.695211 0.644479 0.657304 0.238851
H22   H     H_    0.286233 0.372160 0.327771 0.227321
H23   H     H_    0.234709 0.578860 0.887421 0.166504
H24   H     H_    0.398417 0.459594 0.260784 0.239024
H25   H     H_    0.523280 0.998252 0.861880 0.254851
H26   H     H_    0.399568 0.903890 0.880944 0.229682
H27   H     H_    0.463667 0.991364 0.146011 0.282404
H28   H     H_    0.579295 0.091545 0.130560 0.213675
H29   H     H_    0.385108 0.352885 0.675420 0.257061
H30   H     H_    0.230174 0.356316 0.620905 0.217774
H31   H     H_    0.623673 0.644109 0.332896 0.238451
H32   H     H_    0.783301 0.649619 0.368602 0.228392
H33   H     H_    0.392758 0.674183 0.716440 0.264286
H34   H     H_    0.623516 0.455255 0.209058 0.161003
H35   H     H_    0.303024 0.750855 0.727974 0.234547
H36   H     H_    0.670932 0.252717 0.176673 0.222840
H37   H     H_    0.661089 0.285448 0.272842 0.248391
H38   H     H_    0.586480 0.737013 0.518924 0.134044
H39   H     H_    0.415899 0.264642 0.477996 0.168660
H40   H     H_    0.234743 0.838984 0.357901 0.159953
H41   H     H_    0.760750 0.156019 0.648539 0.161440
H42   H     H_    0.828723 0.298577 0.700196 0.109750
I1    I     I_    0.797493 0.964140 0.820831 -0.423925
I2    I     I_    0.189434 0.024597 0.190596 -0.427812
N1    N     N_R   0.584450 0.204570 0.560790 -0.242707
N2    N     N_3   0.557534 0.018546 0.130553 -0.600751
N3    N     N_3   0.291771 0.317042 0.686678 -0.607428
N4    N     N_3   0.711028 0.684894 0.310180 -0.658736
N5    N     N_3   0.358653 0.691756 0.767403 -0.657141
N6    N     N_3   0.634096 0.302382 0.194220 -0.645452
N7    N     N_R   0.415550 0.795430 0.439210 -0.232919
N8    N     N_3   0.447233 0.186974 0.852336 -0.597277
N9    N     N_3   0.540701 0.818642 0.147937 -0.588618
N10   N     N_3   0.797958 0.453767 0.726732 -0.594097
N11   N     N_3   0.200398 0.548564 0.275512 -0.646117
N12   N     N_3   0.622784 0.582202 0.673282 -0.586162
N13   N     N_3   0.379479 0.411020 0.334226 -0.661746
N14   N     N_3   0.428936 0.978159 0.876761 -0.613509
O1    O     O_R   0.455540 0.022090 0.338120 -0.473265
O2    O     O_R   0.544460 0.977910 0.661880 -0.474618
O3    O     O_R   0.512510 0.160150 0.379180 -0.499454
O4    O     O_R   0.487490 0.839850 0.620820 -0.510607
O5    O     O_R   0.291160 0.930970 0.479480 -0.510857
O6    O     O_R   0.708840 0.069030 0.520520 -0.511836
O7    O     O_R   0.348130 0.069020 0.520540 -0.503436
O8    O     O_R   0.651870 0.930980 0.479460 -0.500474

loop_
_geom_bond_atom_site_label_1
_geom_bond_atom_site_label_2
_ccdc_geom_bond_type
Cu2   O7    S    
C8    C13   A    
C23   C45   A    
C27   C29   A    
C14   C18   A    
C6    C55   A    
C16   O5    A    
H28   N2    S    
C39   N2    S    
C39   C41   A    
C38   C49   A    
C7    C11   A    
C29   C36   A    
H36   N6    S    
H17   N10   S    
C17   C23   S    
C24   H40   S    
C35   C37   A    
C16   O7    A    
H24   N13   S    
C42   C53   S    
H16   N10   S    
C3    C54   A    
C37   N11   S    
H13   N8    S    
Cu2   O2    S    
C33   C36   A    
C3    C56   A    
C50   N9    S    
C16   C34   S    
C15   H34   S    
C15   C19   A    
C11   C15   A    
C48   N4    S    
C47   N3    S    
H29   N3    S    
H31   N4    S    
C36   N10   S    
C6    N5    S    
C35   N13   S    
C44   C47   A    
C40   C42   A    
H14   N9    S    
H26   N14   S    
C12   O4    A    
C13   C14   A    
C41   C43   A    
H20   N12   S    
C42   C44   A    
C41   H4    S    
H19   N11   S    
H15   N9    S    
C20   C29   A    
C44   H5    S    
C26   H38   S    
C46   C48   A    
Cu2   O6    S    
Cu1   N7    S    
C27   C31   A    
H33   N5    S    
C5    C54   A    
C28   C32   A    
H32   N4    S    
C21   H2    S    
C47   C49   A    
C5    C7    A    
C25   N1    A    
C6    C8    A    
C45   C52   A    
C18   H9    S    
C22   N1    A    
C30   C37   A    
C46   H6    S    
C51   C53   A    
C2    C4    A    
C1    C54   S    
C1    O3    A    
C38   N14   S    
H11   N8    S    
C9    C18   A    
C17   O8    A    
C23   C51   A    
C31   C32   A    
C20   H42   S    
H22   N13   S    
C10   C19   A    
C4    I1    S    
H18   N11   S    
C33   N12   S    
C19   H10   S    
C9    C56   A    
C1    O1    A    
C43   C45   S    
C26   N7    A    
H27   N2    S    
Cu1   O4    S    
C12   O2    A    
C3    I2    S    
C25   H39   S    
C20   C22   A    
C4    C55   A    
C31   C35   A    
C21   C24   A    
C2    C10   A    
C52   H8    S    
Cu1   O1    S    
C7    C9    A    
C22   H41   S    
C26   C28   A    
H25   N14   S    
C24   N7    A    
C25   C27   A    
C21   C30   A    
C34   C52   A    
C56   H1    S    
C32   C33   A    
C28   C30   A    
H35   N5    S    
Cu1   O8    S    
C38   C40   A    
H30   N3    S    
C11   C13   A    
Cu1   Cu2   S    
C48   C50   A    
Cu2   O3    S    
C43   C46   A    
C12   C55   S    
C51   H7    S    
H37   N6    S    
C40   H3    S    
Cu1   O5    S    
C17   O6    A    
C39   C50   A    
C34   C53   A    
C8    C10   A    
H21   N12   S    
Cu2   N1    S    
C14   H23   S    
C2    H12   S    
C49   N8    S    
C5    N6    S    
