data_mof_unit_14817.cif
_audit_creation_date              2012-12-10T16:57:48-0500
_audit_creation_method            fapswitch 2.2
_symmetry_space_group_name_H-M    P1
_symmetry_Int_Tables_number       1
_space_group_crystal_system       triclinic
_cell_length_a                    10.640888
_cell_length_b                    10.918063
_cell_length_c                    9.690053
_cell_angle_alpha                 89.856712
_cell_angle_beta                  89.878847
_cell_angle_gamma                 90.094319
_cell_volume                      1125.76229615

loop_
_atom_site_label
_atom_site_type_symbol
_atom_type_description
_atom_site_fract_x
_atom_site_fract_y
_atom_site_fract_z
_atom_type_partial_charge
C1    C     C_R   0.502209 0.265456 0.499782 0.927737
C2    C     C_3   0.958893 0.488340 0.368974 -0.152814
C3    C     C_3   0.041988 0.394369 0.446465 -0.201756
C4    C     C_3   0.122541 0.500573 0.500577 -0.117275
C5    C     C_2   0.541414 0.939018 0.386913 0.394825
C6    C     C_2   0.525790 0.867094 0.499760 -0.471500
C7    C     C_2   0.570928 0.068730 0.409066 0.390589
C8    C     C_2   0.498395 0.133361 0.496382 -0.482514
C9    C     C_2   0.427261 0.429579 0.922469 -0.031990
C10   C     C_2   0.425001 0.431836 0.078209 0.035327
C11   C     C_R   0.259351 0.500335 0.500171 0.831018
C12   C     C_R   0.504507 0.735158 0.499233 0.935713
C13   C     C_R   0.740646 0.499900 0.499810 0.858868
C14   C     C_3   0.040391 0.512077 0.630574 -0.208049
C15   C     C_3   0.957933 0.405701 0.576486 -0.078324
C16   C     C_3   0.877352 0.499907 0.499276 -0.049443
C17   C     C_3   0.957302 0.606410 0.553515 -0.223318
C18   C     C_3   0.040650 0.593127 0.424699 0.457965
Cu1   Cu    Cu3+1 0.500030 0.500020 0.638630 0.988336
Cu2   Cu    Cu3+1 0.499970 0.499980 0.361370 1.093906
H1    H     H_    0.920860 0.328565 0.639435 0.180012
H2    H     H_    0.423924 0.089298 0.555336 0.131505
H3    H     H_    0.364084 0.366266 0.871371 0.151959
H4    H     H_    0.556474 0.561170 0.893641 0.212018
H5    H     H_    0.357631 0.372767 0.129953 0.147903
H6    H     H_    0.564942 0.552500 0.105703 0.224175
H7    H     H_    0.075921 0.521466 0.737677 0.185049
H8    H     H_    0.920242 0.693565 0.595955 0.179136
H9    H     H_    0.923650 0.479598 0.261680 0.185053
H10   H     H_    0.079175 0.307636 0.403084 0.172972
H11   H     H_    0.538157 0.907207 0.601498 0.137906
N1    N     N_2   0.498620 0.498660 0.846910 -0.280049
N2    N     N_2   0.498590 0.498630 0.153040 -0.251161
O1    O     O_R   0.500020 0.321960 0.617040 -0.583553
O2    O     O_R   0.499980 0.321920 0.382900 -0.539504
O3    O     O_R   0.316870 0.499990 0.617050 -0.590922
O4    O     O_R   0.316830 0.499950 0.382910 -0.557249
O5    O     O_R   0.500020 0.678080 0.617100 -0.588827
O6    O     O_R   0.499980 0.678040 0.382960 -0.489781
O7    O     O_R   0.683170 0.500050 0.617090 -0.590776
O8    O     O_R   0.683130 0.500010 0.382950 -0.558787
S1    S     S_3+6 0.095983 0.717557 0.322190 0.030361
O9    O     O_2   0.180134 0.797813 0.407564 -0.284159
O10   O     O_2   0.167828 0.668292 0.200782 -0.263334
O11   O     O_3   0.972376 0.799001 0.265952 -0.487614
H12   H     H_    0.008291 0.858406 0.199226 0.384220
S2    S     S_3+6 0.521994 0.890213 0.212926 0.079298
O12   O     O_2   0.625925 0.803214 0.175477 -0.263841
O13   O     O_2   0.397242 0.827315 0.196459 -0.220770
O14   O     O_3   0.526400 0.011023 0.105075 -0.487455
H13   H     H_    0.521288 0.975391 0.011341 0.368441
S3    S     S_3+6 0.706885 0.131800 0.328475 0.055882
O15   O     O_2   0.669544 0.211365 0.208623 -0.241811
O16   O     O_2   0.778183 0.207504 0.431260 -0.351841
O17   O     O_3   0.799894 0.018424 0.271315 -0.460915
H14   H     H_    0.871750 0.060540 0.226456 0.369158

loop_
_geom_bond_atom_site_label_1
_geom_bond_atom_site_label_2
_ccdc_geom_bond_type
C7    S3    S    
C3    H10   S    
C8    H2    S    
O17   H14   S    
H4    N1    S    
Cu1   O5    S    
C14   H7    S    
S2    O14   S    
C1    C8    S    
C2    C16   S    
C9    C10   S    
H6    N2    S    
Cu1   Cu2   S    
S3    O17   S    
C4    C18   S    
C17   H8    S    
C12   O6    A    
C13   O8    A    
C17   C18   S    
C7    C8    D    
S2    O13   D    
O11   H12   S    
C4    C11   S    
C12   O5    A    
Cu2   O4    S    
C5    S2    S    
C14   C17   S    
S1    O10   D    
C2    H9    S    
Cu2   N2    S    
C10   H5    S    
C11   O3    A    
S3    O16   D    
C1    O1    A    
Cu2   O8    S    
C10   N2    D    
C2    C3    S    
Cu1   O3    S    
C18   S1    S    
C4    C14   S    
C5    C6    D    
C2    C18   S    
S1    O9    D    
Cu1   N1    S    
C15   C16   S    
C6    C12   S    
C15   H1    S    
C3    C15   S    
S3    O15   D    
C1    O2    A    
C5    C7    S    
Cu1   O7    S    
C13   C16   S    
C11   O4    A    
Cu2   O6    S    
C14   C15   S    
C9    H3    S    
C13   O7    A    
C6    H11   S    
C9    N1    D    
O14   H13   S    
Cu2   O2    S    
Cu1   O1    S    
C3    C4    S    
C16   C17   S    
S2    O12   D    
S1    O11   S    
