data_mof_unit_22956.cif
_audit_creation_date              2012-12-10T20:28:45-0500
_audit_creation_method            fapswitch 2.2
_symmetry_space_group_name_H-M    P1
_symmetry_Int_Tables_number       1
_space_group_crystal_system       triclinic
_cell_length_a                    10.753442
_cell_length_b                    10.698965
_cell_length_c                    9.865805
_cell_angle_alpha                 90.26483
_cell_angle_beta                  90.228133
_cell_angle_gamma                 88.143505
_cell_volume                      1134.45151674

loop_
_atom_site_label
_atom_site_type_symbol
_atom_type_description
_atom_site_fract_x
_atom_site_fract_y
_atom_site_fract_z
_atom_type_partial_charge
C1    C     C_R   0.497003 0.260231 0.499753 0.880440
C2    C     C_R   0.471411 0.936082 0.376238 -0.204853
C3    C     C_R   0.489637 0.872527 0.499229 -0.092643
C4    C     C_R   0.260144 0.509153 0.500171 0.898192
C5    C     C_R   0.481013 0.937801 0.621301 0.112490
C6    C     C_3   0.561365 0.930966 0.744863 -0.510112
C7    C     C_3   0.556574 0.072783 0.745221 -0.433199
C8    C     C_R   0.391281 0.515690 0.070763 0.194058
C9    C     C_R   0.608543 0.495612 0.072235 -0.142012
C10   C     C_R   0.608556 0.495637 0.928490 -0.121888
C11   C     C_R   0.391390 0.515024 0.928203 0.122040
C12   C     C_R   0.057705 0.613493 0.575283 0.035243
C13   C     C_3   0.281461 0.433686 0.921030 0.138806
C14   C     C_3   0.280955 0.434555 0.075504 0.123624
C15   C     C_R   0.503399 0.740089 0.499950 0.857421
C16   C     C_R   0.739589 0.500166 0.500370 0.885076
C17   C     C_R   0.110434 0.717365 0.644542 0.049923
C18   C     C_R   0.039205 0.787101 0.740829 0.515308
C19   C     C_R   0.912099 0.773505 0.744723 -0.185533
C20   C     C_R   0.856022 0.689300 0.659211 -0.302824
C21   C     C_R   0.927580 0.602910 0.579663 0.029495
C22   C     C_3   0.228458 0.773321 0.599945 -0.889052
C23   C     C_R   0.127003 0.521231 0.499229 -0.103720
C24   C     C_3   0.884172 0.312576 0.350786 -0.879588
C25   C     C_R   0.069241 0.427635 0.426443 -0.164438
C26   C     C_R   0.942041 0.419825 0.426141 0.153424
C27   C     C_R   0.871647 0.508142 0.501792 -0.089359
C28   C     C_R   0.476381 0.065207 0.621459 0.171137
C29   C     C_R   0.480860 0.129375 0.499278 -0.114527
C30   C     C_R   0.466830 0.065182 0.376272 -0.230367
H1    H     H_    0.124899 0.357469 0.372017 0.153139
H2    H     H_    0.755954 0.693433 0.659108 0.188319
H3    H     H_    0.460764 0.113567 0.280122 0.177605
H4    H     H_    0.467524 0.887157 0.280012 0.180032
H5    H     H_    0.512803 0.889810 0.832490 0.210071
H6    H     H_    0.235045 0.268504 0.866950 0.332939
H7    H     H_    0.107052 0.442542 0.120735 0.331396
H8    H     H_    0.216486 0.876716 0.593515 0.249144
H9    H     H_    0.300018 0.750621 0.677161 0.255758
H10   H     H_    0.254963 0.743310 0.496381 0.238570
H11   H     H_    0.179329 0.860776 0.833649 0.336029
H12   H     H_    0.655382 0.890335 0.723480 0.200226
H13   H     H_    0.823076 0.260723 0.419815 0.232622
H14   H     H_    0.829091 0.348376 0.263215 0.249738
H15   H     H_    0.955602 0.244927 0.310657 0.232131
H16   H     H_    0.505202 0.113790 0.833209 0.238551
H17   H     H_    0.648163 0.114126 0.724649 0.199919
H18   H     H_    0.696167 0.490530 0.126038 0.160315
H19   H     H_    0.696172 0.490219 0.875164 0.158233
H20   H     H_    0.199108 0.480398 0.871597 0.135715
H21   H     H_    0.300358 0.342613 0.125231 0.133772
H22   H     H_    0.855692 0.832503 0.811284 0.167110
N1    N     N_R   0.499160 0.499140 0.142800 -0.130668
N2    N     N_R   0.499160 0.499180 0.857150 -0.081266
O1    O     O_R   0.500020 0.316790 0.614690 -0.571050
O2    O     O_3   0.177008 0.500506 0.127506 -0.752031
O3    O     O_3   0.088560 0.877015 0.824385 -0.774233
O4    O     O_R   0.500000 0.316760 0.385350 -0.632517
O5    O     O_R   0.316770 0.500020 0.614690 -0.599552
O6    O     O_R   0.316760 0.499980 0.385350 -0.584005
O7    O     O_R   0.500000 0.683240 0.614650 -0.639479
O8    O     O_R   0.499980 0.683210 0.385310 -0.615924
O9    O     O_R   0.683240 0.500020 0.614650 -0.644847
O10   O     O_R   0.683230 0.499980 0.385310 -0.620216
O11   O     O_3   0.313115 0.315405 0.867489 -0.750098
Zn1   Zn    Zn3+2 0.500010 0.500020 0.653130 0.968608
Zn2   Zn    Zn3+2 0.499990 0.499980 0.346870 0.963379

loop_
_geom_bond_atom_site_label_1
_geom_bond_atom_site_label_2
_ccdc_geom_bond_type
C8    N1    A    
C25   H1    S    
C14   O2    S    
O10   Zn2   S    
C6    C7    S    
N2    Zn1   S    
C16   O9    A    
C10   H19   S    
C5    C28   A    
C9    C10   A    
C21   C27   A    
C18   O3    S    
C19   C20   A    
C20   H2    S    
C17   C22   S    
C2    C30   A    
C22   H10   S    
C2    H4    S    
C16   C27   S    
C1    C29   S    
C2    C3    A    
C15   O7    A    
O9    Zn1   S    
H11   O3    S    
C13   O11   S    
C1    O4    A    
C6    H5    S    
C12   C17   A    
C11   C13   S    
C12   C23   A    
C4    O6    A    
C26   C27   A    
C29   C30   A    
C11   N2    A    
C12   C21   A    
O8    Zn2   S    
C8    C11   A    
C24   H14   S    
C24   H15   S    
O7    Zn1   S    
C4    O5    A    
C28   C29   A    
C15   O8    A    
C24   C26   S    
C17   C18   A    
C23   C25   A    
O5    Zn1   S    
C1    O1    A    
C5    C6    S    
N1    Zn2   S    
C9    N1    A    
C22   H9    S    
C10   N2    A    
C13   H20   S    
C22   H8    S    
C7    H16   S    
O4    Zn2   S    
O1    Zn1   S    
C3    C15   S    
C20   C21   A    
C9    H18   S    
C18   C19   A    
C6    H12   S    
C24   H13   S    
C4    C23   S    
H6    O11   S    
C8    C14   S    
C16   O10   A    
C30   H3    S    
C25   C26   A    
C13   C14   S    
H7    O2    S    
C19   H22   S    
C7    C28   S    
C14   H21   S    
O6    Zn2   S    
C3    C5    A    
C7    H17   S    
