data_mof_unit_65152.cif
_audit_creation_date              2012-12-10T20:43:44-0500
_audit_creation_method            fapswitch 2.2
_symmetry_space_group_name_H-M    P1
_symmetry_Int_Tables_number       1
_space_group_crystal_system       triclinic
_cell_length_a                    10.84194
_cell_length_b                    19.241795
_cell_length_c                    19.210483
_cell_angle_alpha                 94.863892
_cell_angle_beta                  92.205371
_cell_angle_gamma                 96.92667
_cell_volume                      3959.27378778

loop_
_atom_site_label
_atom_site_type_symbol
_atom_type_description
_atom_site_fract_x
_atom_site_fract_y
_atom_site_fract_z
_atom_type_partial_charge
C1    C     C_R   0.514675 0.690099 0.508807 0.790685
C2    C     C_R   0.524446 0.767247 0.513257 -0.042710
C3    C     C_R   0.640337 0.809148 0.510150 -0.024707
C4    C     C_R   0.485298 0.309643 0.492220 0.800021
C5    C     C_R   0.644902 0.882062 0.511236 -0.233472
C6    C     C_R   0.487599 0.511861 0.765752 0.000684
C7    C     C_R   0.542655 0.462581 0.802387 -0.221858
C8    C     C_R   0.546578 0.467730 0.875126 -0.167768
C9    C     C_R   0.495536 0.522665 0.912747 0.320715
C10   C     C_R   0.442162 0.572314 0.876179 -0.193472
C11   C     C_R   0.436915 0.566680 0.803159 -0.211523
C12   C     C_R   0.576200 0.202284 0.517964 -0.231503
C13   C     C_R   0.561524 0.543185 0.127632 -0.164527
C14   C     C_R   0.564535 0.546789 0.200551 -0.221722
C15   C     C_R   0.511012 0.480628 0.087754 0.319319
C16   C     C_R   0.512733 0.492572 0.310883 0.798694
C17   C     C_R   0.515931 0.488443 0.234376 0.000104
C18   C     C_R   0.467556 0.425930 0.194451 -0.202214
C19   C     C_R   0.466787 0.421942 0.121746 -0.190235
C20   C     C_R   0.487683 0.507186 0.688990 0.789869
C21   C     C_R   0.835018 0.516101 0.515966 0.873342
C22   C     C_R   0.163672 0.484681 0.484923 0.841338
C23   C     C_R   0.569680 0.129920 0.520398 -0.163990
C24   C     C_2   0.028342 0.477499 0.478899 -0.178586
C25   C     C_2   0.968458 0.520632 0.520037 -0.347918
C26   C     C_R   0.474780 0.232410 0.491279 -0.050502
C27   C     C_1   0.962022 0.423885 0.428744 0.214962
C28   C     C_1   0.255081 0.215591 0.441416 0.192891
C29   C     C_1   0.756216 0.779159 0.507731 0.184028
C30   C     C_R   0.460500 0.085706 0.496252 0.306608
C31   C     C_R   0.359008 0.115453 0.469967 -0.234175
C32   C     C_R   0.364869 0.188168 0.466990 -0.031216
C33   C     C_R   0.421187 0.872506 0.519610 -0.162076
C34   C     C_R   0.415883 0.799760 0.519393 -0.239460
C35   C     C_R   0.536175 0.914117 0.514414 0.304906
H1    H     H_    0.661292 0.234875 0.537025 0.173708
H2    H     H_    0.018082 0.561052 0.557228 0.161152
H3    H     H_    0.326340 0.768644 0.522344 0.168359
H4    H     H_    0.335558 0.895952 0.523670 0.155933
H5    H     H_    0.649907 0.108948 0.541691 0.155578
H6    H     H_    0.733547 0.914323 0.508641 0.146272
H7    H     H_    0.274657 0.081489 0.451944 0.146734
H8    H     H_    0.602646 0.595440 0.230392 0.166151
H9    H     H_    0.599105 0.588890 0.102540 0.152174
H10   H     H_    0.403595 0.615143 0.904413 0.145345
H11   H     H_    0.395058 0.605769 0.776075 0.167253
H12   H     H_    0.430734 0.379987 0.219464 0.168264
H13   H     H_    0.590740 0.429227 0.901833 0.153144
H14   H     H_    0.429430 0.373305 0.091633 0.146348
H15   H     H_    0.582967 0.419991 0.774843 0.169301
N1    N     N_2   0.448192 0.011520 0.498105 -0.194299
N2    N     N_2   0.547421 0.988178 0.512914 -0.196574
N3    N     N_2   0.498540 0.530191 0.986954 -0.200271
N4    N     N_2   0.506319 0.473940 0.013694 -0.202324
N5    N     N_1   0.909124 0.381150 0.388796 -0.201207
N6    N     N_1   0.167018 0.237482 0.420955 -0.180363
N7    N     N_1   0.849067 0.755180 0.505822 -0.199656
O1    O     O_3   0.500000 0.500000 0.500000 -0.486786
O2    O     O_R   0.783160 0.551820 0.473170 -0.626425
O3    O     O_R   0.222430 0.530340 0.530340 -0.643105
O4    O     O_R   0.771990 0.472690 0.551320 -0.634964
O5    O     O_R   0.222420 0.445150 0.445160 -0.633315
O6    O     O_R   0.435070 0.449940 0.339290 -0.643343
O7    O     O_R   0.419380 0.543640 0.654290 -0.644618
O8    O     O_R   0.586230 0.658380 0.469080 -0.634919
O9    O     O_R   0.559310 0.348040 0.537340 -0.641783
O10   O     O_R   0.435110 0.654980 0.544320 -0.642495
O11   O     O_R   0.419350 0.338590 0.449260 -0.634367
O12   O     O_R   0.586210 0.538520 0.349230 -0.639833
O13   O     O_R   0.559330 0.467910 0.657200 -0.647015
Zn1   Zn    Zn3+2 0.396020 0.434560 0.434560 0.993614
Zn2   Zn    Zn3+2 0.611960 0.561120 0.448760 0.990419
Zn3   Zn    Zn3+2 0.595990 0.448060 0.560420 0.975559
Zn4   Zn    Zn3+2 0.396040 0.556260 0.556260 0.967822

loop_
_geom_bond_atom_site_label_1
_geom_bond_atom_site_label_2
_ccdc_geom_bond_type
C30   N1    S    
C26   C32   A    
C31   H7    S    
C1    C2    S    
C24   C27   S    
C18   H12   S    
C28   N6    T    
C7    C8    A    
N3    N4    D    
C15   C19   A    
C12   C23   A    
C33   H4    S    
C21   O2    A    
C22   O3    A    
C30   C31   A    
C27   N5    T    
O1    Zn1   S    
C23   H5    S    
C23   C30   A    
C18   C19   A    
C3    C29   S    
C21   C25   S    
C33   C35   A    
C16   C17   S    
C1    O8    A    
C16   O6    A    
C12   H1    S    
C9    C10   A    
C21   O4    A    
O2    Zn2   S    
C25   H2    S    
C2    C34   A    
C13   C14   A    
C14   C17   A    
C20   O13   A    
O13   Zn3   S    
C33   C34   A    
N1    N2    D    
C15   N4    S    
C28   C32   S    
C24   C25   D    
C6    C11   A    
C4    O11   A    
C8    C9    A    
O4    Zn3   S    
O9    Zn3   S    
C12   C26   A    
C20   O7    A    
O12   Zn2   S    
C8    H13   S    
C22   O5    A    
C19   H14   S    
C31   C32   A    
C10   H10   S    
C17   C18   A    
O10   Zn4   S    
C29   N7    T    
C13   C15   A    
C22   C24   S    
C9    N3    S    
O1    Zn4   S    
C5    H6    S    
C34   H3    S    
C16   O12   A    
C7    H15   S    
O6    Zn1   S    
C3    C5    A    
C4    C26   S    
C6    C7    A    
O8    Zn2   S    
C6    C20   S    
C2    C3    A    
C4    O9    A    
O1    Zn2   S    
O11   Zn1   S    
C5    C35   A    
O3    Zn4   S    
C1    O10   A    
O5    Zn1   S    
C10   C11   A    
C35   N2    S    
O7    Zn4   S    
C11   H11   S    
C13   H9    S    
O1    Zn3   S    
C14   H8    S    
