data_mof_unit_64011.cif
_audit_creation_date              2012-12-11T16:21:23-0500
_audit_creation_method            fapswitch 2.2
_symmetry_space_group_name_H-M    P1
_symmetry_Int_Tables_number       1
_space_group_crystal_system       triclinic
_cell_length_a                    8.275378
_cell_length_b                    16.496728
_cell_length_c                    17.341526
_cell_angle_alpha                 108.299804
_cell_angle_beta                  84.530076
_cell_angle_gamma                 97.218869
_cell_volume                      2225.9368688

loop_
_atom_site_label
_atom_site_type_symbol
_atom_type_description
_atom_site_fract_x
_atom_site_fract_y
_atom_site_fract_z
_atom_type_partial_charge
Ba1   Ba    Ba6+2 0.638770 0.457640 0.528600 1.618036
Ba2   Ba    Ba6+2 0.171410 0.542370 0.471460 1.621905
C1    C     C_3   0.695387 0.238983 0.778095 -0.357869
C2    C     C_R   0.111112 0.247169 0.478201 -0.307579
C3    C     C_2   0.520927 0.858026 0.582569 -0.132478
C4    C     C_3   0.361586 0.221186 0.636456 0.344580
C5    C     C_2   0.548478 0.774738 0.556853 0.091087
C6    C     C_2   0.817280 0.806555 0.492293 0.002284
C7    C     C_3   0.769079 0.894084 0.497652 -0.049519
C8    C     C_3   0.647583 0.927478 0.569886 -0.001530
C9    C     C_2   0.907150 0.961840 0.493263 -0.085841
C10   C     C_2   0.876820 0.033559 0.478781 -0.077922
C11   C     C_R   0.148479 0.072631 0.419039 0.006878
C12   C     C_3   0.795951 0.252646 0.703623 0.341666
C13   C     C_R   0.007788 0.099413 0.467027 -0.049367
C14   C     C_R   0.268804 0.131414 0.398764 -0.013172
C15   C     C_R   0.251728 0.220226 0.430664 0.062023
C16   C     C_3   0.355330 0.128307 0.635568 -0.354769
C17   C     C_R   0.987048 0.187692 0.494241 0.024790
C18   C     C_R   0.070461 0.456793 0.711769 -0.262089
C19   C     C_R   0.947717 0.510566 0.747060 0.076101
C20   C     C_R   0.902359 0.526718 0.830247 -0.122972
C21   C     C_R   0.984403 0.492147 0.878127 -0.004974
C22   C     C_R   0.119928 0.446830 0.843813 -0.136323
C23   C     C_3   0.957500 0.280224 0.310347 0.311525
C24   C     C_R   0.165992 0.431464 0.760891 0.027558
C25   C     C_R   0.906555 0.484848 0.161891 -0.133071
C26   C     C_R   0.852991 0.490887 0.242255 0.033102
C27   C     C_R   0.631072 0.570386 0.233083 0.014582
C28   C     C_3   0.285311 0.708490 0.746319 0.327117
C29   C     C_R   0.684763 0.565512 0.151772 -0.003983
C30   C     C_R   0.825424 0.522793 0.116489 0.011058
C31   C     C_1   0.884406 0.513182 0.032814 -0.004045
C32   C     C_1   0.931310 0.504292 0.962614 -0.006687
C33   C     C_R   0.719627 0.536058 0.278064 -0.296284
C34   C     C_3   0.945485 0.183574 0.270617 -0.396837
C35   C     C_3   0.278011 0.769919 0.834479 -0.193645
C36   C     C_3   0.488032 0.354655 0.276968 0.311532
C37   C     C_3   0.519582 0.331651 0.185152 -0.402916
C38   C     C_3   0.846686 0.716921 0.669724 0.291004
C39   C     C_3   0.850004 0.813388 0.709286 -0.400896
C40   C     C_3   0.129904 0.749089 0.887924 -0.499907
C41   C     C_3   0.968576 0.233460 0.707170 -0.334637
C42   C     C_3   0.402677 0.096553 0.336752 -0.372400
C43   C     C_3   0.591502 0.605176 0.104375 -0.374518
C44   C     C_3   0.310484 0.617747 0.742661 -0.287656
C45   C     C_3   0.486529 0.777491 0.345714 0.365941
C46   C     C_3   0.490870 0.866224 0.336145 -0.372962
C47   C     C_3   0.999463 0.729807 0.294110 0.366385
C48   C     C_3   0.043340 0.751353 0.215247 -0.368157
C49   C     C_2   0.703873 0.748959 0.511809 -0.294353
H1    H     H_    0.794176 0.320783 0.707148 0.072036
H2    H     H_    0.944021 0.704399 0.620186 0.071198
H3    H     H_    0.571800 0.257319 0.780243 0.166738
H4    H     H_    0.747666 0.827972 0.756128 0.135603
H5    H     H_    0.838394 0.845547 0.663047 0.066363
H6    H     H_    0.967206 0.839176 0.738523 0.112508
H7    H     H_    0.751654 0.279659 0.834731 0.076203
H8    H     H_    0.083215 0.302579 0.330412 0.015576
H9    H     H_    0.868923 0.294150 0.363953 0.067103
H10   H     H_    0.036228 0.167170 0.218102 0.124463
H11   H     H_    0.970087 0.151563 0.315127 0.060980
H12   H     H_    0.273445 0.836644 0.832147 0.108737
H13   H     H_    0.821010 0.159576 0.249169 0.122778
H14   H     H_    0.685772 0.170676 0.776206 0.113867
H15   H     H_    0.232190 0.105839 0.657329 0.095280
H16   H     H_    0.411038 0.776363 0.402189 0.093038
H17   H     H_    0.613749 0.765689 0.351540 -0.063473
H18   H     H_    0.365063 0.884221 0.339456 0.150603
H19   H     H_    0.558179 0.914261 0.385357 0.069557
H20   H     H_    0.552398 0.866979 0.276755 0.111150
H21   H     H_    0.865155 0.730180 0.306727 -0.067141
H22   H     H_    0.034521 0.664473 0.285457 0.077104
H23   H     H_    0.391090 0.769555 0.864198 0.119725
H24   H     H_    0.965411 0.708464 0.166970 0.068339
H25   H     H_    0.172989 0.741865 0.195616 0.149529
H26   H     H_    0.478889 0.240117 0.609174 0.138058
H27   H     H_    0.023606 0.818947 0.223718 0.115342
H28   H     H_    0.412918 0.877823 0.621291 0.092004
H29   H     H_    0.730611 0.683532 0.501055 0.070441
H30   H     H_    0.094776 0.314816 0.499741 0.074534
H31   H     H_    0.030799 0.953645 0.502756 0.101730
H32   H     H_    0.751396 0.043067 0.473949 0.110995
H33   H     H_    0.009471 0.449111 0.134198 0.082129
H34   H     H_    0.604265 0.379101 0.306656 0.011246
H35   H     H_    0.189672 0.424096 0.881199 0.079143
H36   H     H_    0.266989 0.225511 0.597664 -0.028380
H37   H     H_    0.804878 0.566642 0.857555 0.075314
H38   H     H_    0.103456 0.442560 0.647323 0.070817
H39   H     H_    0.677801 0.539491 0.339949 0.065670
H40   H     H_    0.381400 0.086885 0.572366 0.091945
H41   H     H_    0.446950 0.121946 0.675338 0.145945
H42   H     H_    0.172479 0.709703 0.717898 0.067884
H43   H     H_    0.015351 0.739541 0.857065 0.169911
H44   H     H_    0.142417 0.690893 0.905532 0.134278
H45   H     H_    0.403143 0.405139 0.296753 0.074986
H46   H     H_    0.121267 0.803564 0.944980 0.136716
H47   H     H_    0.974817 0.163332 0.689544 0.119229
H48   H     H_    0.045366 0.260462 0.664191 0.050288
H49   H     H_    0.013920 0.263618 0.768906 0.100701
H50   H     H_    0.391398 0.025369 0.317720 0.097358
H51   H     H_    0.394775 0.116068 0.281674 0.123186
H52   H     H_    0.524086 0.120044 0.361099 0.161622
H53   H     H_    0.644751 0.597875 0.041792 0.106219
H54   H     H_    0.464039 0.574595 0.099409 0.130007
H55   H     H_    0.591048 0.674943 0.136092 0.125206
H56   H     H_    0.615382 0.286744 0.164665 0.131862
H57   H     H_    0.266190 0.574097 0.683389 0.062907
H58   H     H_    0.442682 0.612267 0.742000 0.155243
H59   H     H_    0.250369 0.599697 0.795576 0.033847
H60   H     H_    0.560120 0.390012 0.167091 0.064325
H61   H     H_    0.405957 0.300659 0.154431 0.125491
H62   H     H_    0.726877 0.691388 0.644377 0.033601
O1    O     O_2   0.563480 0.287900 0.421550 -0.457821
O2    O     O_2   0.290941 0.557860 0.237729 -0.485874
O3    O     O_3   0.417519 0.716375 0.277404 -0.598396
O4    O     O_3   0.344560 0.396140 0.441010 -0.491602
O5    O     O_3   0.942720 0.544140 0.599330 -0.491741
O6    O     O_2   0.129060 0.458130 0.306750 -0.455228
O7    O     O_3   0.921602 0.319140 0.253545 -0.642584
O8    O     O_2   0.153388 0.811236 0.507552 -0.498496
O9    O     O_3   0.084155 0.790598 0.357317 -0.594616
O10   O     O_3   0.805120 0.340890 0.569250 -0.483938
O11   O     O_2   0.659296 0.190623 0.487660 -0.513679
O12   O     O_3   0.872355 0.679609 0.729045 -0.654431
O13   O     O_3   0.419681 0.280741 0.295764 -0.638580
O14   O     O_3   0.728675 0.196227 0.632205 -0.611218
O15   O     O_2   0.681260 0.541920 0.693290 -0.464108
O16   O     O_3   0.399420 0.384560 0.615960 -0.490513
O17   O     O_2   0.505370 0.427970 0.764343 -0.490502
O18   O     O_3   0.340272 0.275198 0.716509 -0.629120
O19   O     O_2   0.246830 0.712160 0.578490 -0.482307
O20   O     O_3   0.465730 0.603870 0.559050 -0.482412
O21   O     O_3   0.005180 0.659120 0.430820 -0.479577
O22   O     O_3   0.421075 0.737961 0.705337 -0.658949
O23   O     O_3   0.867570 0.455870 0.400730 -0.480452
O24   O     O_3   0.410870 0.615450 0.384100 -0.485916
P1    P     P_3+3 0.397200 0.301470 0.401420 0.978033
P2    P     P_3+3 0.862850 0.568080 0.686620 0.969386
P3    P     P_3+3 0.354672 0.381979 0.715634 0.926608
P4    P     P_3+3 0.413100 0.698540 0.598650 0.970562
P5    P     P_3+3 0.438238 0.613989 0.282409 0.943934
P6    P     P_3+3 0.797193 0.229360 0.546404 0.912421
P7    P     P_3+3 0.940849 0.430581 0.298569 0.949226
P8    P     P_3+3 0.016591 0.769289 0.448336 0.942435

loop_
_geom_bond_atom_site_label_1
_geom_bond_atom_site_label_2
_ccdc_geom_bond_type
C35   H23   S    
O4    P1    S    
O7    P7    S    
C41   H47   S    
C46   H18   S    
O24   P5    S    
O17   P3    D    
Ba2   O5    S    
O12   P2    S    
C37   H56   S    
Ba2   O21   S    
C16   H40   S    
C25   H33   S    
O15   P2    D    
C41   H48   S    
C28   H42   S    
C24   P3    S    
C36   C37   S    
C1    H3    S    
Ba1   O20   S    
C47   O9    S    
Ba1   Ba2   S    
O9    P8    S    
C35   C40   S    
C49   H29   S    
C39   H4    S    
O18   P3    S    
C36   O13   S    
C2    C17   A    
C42   H52   S    
C12   H1    S    
C2    H30   S    
C38   H62   S    
C26   C33   A    
C6    C7    S    
C47   H21   S    
C44   H57   S    
Ba2   O19   S    
C21   C22   A    
Ba1   O15   S    
O11   P6    D    
C15   P1    S    
C26   P7    S    
C23   H9    S    
C20   H37   S    
C3    H28   S    
Ba1   O23   S    
O13   P1    S    
C7    C8    S    
C14   C42   S    
Ba1   P2    S    
C37   H60   S    
O2    P5    D    
C19   C20   A    
O6    P7    D    
C1    H14   S    
C34   H11   S    
C48   H27   S    
C45   H16   S    
C35   H12   S    
Ba2   O4    S    
C43   H54   S    
C9    H31   S    
C45   O3    S    
C4    C16   S    
Ba2   O20   S    
C36   H34   S    
C40   H44   S    
C41   H49   S    
C40   H46   S    
C3    C5    D    
C42   H51   S    
C14   C15   A    
C4    H26   S    
Ba1   O4    S    
Ba2   O23   S    
C4    H36   S    
C10   H32   S    
C13   C17   A    
Ba1   O10   S    
C39   H5    S    
C1    H7    S    
C43   H53   S    
C48   H25   S    
C45   C46   S    
C10   C13   S    
C42   H50   S    
C21   C32   S    
C6    P8    S    
O10   P6    S    
C31   C32   T    
O14   P6    S    
C7    C9    S    
C6    C49   D    
C1    C12   S    
O3    P5    S    
C2    C15   A    
C37   H61   S    
C47   C48   S    
C44   H59   S    
C47   H22   S    
C11   C14   A    
Ba1   O1    S    
C19   P2    S    
C46   H20   S    
C27   P5    S    
C34   H10   S    
C23   O7    S    
C45   H17   S    
C5    P4    S    
C43   H55   S    
O19   P4    D    
O21   P8    S    
C38   C39   S    
C17   P6    S    
C25   C30   A    
C40   H43   S    
Ba2   O24   S    
O20   P4    S    
C28   C44   S    
C29   C30   A    
C22   C24   A    
C46   H19   S    
C4    O18   S    
C9    C10   D    
C38   H2    S    
C16   H15   S    
C18   H38   S    
C27   C33   A    
Ba1   O16   S    
C16   H41   S    
C30   C31   S    
C11   C13   A    
C5    C49   S    
C3    C8    S    
O23   P7    S    
C48   H24   S    
O16   P3    S    
C18   C24   A    
C38   O12   S    
Ba2   O6    S    
O8    P8    D    
Ba1   O5    S    
O1    P1    D    
C12   O14   S    
C23   C34   S    
C39   H6    S    
C33   H39   S    
O22   P4    S    
C18   C19   A    
C28   C35   S    
C27   C29   A    
C28   O22   S    
C29   C43   S    
C44   H58   S    
C36   H45   S    
C25   C26   A    
Ba2   P4    S    
C20   C21   A    
C23   H8    S    
C34   H13   S    
C22   H35   S    
Ba1   P1    S    
O5    P2    S    
C12   C41   S    
