data_mof_unit_65279.cif
_audit_creation_date              2012-12-10T20:19:48-0500
_audit_creation_method            fapswitch 2.2
_symmetry_space_group_name_H-M    P1
_symmetry_Int_Tables_number       1
_space_group_crystal_system       triclinic
_cell_length_a                    27.034714
_cell_length_b                    26.77834
_cell_length_c                    18.578491
_cell_angle_alpha                 91.066286
_cell_angle_beta                  90.746963
_cell_angle_gamma                 91.144667
_cell_volume                      13443.5791567

loop_
_atom_site_label
_atom_site_type_symbol
_atom_type_description
_atom_site_fract_x
_atom_site_fract_y
_atom_site_fract_z
_atom_type_partial_charge
C1    C     C_R   0.066779 0.432895 0.499834 1.045099
C2    C     C_R   0.712398 0.329385 0.491008 0.348649
C3    C     C_R   0.533772 0.969101 0.037624 0.474731
C4    C     C_R   0.000668 0.499568 0.841621 -0.236776
C5    C     C_R   0.000423 0.499475 0.158408 -0.238713
C6    C     C_R   0.500670 0.999566 0.841621 -0.236787
C7    C     C_R   0.500423 0.999472 0.158407 -0.238706
C8    C     C_R   0.093224 0.616886 0.505567 -0.341786
C9    C     C_R   0.891839 0.395143 0.497675 -0.339812
C10   C     C_R   0.892545 0.601301 0.499633 -0.345343
C11   C     C_R   0.101644 0.392975 0.499302 -0.355058
C12   C     C_R   0.593240 0.116871 0.505573 -0.341701
C13   C     C_R   0.746865 0.291042 0.594811 0.355239
C14   C     C_R   0.391790 0.895190 0.497655 -0.339810
C15   C     C_R   0.392557 0.101314 0.499631 -0.345347
C16   C     C_R   0.601627 0.892957 0.499303 -0.355063
C17   C     C_R   0.174873 0.792667 0.486085 0.372958
C18   C     C_R   0.753824 0.717367 0.434044 0.366482
C19   C     C_R   0.221577 0.257826 0.565969 0.365521
C20   C     C_R   0.218687 0.254725 0.434188 0.365697
C21   C     C_R   0.757607 0.721324 0.565766 0.365415
C22   C     C_R   0.710701 0.253175 0.590986 0.353254
C23   C     C_R   0.212310 0.829434 0.490709 0.348661
C24   C     C_R   0.246682 0.791238 0.594678 0.355224
C25   C     C_R   0.932921 0.566902 0.500013 1.039874
C26   C     C_R   0.674945 0.292635 0.486370 0.372927
C27   C     C_R   0.253879 0.217423 0.434062 0.366491
C28   C     C_R   0.721505 0.757750 0.565953 0.365510
C29   C     C_R   0.718625 0.754663 0.434172 0.365686
C30   C     C_R   0.257674 0.221395 0.565783 0.365426
C31   C     C_R   0.754795 0.320205 0.533548 -0.143612
C32   C     C_R   0.177633 0.751518 0.531577 -0.151894
C33   C     C_R   0.203090 0.275064 0.500141 -0.149945
C34   C     C_R   0.773945 0.701734 0.499769 -0.149251
C35   C     C_R   0.254667 0.820325 0.533361 -0.143588
C36   C     C_R   0.932240 0.432444 0.499164 1.051666
C37   C     C_R   0.677746 0.251422 0.531746 -0.151873
C38   C     C_R   0.703023 0.774996 0.500126 -0.149924
C39   C     C_R   0.274000 0.201792 0.499787 -0.149266
C40   C     C_R   0.000482 0.499325 0.077066 -0.216093
C41   C     C_R   0.000845 0.499602 0.922964 -0.216390
C42   C     C_R   0.500483 0.999322 0.077066 -0.216090
C43   C     C_R   0.500846 0.999600 0.922964 -0.216389
C44   C     C_R   0.956703 0.493091 0.726021 0.398370
C45   C     C_R   0.993257 0.456008 0.272407 0.395151
C46   C     C_R   0.043611 0.506889 0.727238 0.390333
C47   C     C_R   0.065499 0.569441 0.501154 1.045827
C48   C     C_R   0.006808 0.543768 0.274408 0.391941
C49   C     C_R   0.456703 0.993090 0.726021 0.398372
C50   C     C_R   0.493254 0.956008 0.272408 0.395171
C51   C     C_R   0.543611 0.006889 0.727238 0.390288
C52   C     C_R   0.506813 0.043766 0.274406 0.391925
C53   C     C_R   0.956670 0.490000 0.801774 0.272438
C54   C     C_R   0.990778 0.455323 0.196423 0.273138
C55   C     C_R   0.044345 0.509379 0.803251 0.271528
C56   C     C_R   0.009814 0.543891 0.198620 0.272611
C57   C     C_R   0.456672 0.989999 0.801775 0.272441
C58   C     C_R   0.566779 0.932895 0.499835 1.045111
C59   C     C_R   0.490775 0.955322 0.196424 0.273143
C60   C     C_R   0.544346 0.009377 0.803250 0.271530
C61   C     C_R   0.509819 0.043887 0.198618 0.272597
C62   C     C_R   0.133992 0.625665 0.460887 0.327668
C63   C     C_R   0.889863 0.358062 0.550569 0.337125
C64   C     C_R   0.855575 0.394298 0.442072 0.341357
C65   C     C_R   0.078157 0.654365 0.555248 0.315624
C66   C     C_R   0.901685 0.651776 0.484473 0.312738
C67   C     C_R   0.152180 0.404030 0.509540 0.293784
C68   C     C_R   0.084164 0.343610 0.488780 0.300898
C69   C     C_R   0.432921 0.066902 0.500012 1.039878
C70   C     C_R   0.844345 0.583181 0.512322 0.299071
C71   C     C_R   0.634054 0.125610 0.460983 0.327611
C72   C     C_R   0.389758 0.858113 0.550552 0.337213
C73   C     C_R   0.355544 0.894376 0.442020 0.341302
C74   C     C_R   0.578171 0.154359 0.555229 0.315590
C75   C     C_R   0.401711 0.151780 0.484440 0.312780
C76   C     C_R   0.652169 0.903988 0.509539 0.293798
C77   C     C_R   0.584124 0.843598 0.488792 0.300854
C78   C     C_R   0.344354 0.083216 0.512351 0.299069
C79   C     C_R   0.160845 0.670773 0.467998 0.374632
C80   C     C_R   0.432229 0.932453 0.499161 1.051660
C81   C     C_R   0.848402 0.326236 0.553370 0.374719
C82   C     C_R   0.814511 0.362099 0.447041 0.379242
C83   C     C_R   0.104148 0.699817 0.560269 0.417637
C84   C     C_R   0.862639 0.684956 0.485671 0.391410
C85   C     C_R   0.185739 0.365146 0.509265 0.394386
C86   C     C_R   0.117509 0.304652 0.490257 0.402988
C87   C     C_R   0.805093 0.616158 0.511774 0.409066
C88   C     C_R   0.660949 0.170689 0.468155 0.374641
C89   C     C_R   0.348266 0.826323 0.553319 0.374664
C90   C     C_R   0.314461 0.862199 0.446938 0.379277
C91   C     C_R   0.565500 0.069439 0.501154 1.045846
C92   C     C_R   0.604205 0.199783 0.560310 0.417613
C93   C     C_R   0.362680 0.184976 0.485652 0.391405
C94   C     C_R   0.685710 0.865088 0.509257 0.394325
C95   C     C_R   0.617451 0.804623 0.490257 0.403023
C96   C     C_R   0.305116 0.116207 0.511811 0.409077
C97   C     C_R   0.146180 0.707261 0.518414 -0.138832
C98   C     C_R   0.805827 0.337259 0.512192 -0.144503
C99   C     C_R   0.814547 0.666947 0.499265 -0.145645
C100  C     C_R   0.168138 0.315625 0.500171 -0.142416
C101  C     C_R   0.646274 0.207190 0.518533 -0.138863
C102  C     C_R   0.210531 0.753357 0.590875 0.353206
C103  C     C_R   0.305720 0.837368 0.512081 -0.144458
C104  C     C_R   0.314586 0.166989 0.499280 -0.145656
C105  C     C_R   0.668087 0.815573 0.500161 -0.142398
C106  C     C_R   0.030815 0.466070 0.961969 0.475879
C107  C     C_R   0.967369 0.529647 0.037862 0.476258
C108  C     C_R   0.970754 0.533024 0.962605 0.475148
C109  C     C_R   0.033773 0.469107 0.037625 0.474738
C110  C     C_R   0.530814 0.966066 0.961968 0.475886
C111  C     C_R   0.467372 0.029646 0.037861 0.476268
C112  C     C_R   0.470757 0.033023 0.962605 0.475141
Cl1   Cl    Cl    0.899667 0.489726 0.679540 -0.345223
Cl2   Cl    Cl    0.974523 0.399148 0.149560 -0.314877
Cl3   Cl    Cl    0.099986 0.525878 0.849732 -0.318437
Cl4   Cl    Cl    0.026394 0.599760 0.154775 -0.318163
Cl5   Cl    Cl    0.401416 0.973121 0.846047 -0.317618
Cl6   Cl    Cl    0.474516 0.899148 0.149562 -0.314862
Cl7   Cl    Cl    0.599988 0.025874 0.849731 -0.318453
Cl8   Cl    Cl    0.526405 0.099753 0.154771 -0.318210
Cl9   Cl    Cl    0.153689 0.579238 0.399261 -0.327559
Cl10  Cl    Cl    0.939567 0.349003 0.611670 -0.342797
Cl11  Cl    Cl    0.858719 0.434137 0.367150 -0.346212
Cl12  Cl    Cl    0.988820 0.399047 0.317607 -0.335339
Cl13  Cl    Cl    0.026533 0.645849 0.612090 -0.391100
Cl14  Cl    Cl    0.961717 0.673576 0.463020 -0.361674
Cl15  Cl    Cl    0.173409 0.466586 0.521466 -0.341657
Cl16  Cl    Cl    0.020534 0.330407 0.473662 -0.368107
Cl17  Cl    Cl    0.832634 0.518856 0.525754 -0.402861
Cl18  Cl    Cl    0.653751 0.079164 0.399405 -0.327614
Cl19  Cl    Cl    0.439433 0.849011 0.611691 -0.342623
Cl20  Cl    Cl    0.358735 0.934224 0.367108 -0.346338
Cl21  Cl    Cl    0.526502 0.145879 0.611987 -0.391193
Cl22  Cl    Cl    0.461738 0.173551 0.462919 -0.361525
Cl23  Cl    Cl    0.100058 0.511568 0.681604 -0.341108
Cl24  Cl    Cl    0.673427 0.966534 0.521478 -0.341532
Cl25  Cl    Cl    0.520483 0.830423 0.473712 -0.368175
Cl26  Cl    Cl    0.332622 0.018897 0.525800 -0.402929
Cl27  Cl    Cl    0.214105 0.680962 0.415474 -0.321074
Cl28  Cl    Cl    0.856648 0.265946 0.588856 -0.288812
Cl29  Cl    Cl    0.783815 0.342727 0.366086 -0.289788
Cl30  Cl    Cl    0.084556 0.747555 0.620074 -0.293884
Cl31  Cl    Cl    0.873966 0.749216 0.470523 -0.301912
Cl32  Cl    Cl    0.249824 0.378415 0.519630 -0.301716
Cl33  Cl    Cl    0.095919 0.242071 0.480075 -0.299646
Cl34  Cl    Cl    0.010380 0.601259 0.321629 -0.345376
Cl35  Cl    Cl    0.744013 0.593888 0.525946 -0.298434
Cl36  Cl    Cl    0.714285 0.180819 0.415772 -0.321134
Cl37  Cl    Cl    0.356431 0.766044 0.588878 -0.288959
Cl38  Cl    Cl    0.283850 0.842799 0.365930 -0.289717
Cl39  Cl    Cl    0.584634 0.247522 0.620128 -0.293967
Cl40  Cl    Cl    0.374026 0.249227 0.470474 -0.301914
Cl41  Cl    Cl    0.749801 0.878327 0.519620 -0.301722
Cl42  Cl    Cl    0.595833 0.742050 0.480075 -0.299630
Cl43  Cl    Cl    0.244032 0.093965 0.526018 -0.298475
Cl44  Cl    Cl    0.207986 0.707948 0.658567 -0.305965
Cl45  Cl    Cl    0.399667 0.989723 0.679542 -0.345185
Cl46  Cl    Cl    0.701272 0.389588 0.457451 -0.273485
Cl47  Cl    Cl    0.772531 0.309212 0.679637 -0.279821
Cl48  Cl    Cl    0.125600 0.797698 0.423554 -0.277842
Cl49  Cl    Cl    0.773662 0.691009 0.351567 -0.315970
Cl50  Cl    Cl    0.200136 0.282604 0.648524 -0.317038
Cl51  Cl    Cl    0.195203 0.277036 0.351740 -0.316648
Cl52  Cl    Cl    0.783545 0.701391 0.648022 -0.313632
Cl53  Cl    Cl    0.708182 0.207694 0.658591 -0.305925
Cl54  Cl    Cl    0.201171 0.889601 0.457035 -0.273482
Cl55  Cl    Cl    0.272306 0.809486 0.679491 -0.279792
Cl56  Cl    Cl    0.488816 0.899047 0.317609 -0.335338
Cl57  Cl    Cl    0.625597 0.297770 0.423975 -0.277859
Cl58  Cl    Cl    0.273702 0.191050 0.351588 -0.315964
Cl59  Cl    Cl    0.700057 0.782520 0.648510 -0.317055
Cl60  Cl    Cl    0.695144 0.776978 0.351725 -0.316644
Cl61  Cl    Cl    0.283617 0.201467 0.648038 -0.313624
Cl62  Cl    Cl    0.600059 0.011566 0.681602 -0.341145
Cl63  Cl    Cl    0.510391 0.101258 0.321623 -0.345318
Cl64  Cl    Cl    0.901414 0.473122 0.846045 -0.317660
H1    H     H_    0.046192 0.423762 0.878876 0.365230
H2    H     H_    0.924877 0.544526 0.119298 0.365562
H3    H     H_    0.956002 0.575854 0.881560 0.365698
H4    H     H_    0.075664 0.453709 0.120317 0.364099
H5    H     H_    0.546191 0.923759 0.878874 0.365231
H6    H     H_    0.424882 0.044528 0.119298 0.365570
H7    H     H_    0.456007 0.075853 0.881559 0.365692
H8    H     H_    0.575661 0.953699 0.120317 0.364095
N1    N     N_R   1.000000 0.500000 0.689440 -0.215364
N2    N     N_R   1.000000 0.500000 0.310560 -0.219437
N3    N     N_R   0.500000 0.000000 0.689440 -0.215377
N4    N     N_R   0.500000 0.000000 0.310560 -0.219430
O1    O     O_R   0.050900 0.449080 0.560840 -0.573879
O2    O     O_R   0.449100 0.050920 0.439160 -0.577741
O3    O     O_R   0.449100 0.050920 0.560840 -0.564198
O4    O     O_R   0.550900 0.949080 0.439160 -0.576747
O5    O     O_R   0.449100 0.949080 0.439160 -0.558961
O6    O     O_R   0.550900 0.050920 0.560840 -0.563147
O7    O     O_R   0.550900 0.050920 0.439160 -0.562245
O8    O     O_R   0.449100 0.949080 0.560840 -0.562859
O9    O     O_3   0.058999 0.430205 0.928360 -0.575852
O10   O     O_3   0.931628 0.557870 0.071040 -0.575144
O11   O     O_3   0.942762 0.569044 0.929858 -0.575130
O12   O     O_R   0.949100 0.550920 0.439160 -0.577755
O13   O     O_3   0.069320 0.440727 0.070800 -0.576764
O14   O     O_3   0.558996 0.930199 0.928359 -0.575856
O15   O     O_3   0.431632 0.057872 0.071040 -0.575140
O16   O     O_3   0.442767 0.069045 0.929858 -0.575136
O17   O     O_3   0.569316 0.940717 0.070799 -0.576767
O18   O     O_R   0.949100 0.550920 0.560840 -0.564190
O19   O     O_R   0.050900 0.449080 0.439160 -0.576751
O20   O     O_R   0.949100 0.449080 0.439160 -0.558959
O21   O     O_R   0.050900 0.550920 0.560840 -0.563105
O22   O     O_R   0.050900 0.550920 0.439160 -0.562258
O23   O     O_R   0.949100 0.449080 0.560840 -0.562879
O24   O     O_R   0.550900 0.949080 0.560840 -0.573886
Zn1   Zn    Zn3+2 1.000000 0.500000 0.581210 1.137414
Zn2   Zn    Zn3+2 1.000000 0.500000 0.418790 1.133884
Zn3   Zn    Zn3+2 0.500000 0.000000 0.581210 1.137397
Zn4   Zn    Zn3+2 0.500000 0.000000 0.418790 1.133899

loop_
_geom_bond_atom_site_label_1
_geom_bond_atom_site_label_2
_ccdc_geom_bond_type
C81   Cl28  S    
C15   C75   A    
C94   C105  A    
C41   C108  A    
C12   C74   A    
C4    C53   A    
C9    C64   A    
C68   C86   A    
C5    C56   A    
C79   Cl27  S    
C111  C112  A    
C1    C11   S    
C90   Cl38  S    
C50   N4    A    
C69   O3    A    
C88   C101  A    
C76   Cl24  S    
C75   Cl22  S    
C39   C104  S    
C3    C42   A    
C80   O5    A    
C75   C93   A    
C17   C23   A    
C87   Cl35  S    
C72   Cl19  S    
C63   C81   A    
C50   C59   A    
O4    Zn4   S    
C77   Cl25  S    
C73   C90   A    
C35   C103  S    
C52   C61   A    
C81   C98   A    
C18   Cl49  S    
C45   N2    A    
C7    C42   S    
C96   Cl43  S    
C4    C41   S    
C3    C110  A    
C74   Cl21  S    
N2    Zn2   S    
C49   C57   A    
C32   C97   S    
C93   C104  A    
C60   Cl7   S    
C48   C56   A    
C16   C77   A    
C36   O20   A    
C31   C98   S    
C74   C92   A    
C17   Cl48  S    
C13   C31   A    
C7    C61   A    
C95   C105  A    
C76   C94   A    
C46   Cl23  S    
C22   Cl53  S    
C52   Cl63  S    
C44   C53   A    
H5    O14   S    
C26   Cl57  S    
C78   C96   A    
C48   Cl34  S    
C29   C38   A    
C13   C22   A    
C9    C36   S    
O12   Zn2   S    
C107  C108  A    
C22   C37   A    
C43   C110  A    
C14   C80   S    
C86   C100  A    
C68   Cl16  S    
C30   Cl61  S    
C44   N1    A    
O3    Zn3   S    
C89   Cl37  S    
H2    O10   S    
C73   Cl20  S    
C8    C65   A    
C29   Cl60  S    
C21   Cl52  S    
C9    C63   A    
C89   C103  A    
C61   Cl8   S    
C82   C98   A    
C6    C57   A    
C49   Cl45  S    
C82   Cl29  S    
C80   O8    A    
C70   C87   A    
C78   Cl26  S    
C85   Cl32  S    
C7    C59   A    
C11   C67   A    
C87   C99   A    
C10   C66   A    
C45   Cl12  S    
N4    Zn4   S    
C15   C69   S    
N3    Zn3   S    
C67   C85   A    
C24   C35   A    
C41   C106  A    
H6    O15   S    
C3    O17   S    
C14   C73   A    
C6    C60   A    
C62   C79   A    
C24   Cl55  S    
C51   N3    A    
H4    O13   S    
C19   C33   A    
C27   C39   A    
O6    Zn3   S    
O8    Zn3   S    
C21   C34   A    
C84   Cl31  S    
O22   Zn2   S    
C20   Cl51  S    
C77   C95   A    
C70   Cl17  S    
O21   Zn1   S    
H8    O17   S    
C66   Cl14  S    
C2    C31   A    
C19   Cl50  S    
C65   Cl13  S    
C46   C55   A    
C51   Cl62  S    
C37   C101  S    
C42   C111  A    
C48   N2    A    
C67   Cl15  S    
C83   Cl30  S    
C23   Cl54  S    
C91   O7    A    
C5    C54   A    
C28   Cl59  S    
C49   N3    A    
O24   Zn3   S    
C28   C38   A    
C2    Cl46  S    
C92   Cl39  S    
C34   C99   S    
C56   Cl4   S    
C12   C91   S    
C2    C26   A    
C18   C29   A    
C16   C58   S    
C18   C34   A    
C27   Cl58  S    
C64   C82   A    
O7    Zn4   S    
O1    Zn1   S    
C92   C101  A    
C40   C107  A    
C20   C33   A    
C10   C70   A    
C10   C25   S    
O23   Zn1   S    
C12   C71   A    
C44   Cl1   S    
C59   Cl6   S    
C23   C35   A    
C6    C43   S    
C106  O9    S    
C4    C55   A    
C58   O4    A    
C32   C102  A    
C47   O22   A    
C43   C112  A    
H7    O16   S    
C111  O15   S    
C25   O18   A    
C86   Cl33  S    
C102  Cl44  S    
C63   Cl10  S    
C11   C68   A    
O18   Zn1   S    
O5    Zn4   S    
C57   Cl5   S    
C91   O6    A    
C96   C104  A    
O20   Zn2   S    
H3    O11   S    
C16   C76   A    
C84   C99   A    
C14   C72   A    
C21   C28   A    
C69   O2    A    
C45   C54   A    
C107  O10   S    
C26   C37   A    
C79   C97   A    
C40   C109  A    
C20   C27   A    
C58   O24   A    
C64   Cl11  S    
C110  O14   S    
C95   Cl42  S    
C33   C100  S    
C108  O11   S    
C47   O21   A    
C8    C47   S    
C25   O12   A    
C71   Cl18  S    
C50   Cl56  S    
C72   C89   A    
C88   Cl36  S    
C55   Cl3   S    
C38   C105  S    
C94   Cl41  S    
C54   Cl2   S    
C109  O13   S    
N1    Zn1   S    
C30   C39   A    
C24   C102  A    
O19   Zn2   S    
C46   N1    A    
C1    O19   A    
C90   C103  A    
C65   C83   A    
C36   O23   A    
C66   C84   A    
C71   C88   A    
C15   C78   A    
C83   C97   A    
C5    C40   S    
C85   C100  A    
C17   C32   A    
C112  O16   S    
C93   Cl40  S    
H1    O9    S    
C51   C60   A    
C52   N4    A    
C19   C30   A    
O2    Zn4   S    
C13   Cl47  S    
C62   Cl9   S    
C53   Cl64  S    
C8    C62   A    
C106  C109  A    
C1    O1    A    
