data_mof_unit_38857.cif
_audit_creation_date              2012-12-10T19:11:28-0500
_audit_creation_method            fapswitch 2.2
_symmetry_space_group_name_H-M    P1
_symmetry_Int_Tables_number       1
_space_group_crystal_system       triclinic
_cell_length_a                    10.702768
_cell_length_b                    9.822289
_cell_length_c                    10.558881
_cell_angle_alpha                 90.547385
_cell_angle_beta                  90.492025
_cell_angle_gamma                 88.745587
_cell_volume                      1109.65391458

loop_
_atom_site_label
_atom_site_type_symbol
_atom_type_description
_atom_site_fract_x
_atom_site_fract_y
_atom_site_fract_z
_atom_type_partial_charge
C1    C     C_R   0.258157 0.501094 0.496233 0.934031
C2    C     C_3   0.502064 0.497304 0.123788 -0.061443
C3    C     C_3   0.073211 0.519368 0.634603 0.051334
C4    C     C_3   0.075416 0.363044 0.439826 0.061109
C5    C     C_3   0.929808 0.541756 0.633016 -0.086501
C6    C     C_3   0.935213 0.350347 0.463648 -0.124452
C7    C     C_3   0.066535 0.618666 0.413790 -0.380948
C8    C     C_3   0.121840 0.501927 0.495684 -0.024862
C9    C     C_3   0.879462 0.495429 0.500688 0.054206
C10   C     C_3   0.924925 0.600232 0.401068 -0.472742
C11   C     C_3   0.389659 0.082232 0.428047 -0.304603
C12   C     C_3   0.387836 0.921328 0.431075 -0.342037
C13   C     C_3   0.610209 0.077512 0.430625 -0.286962
C14   C     C_3   0.608120 0.916449 0.426839 -0.264496
C15   C     C_3   0.500942 0.083103 0.630431 0.365300
C16   C     C_3   0.505233 0.917516 0.630046 0.375087
C17   C     C_R   0.501416 0.499188 0.257987 0.916648
C18   C     C_R   0.742406 0.498385 0.498580 0.851588
C19   C     C_R   0.499060 0.500596 0.742162 0.989329
C20   C     C_3   0.402151 0.567225 0.042264 0.035636
C21   C     C_3   0.498254 0.371821 0.037516 0.086847
C22   C     C_3   0.395421 0.440261 0.956878 0.265217
C23   C     C_3   0.499311 0.501262 0.876699 -0.130939
C24   C     C_3   0.503536 0.630980 0.960701 -0.141235
C25   C     C_3   0.602856 0.429038 0.955617 -0.247875
C26   C     C_3   0.603177 0.556520 0.041467 0.071562
H1    H     H_    0.878423 0.701899 0.413011 0.201601
H2    H     H_    0.902415 0.563233 0.304033 0.207341
H3    H     H_    0.390872 0.115728 0.327812 0.194514
H4    H     H_    0.384084 0.881572 0.332062 0.193463
H5    H     H_    0.300742 0.125409 0.464643 0.177012
H6    H     H_    0.299722 0.886588 0.472898 0.173122
H7    H     H_    0.613388 0.116626 0.332168 0.179747
H8    H     H_    0.604636 0.881030 0.326421 0.173990
H9    H     H_    0.698418 0.110839 0.475372 0.188581
H10   H     H_    0.698206 0.874711 0.463444 0.198793
H11   H     H_    0.507455 0.738561 0.931433 0.193637
H12   H     H_    0.686603 0.372722 0.920221 0.206943
H13   H     H_    0.097101 0.424082 0.686050 0.207008
H14   H     H_    0.124541 0.276627 0.487789 0.162721
H15   H     H_    0.907343 0.652594 0.644793 0.216407
H16   H     H_    0.887541 0.313132 0.376053 0.183626
H17   H     H_    0.085267 0.718917 0.459288 0.214162
H18   H     H_    0.109529 0.620191 0.318511 0.205803
N1    N     N_3   0.499750 0.138610 0.497240 -0.067231
N2    N     N_3   0.499750 0.861390 0.497240 -0.066698
O1    O     O_R   0.314910 0.616040 0.499970 -0.597493
O2    O     O_R   0.314910 0.383960 0.499970 -0.625610
O3    O     O_R   0.500080 0.616020 0.313900 -0.618291
O4    O     O_R   0.500080 0.383980 0.313900 -0.619589
O5    O     O_R   0.685320 0.616040 0.499930 -0.611699
O6    O     O_R   0.685320 0.383960 0.499930 -0.629555
O7    O     O_R   0.500150 0.616060 0.686000 -0.564131
O8    O     O_R   0.500150 0.383940 0.686000 -0.559434
Zn1   Zn    Zn3+2 0.500150 0.654960 0.499940 0.981689
Zn2   Zn    Zn3+2 0.500150 0.345040 0.499940 0.975308
Br1   Br    Br    0.243117 0.352894 0.903932 -0.513590
Br2   Br    Br    0.646027 0.152543 0.726605 -0.524729
Br3   Br    Br    0.659772 0.840936 0.712221 -0.512572
N3    N     N_3   0.392636 0.140978 0.699424 -0.381493
H19   H     H_    0.399528 0.117752 0.795575 0.206230
H20   H     H_    0.306754 0.107739 0.665788 0.159141
N4    N     N_3   0.403173 0.861687 0.704799 -0.378650
H21   H     H_    0.412031 0.892242 0.799333 0.178419
H22   H     H_    0.314737 0.892097 0.673275 0.186490
N5    N     N_3   0.294959 0.643012 0.092651 -0.444740
H23   H     H_    0.243995 0.681373 0.015584 0.250048
H24   H     H_    0.238218 0.573086 0.136931 0.229448
N6    N     N_3   0.496551 0.231704 0.081350 -0.431281
H25   H     H_    0.503627 0.168286 0.001665 0.222960
H26   H     H_    0.408512 0.216200 0.119932 0.223749
N7    N     N_3   0.715644 0.619263 0.090805 -0.443530
H27   H     H_    0.764409 0.655835 0.013309 0.221906
H28   H     H_    0.771126 0.541221 0.129602 0.180469
Br4   Br    Br    0.148408 0.667395 0.731854 -0.563281
Br5   Br    Br    0.114837 0.335104 0.260468 -0.576671
N8    N     N_3   0.872641 0.469476 0.738099 -0.424473
H29   H     H_    0.915935 0.499861 0.822632 0.240684
H30   H     H_    0.779709 0.503138 0.745974 0.187018
N9    N     N_3   0.922041 0.248889 0.563805 -0.431569
H31   H     H_    0.932958 0.151670 0.523471 0.192919
H32   H     H_    0.833975 0.253663 0.602478 0.282560

loop_
_geom_bond_atom_site_label_1
_geom_bond_atom_site_label_2
_ccdc_geom_bond_type
C10   H1    S    
C7    C10   S    
N5    H24   S    
N4    H22   S    
C1    C8    S    
C26   N7    S    
C15   N3    S    
C4    C8    S    
C22   Br1   S    
C18   O6    A    
C7    C8    S    
C14   N2    S    
N8    H29   S    
C13   H7    S    
C20   N5    S    
C24   C26   S    
C13   H9    S    
C14   H10   S    
C15   C16   S    
N3    H20   S    
N6    H26   S    
C21   C25   S    
C20   C24   S    
N1    Zn2   S    
N2    Zn1   S    
C23   C24   S    
C16   N4    S    
C7    H17   S    
C3    Br4   S    
C9    C10   S    
N7    H27   S    
C19   O7    A    
N8    H30   S    
N5    H23   S    
C11   H5    S    
C21   C22   S    
C12   H6    S    
C2    C17   S    
C6    C9    S    
C18   O5    A    
O7    Zn1   S    
O8    Zn2   S    
C2    C20   S    
C4    H14   S    
N7    H28   S    
C3    C8    S    
C17   O3    A    
C1    O1    A    
C25   C26   S    
O3    Zn1   S    
O4    Zn2   S    
C21   N6    S    
N3    H19   S    
C16   Br3   S    
C19   C23   S    
C5    C9    S    
C25   H12   S    
C6    N9    S    
C2    C21   S    
C24   H11   S    
C2    C26   S    
C7    H18   S    
C19   O8    A    
C12   N2    S    
C20   C22   S    
C16   N2    S    
C15   Br2   S    
C11   N1    S    
C4    C6    S    
C15   N1    S    
C5    N8    S    
O1    Zn1   S    
C10   H2    S    
O2    Zn2   S    
C5    H15   S    
C12   H4    S    
N9    H31   S    
C3    C5    S    
C17   O4    A    
C14   H8    S    
C11   C12   S    
C1    O2    A    
C13   N1    S    
N9    H32   S    
O5    Zn1   S    
C23   C25   S    
N6    H25   S    
C4    Br5   S    
C3    H13   S    
N4    H21   S    
C9    C18   S    
C11   H3    S    
C6    H16   S    
C22   C23   S    
C13   C14   S    
O6    Zn2   S    
