data_mof_unit_31249.cif
_audit_creation_date              2013-03-05T16:34:04-0500
_audit_creation_method            fapswitch 2.2
_symmetry_space_group_name_H-M    P1
_symmetry_Int_Tables_number       1
_space_group_crystal_system       triclinic
_cell_length_a                    9.555201
_cell_length_b                    10.862738
_cell_length_c                    17.061924
_cell_angle_alpha                 89.504197
_cell_angle_beta                  94.454626
_cell_angle_gamma                 89.768624
_cell_volume                      1765.51781884

loop_
_atom_site_label
_atom_site_type_symbol
_atom_site_description
_atom_site_fract_x
_atom_site_fract_y
_atom_site_fract_z
_atom_type_partial_charge
O1    O     O_R   0.618810 0.319640 0.500000 -0.555933
O2    O     O_R   0.381230 0.319680 0.499990 -0.576053
C1    C     C_R   0.500233 0.262661 0.500110 0.908881
O3    O     O_R   0.631790 0.498830 0.613930 -0.583369
O4    O     O_R   0.394210 0.498870 0.613920 -0.557005
C2    C     C_R   0.517982 0.496480 0.650784 0.862410
Cu1   Cu    Cu3+1 0.640670 0.499980 0.500000 1.020951
Cu2   Cu    Cu3+1 0.359330 0.500020 0.500000 1.051049
O5    O     O_R   0.618770 0.680320 0.500010 -0.589587
O6    O     O_R   0.381190 0.680360 0.500000 -0.605954
O7    O     O_R   0.605790 0.501130 0.386080 -0.581675
O8    O     O_R   0.368210 0.501170 0.386070 -0.522490
C3    C     C_R   0.499590 0.737203 0.499696 0.792669
C4    C     C_R   0.482128 0.498346 0.349370 0.885034
C5    C     C_R   0.528864 0.495529 0.736732 -0.100848
C6    C     C_R   0.434971 0.426606 0.779037 0.346077
C7    C     C_R   0.441173 0.434835 0.860551 -0.143872
C8    C     C_R   0.540761 0.511539 0.901266 0.311104
C9    C     C_R   0.636587 0.576226 0.858956 -0.138725
C10   C     C_R   0.631236 0.568091 0.777300 -0.243652
C11   C     C_R   0.537733 0.571505 0.139828 -0.143186
C12   C     C_R   0.544264 0.575957 0.221271 -0.245211
C13   C     C_R   0.459617 0.479027 0.099275 0.247373
N1    N     N_2   0.547649 0.526008 0.984152 -0.214674
N2    N     N_2   0.455479 0.467636 0.016398 -0.172079
C14   C     C_R   0.471870 0.489779 0.263755 -0.140122
H1    H     H_    0.605262 0.647697 0.251382 0.176331
H2    H     H_    0.594433 0.640161 0.108738 0.197205
H3    H     H_    0.714416 0.634525 0.889374 0.180168
H4    H     H_    0.704509 0.621332 0.745591 0.181815
C15   C     C_R   0.392582 0.396290 0.224242 0.256425
C16   C     C_R   0.385800 0.391985 0.141440 0.232313
H5    H     H_    0.367467 0.381199 0.891612 0.223977
C17   C     C_R   0.621162 0.060751 0.512240 0.037327
C18   C     C_R   0.499285 0.129970 0.497331 -0.071151
C19   C     C_R   0.373010 0.065462 0.479242 -0.069684
H6    H     H_    0.275107 0.114336 0.465563 0.224438
C20   C     C_R   0.372304 0.936199 0.479212 -0.161918
H7    H     H_    0.273825 0.889053 0.465749 0.169577
C21   C     C_R   0.498013 0.869712 0.497286 -0.057668
C22   C     C_R   0.620184 0.936500 0.512392 -0.008489
C23   C     C_3   0.770028 0.922885 0.542676 -0.490753
C24   C     C_3   0.773195 0.064855 0.542158 0.545629
H8    H     H_    0.780671 0.880500 0.602409 0.208918
H9    H     H_    0.834975 0.879606 0.499214 0.197071
C25   C     C_R   0.068124 0.597572 0.469151 0.131473
N3    N     N_R   0.147870 0.500930 0.499500 -0.192477
C26   C     C_R   0.080101 0.410457 0.537927 0.062816
H10   H     H_    0.139987 0.336557 0.567366 0.193090
C27   C     C_R   0.931350 0.410726 0.538083 0.053612
H11   H     H_    0.880244 0.337873 0.568128 0.185994
N4    N     N_R   0.851960 0.500890 0.499500 -0.188553
C28   C     C_R   0.921242 0.598647 0.470638 0.179068
C29   C     C_3   0.897967 0.653145 0.390343 -0.491096
C30   C     C_3   0.056496 0.648629 0.386616 0.117763
H12   H     H_    0.838839 0.591560 0.348112 0.249674
H13   H     H_    0.855812 0.748448 0.391141 0.173774
H14   H     H_    0.105234 0.740889 0.381481 0.118579
N5    N     N_R   0.798841 0.116803 0.620985 0.095730
O9    O     O_R   0.920234 0.100689 0.659841 -0.285162
O10   O     O_R   0.701960 0.179201 0.653003 -0.362805
N6    N     N_R   0.866678 0.115415 0.485886 0.099397
O11   O     O_R   0.816656 0.171328 0.421888 -0.310689
O12   O     O_R   0.001667 0.099996 0.498210 -0.363738
N7    N     N_R   0.096834 0.561398 0.327505 0.174753
O13   O     O_R   0.157311 0.601839 0.266680 -0.340302
O14   O     O_R   0.055755 0.447349 0.329328 -0.262723
N8    N     N_R   0.323570 0.303696 0.267769 0.171691
O15   O     O_R   0.196235 0.269825 0.245640 -0.205848
O16   O     O_R   0.393201 0.243530 0.324424 -0.370621
N9    N     N_R   0.312105 0.294172 0.100048 0.168461
O17   O     O_R   0.339155 0.179961 0.119523 -0.259249
O18   O     O_R   0.224936 0.318474 0.039421 -0.286895
Cl1   Cl    Cl    0.311391 0.325048 0.732916 -0.538361

loop_
_geom_bond_atom_site_label_1
_geom_bond_atom_site_label_2
_geom_bond_distance
_ccdc_geom_bond_type
C22   C23   1.490276 S    
C9    C10   1.393754 A    
Cu1   Cu2   2.688259 S    
C10   H4    1.083547 S    
C28   C29   1.488067 S    
Cu1   O7    1.946304 S    
C7    H5    1.082719 S    
C8    N1    1.420731 S    
C19   H6    1.082307 S    
Cu1   N4    2.019663 S    
C17   C18   1.389198 A    
O4    C2    1.295728 A    
O7    C4    1.294246 A    
C5    C6    1.408232 A    
C8    C9    1.397272 A    
O5    C3    1.293055 A    
C3    C21   1.439635 S    
N6    O12   1.300573 A    
C2    C5    1.461976 S    
C25   N3    1.368826 A    
C18   C19   1.412390 A    
C6    C7    1.391096 A    
N7    O14   1.301939 A    
C25   C30   1.504887 S    
C27   N4    1.368709 A    
C24   N5    1.466425 S    
C26   C27   1.421554 A    
N5    O9    1.300966 A    
C11   C12   1.387396 A    
C15   N8    1.437551 S    
C17   C22   1.349761 A    
C23   H8    1.111939 S    
O3    Cu1   1.952222 S    
C30   N7    1.462043 S    
C27   H11   1.078193 S    
C16   N9    1.437127 S    
C5    C10   1.402760 A    
C29   H12   1.110893 S    
N5    O10   1.301797 A    
N3    C26   1.369297 A    
N1    N2    1.246643 D    
O3    C2    1.297991 A    
N9    O18   1.301207 A    
N8    O15   1.301145 A    
O1    C1    1.293378 A    
C23   H9    1.109594 S    
N6    O11   1.301827 A    
C15   C16   1.410398 A    
C1    C18   1.442627 S    
Cu2   O8    1.952223 S    
C7    C8    1.412827 A    
C4    C14   1.460227 S    
Cu2   O6    1.970929 S    
C26   H10   1.081116 S    
C11   H2    1.082676 S    
O8    C4    1.297623 A    
C12   H1    1.083979 S    
C11   C13   1.408162 A    
C6    Cl1   1.764044 S    
C23   C24   1.542564 S    
C9    H3    1.083049 S    
N4    C28   1.362231 A    
Cu1   O5    1.969293 S    
C29   C30   1.521644 S    
C21   C22   1.385233 A    
O1    Cu1   1.970929 S    
O2    Cu2   1.969294 S    
C17   C24   1.502879 S    
O6    C3    1.291395 A    
O4    Cu2   1.946304 S    
C13   C16   1.407653 A    
C19   C20   1.404197 A    
O2    C1    1.292494 A    
Cu2   N3    2.019881 S    
N9    O17   1.301283 A    
C20   C21   1.411066 A    
C20   H7    1.082982 S    
C25   C28   1.405680 A    
C13   N2    1.418014 S    
C14   C15   1.413706 A    
N8    O16   1.299951 A    
N7    O13   1.300492 A    
C12   C14   1.397007 A    
C30   H14   1.112450 S    
C24   N6    1.466090 S    
C29   H13   1.109909 S    
