data_mof_unit_40862.cif
_audit_creation_date              2013-03-05T16:04:07-0500
_audit_creation_method            fapswitch 2.2
_symmetry_space_group_name_H-M    P1
_symmetry_Int_Tables_number       1
_space_group_crystal_system       triclinic
_cell_length_a                    10.905669
_cell_length_b                    9.488726
_cell_length_c                    10.813484
_cell_angle_alpha                 90.243907
_cell_angle_beta                  89.896229
_cell_angle_gamma                 90.151289
_cell_volume                      1118.97325785

loop_
_atom_site_label
_atom_site_type_symbol
_atom_site_description
_atom_site_fract_x
_atom_site_fract_y
_atom_site_fract_z
_atom_type_partial_charge
O1    O     O_R   0.319640 0.618740 0.499990 -0.535591
O2    O     O_R   0.680360 0.618740 0.500010 -0.536114
O3    O     O_R   0.319620 0.381170 0.499990 -0.594041
O4    O     O_R   0.680380 0.381170 0.500010 -0.591953
C1    C     C_R   0.262027 0.500508 0.497008 0.826605
C2    C     C_R   0.738074 0.501018 0.503022 0.810500
O5    O     O_R   0.500000 0.618810 0.319650 -0.565983
O6    O     O_R   0.500000 0.618810 0.680350 -0.571037
O7    O     O_R   0.499970 0.381240 0.319640 -0.602775
O8    O     O_R   0.500030 0.381240 0.680360 -0.603198
C3    C     C_R   0.512124 0.500300 0.262391 0.829339
C4    C     C_R   0.490268 0.500745 0.738104 0.824634
Cu1   Cu    Cu3+1 0.500000 0.640660 0.500000 0.972823
Cu2   Cu    Cu3+1 0.500000 0.359340 0.500000 0.930326
H1    H     H_    0.508933 0.274359 0.110856 0.156194
H2    H     H_    0.493071 0.274981 0.887873 0.155457
C5    C     C_R   0.580541 0.758479 0.109001 0.280067
C6    C     C_R   0.433425 0.760746 0.896369 0.289086
C7    C     C_R   0.547910 0.886418 0.053941 -0.275623
C8    C     C_R   0.469540 0.887609 0.952504 -0.277489
H3    H     H_    0.581459 0.985379 0.091156 0.143229
H4    H     H_    0.437340 0.987502 0.917172 0.141061
C9    C     C_R   0.481617 0.631545 0.941251 0.007186
C10   C     C_R   0.530838 0.630488 0.061184 0.012366
C11   C     C_R   0.524968 0.501856 0.127624 -0.086972
C12   C     C_R   0.482306 0.502944 0.873401 -0.087717
C13   C     C_R   0.509638 0.374627 0.063300 -0.224347
C14   C     C_R   0.495554 0.375108 0.936332 -0.223772
C15   C     C_R   0.063276 0.378961 0.516927 -0.250756
C16   C     C_R   0.936519 0.379299 0.519102 -0.245289
H5    H     H_    0.110493 0.279984 0.530874 0.171945
H6    H     H_    0.888876 0.280207 0.532700 0.171393
C17   C     C_R   0.872130 0.505616 0.505544 -0.111547
C18   C     C_R   0.128178 0.503965 0.495759 -0.110713
C19   C     C_R   0.936670 0.634512 0.490019 0.205695
C20   C     C_R   0.064552 0.632040 0.476958 0.194966
C21   C     C_R   0.454484 0.073839 0.401594 -0.048531
C22   C     C_R   0.545820 0.074992 0.598211 -0.049446
H7    H     H_    0.416716 0.129060 0.323242 0.127007
H8    H     H_    0.583539 0.131071 0.676651 0.122864
C23   C     C_R   0.455405 0.925021 0.401170 -0.043555
C24   C     C_R   0.544964 0.926222 0.598538 -0.035226
H9    H     H_    0.417783 0.868881 0.322732 0.143583
H10   H     H_    0.581346 0.871043 0.677496 0.130403
N1    N     N_R   0.500000 0.852070 0.500000 -0.146947
N2    N     N_R   0.500000 0.147940 0.500000 -0.151589
N3    N     N_2   0.670756 0.759057 0.204426 -0.393720
H11   H     H_    0.684659 0.854119 0.249011 0.251230
C25   C     C_3   0.782380 0.680884 0.179804 -0.675615
H12   H     H_    0.793477 0.598224 0.250953 0.227435
H13   H     H_    0.862861 0.752801 0.183806 0.202105
H14   H     H_    0.781425 0.629370 0.087226 0.218900
N4    N     N_2   0.339331 0.763579 0.804994 -0.399851
H15   H     H_    0.324582 0.859511 0.763090 0.240916
C26   C     C_3   0.227987 0.685620 0.832685 -0.699728
H16   H     H_    0.205526 0.615534 0.753533 0.230283
H17   H     H_    0.150798 0.759956 0.847694 0.205845
H18   H     H_    0.236865 0.619662 0.916897 0.227050
N5    N     N_2   0.873642 0.766214 0.487498 -0.391677
H19   H     H_    0.905228 0.838231 0.423862 0.246654
C27   C     C_3   0.849736 0.827446 0.608291 -0.646848
H20   H     H_    0.936014 0.847420 0.659309 0.204166
H21   H     H_    0.791997 0.755983 0.665038 0.231149
H22   H     H_    0.801422 0.929371 0.597152 0.207943
N6    N     N_2   0.128026 0.755320 0.436231 -0.415647
H23   H     H_    0.101487 0.792168 0.350813 0.227191
C28   C     C_3   0.149029 0.865039 0.527392 -0.641736
H24   H     H_    0.082043 0.951875 0.515559 0.197724
H25   H     H_    0.241783 0.909624 0.514817 0.238967
H26   H     H_    0.143158 0.823278 0.622696 0.230748

loop_
_geom_bond_atom_site_label_1
_geom_bond_atom_site_label_2
_geom_bond_distance
_ccdc_geom_bond_type
H2    C14   1.083348 S    
C27   H22   1.109691 S    
C22   H8    1.080782 S    
O7    Cu2   1.962239 S    
C25   H13   1.111141 S    
C15   C16   1.382533 A    
C11   C13   1.400501 A    
C23   H9    1.080645 S    
C12   C14   1.401300 A    
C7    C8    1.391871 A    
C16   C17   1.399111 A    
C2    C17   1.462805 S    
O6    C4    1.288963 A    
C9    C10   1.404582 A    
C28   H26   1.107388 S    
C1    C18   1.460255 S    
C25   H14   1.112241 S    
C26   H16   1.109008 S    
N4    C26   1.451610 S    
N5    H19   1.030068 S    
C15   H5    1.083505 S    
O4    Cu2   1.977495 S    
Cu1   Cu2   2.669368 S    
C16   H6    1.083507 S    
O7    C3    1.296906 A    
O2    C2    1.284157 A    
O3    Cu2   1.978584 S    
C24   H10   1.080134 S    
C6    C9    1.422712 A    
O1    C1    1.284692 A    
O8    C4    1.296698 A    
N3    C25   1.450830 S    
C7    H3    1.083076 S    
C8    H4    1.083073 S    
C22   C24   1.411665 A    
C18   C20   1.416601 A    
C26   H17   1.110926 S    
C21   C23   1.412144 A    
C27   H20   1.107095 S    
C21   H7    1.080846 S    
N5    C27   1.450785 S    
C5    C10   1.424185 A    
C22   N2    1.366260 A    
C3    C11   1.463892 S    
O4    C2    1.298524 A    
C28   H24   1.110570 S    
O6    Cu1   1.962079 S    
O3    C1    1.296895 A    
N3    H11   1.031942 S    
O1    Cu1   1.977367 S    
C10   C11   1.420175 A    
Cu1   N1    2.006012 S    
C6    C8    1.401710 A    
C19   N5    1.428217 S    
N6    H23   1.031221 S    
O8    Cu2   1.960479 S    
C9    C12   1.421206 A    
C28   H25   1.103819 S    
C13   C14   1.381836 A    
C25   H12   1.108027 S    
O2    Cu1   1.978459 S    
C26   H18   1.111662 S    
C20   N6    1.428460 S    
C5    C7    1.401451 A    
O5    C3    1.288381 A    
C23   N1    1.366655 A    
O5    Cu1   1.960325 S    
Cu2   N2    2.005917 S    
C6    N4    1.426207 S    
C17   C19   1.419949 A    
C21   N2    1.366317 A    
N4    H15   1.031670 S    
H1    C13   1.083422 S    
C15   C18   1.399138 A    
C27   H21   1.110294 S    
C19   C20   1.401762 A    
C5    N3    1.427024 S    
C4    C12   1.465513 S    
N6    C28   1.448753 S    
C24   N1    1.365494 A    
