data_mof_unit_55203.cif
_audit_creation_date              2012-12-11T16:25:30-0500
_audit_creation_method            fapswitch 2.2
_symmetry_space_group_name_H-M    P1
_symmetry_Int_Tables_number       1
_space_group_crystal_system       triclinic
_cell_length_a                    20.398647
_cell_length_b                    7.270878
_cell_length_c                    13.231356
_cell_angle_alpha                 89.999847
_cell_angle_beta                  103.313466
_cell_angle_gamma                 89.999667
_cell_volume                      1909.68222441

loop_
_atom_site_label
_atom_site_type_symbol
_atom_type_description
_atom_site_fract_x
_atom_site_fract_y
_atom_site_fract_z
_atom_type_partial_charge
O1    O     O_R   0.449520 0.506760 0.599710 -0.522328
O2    O     O_R   0.550480 0.006760 0.400290 -0.522329
O3    O     O_R   0.587930 0.180200 0.595790 -0.542514
O4    O     O_R   0.412070 0.680200 0.404210 -0.542514
C1    C     C_R   0.614987 0.343677 0.615914 0.697304
C2    C     C_R   0.385014 0.843678 0.384082 0.697284
O5    O     O_R   0.452350 0.177380 0.611700 -0.531475
O6    O     O_R   0.547650 0.677380 0.388300 -0.531476
O7    O     O_R   0.413930 0.001760 0.416320 -0.532737
O8    O     O_R   0.586070 0.501760 0.583680 -0.532731
C3    C     C_R   0.436197 0.346429 0.638481 0.683620
C4    C     C_R   0.563799 0.846428 0.361512 0.683627
O9    O     O_3   0.487550 0.337460 0.435880 -0.365440
O10   O     O_3   0.512450 0.837460 0.564120 -0.365433
V1    V     V_3+5 0.502310 0.064670 0.511900 1.520276
V2    V     V_3+5 0.497690 0.564670 0.488100 1.520276
C5    C     C_R   0.614434 0.965541 0.111397 -0.156212
C6    C     C_R   0.385573 0.465444 0.888617 -0.156231
H1    H     H_    0.696074 0.968649 0.981659 0.130299
H2    H     H_    0.303938 0.468451 0.018368 0.130313
H3    H     H_    0.592225 0.024768 0.036049 0.118316
H4    H     H_    0.407788 0.524606 0.963979 0.118331
C7    C     C_R   0.602571 0.861823 0.280409 -0.104292
C8    C     C_R   0.397422 0.361833 0.719578 -0.104234
C9    C     C_R   0.927100 0.808917 0.317691 -0.290090
C10   C     C_R   0.072903 0.309003 0.682305 -0.290177
C11   C     C_R   0.892287 0.804649 0.397377 0.352038
C12   C     C_R   0.107705 0.304966 0.602604 0.352039
C13   C     C_R   0.821855 0.832204 0.373889 0.344123
C14   C     C_R   0.178132 0.332598 0.626098 0.344042
C15   C     C_R   0.785663 0.846921 0.268168 -0.003133
C16   C     C_R   0.214331 0.347085 0.731822 -0.003092
C17   C     C_R   0.823272 0.868371 0.189908 -0.002653
C18   C     C_R   0.176729 0.368397 0.810096 -0.002642
C19   C     C_R   0.713496 0.855571 0.237775 0.105615
C20   C     C_R   0.286497 0.355660 0.762210 0.105658
C21   C     C_R   0.682500 0.915252 0.136016 0.141432
C22   C     C_R   0.317504 0.415208 0.863990 0.141439
C23   C     C_R   0.720129 0.931901 0.060902 -0.139476
C24   C     C_R   0.279879 0.431787 0.939114 -0.139504
C25   C     C_R   0.789223 0.905137 0.086772 -0.162794
C26   C     C_R   0.210783 0.405044 0.913242 -0.162810
C27   C     C_R   0.670419 0.807646 0.303892 -0.140536
C28   C     C_R   0.329562 0.307765 0.696071 -0.140534
C29   C     C_R   0.576397 0.955165 0.186344 -0.048755
C30   C     C_R   0.423605 0.455106 0.813661 -0.048776
C31   C     C_R   0.894339 0.853455 0.216140 -0.134996
C32   C     C_R   0.105664 0.353470 0.783867 -0.134975
H5    H     H_    0.688524 0.732217 0.375019 0.171988
H6    H     H_    0.311435 0.232445 0.624911 0.171943
H7    H     H_    0.980569 0.781567 0.335686 0.184201
H8    H     H_    0.019440 0.281592 0.664305 0.184093
H9    H     H_    0.816049 0.920504 0.025558 0.115460
H10   H     H_    0.183961 0.420325 0.974464 0.115463
C33   C     C_R   0.231089 0.872228 0.036593 -0.256713
C34   C     C_R   0.768913 0.372322 0.963404 -0.256722
C35   C     C_R   0.287114 0.872049 0.991793 0.408256
C36   C     C_R   0.712887 0.372165 0.008203 0.408247
C37   C     C_R   0.351063 0.850795 0.055460 -0.103872
C38   C     C_R   0.648939 0.350892 0.944538 -0.103874
C39   C     C_R   0.359860 0.836628 0.162756 -0.204288
C40   C     C_R   0.640141 0.336690 0.837243 -0.204287
C41   C     C_R   0.304599 0.848073 0.210376 0.069045
C42   C     C_R   0.695402 0.348114 0.789623 0.069039
C43   C     C_R   0.238794 0.859515 0.145790 0.004519
C44   C     C_R   0.761207 0.359568 0.854208 0.004517
C45   C     C_R   0.314586 0.848192 0.320269 -0.105167
C46   C     C_R   0.685415 0.348189 0.679730 -0.105170
C47   C     C_R   0.257594 0.852944 0.367173 -0.070424
C48   C     C_R   0.742407 0.352887 0.632826 -0.070433
C49   C     C_R   0.191323 0.870408 0.301040 -0.033112
C50   C     C_R   0.808676 0.370378 0.698957 -0.033060
C51   C     C_R   0.182068 0.863336 0.190275 -0.103612
C52   C     C_R   0.817932 0.363353 0.809722 -0.103569
C53   C     C_R   0.263604 0.841044 0.477744 -0.175224
C54   C     C_R   0.736402 0.340904 0.522260 -0.175224
C55   C     C_R   0.205679 0.839305 0.519268 0.264320
C56   C     C_R   0.794332 0.339015 0.480748 0.264391
C57   C     C_R   0.142521 0.876397 0.454649 0.331759
C58   C     C_R   0.857491 0.376114 0.545362 0.331740
C59   C     C_R   0.135912 0.902068 0.347554 0.252884
C60   C     C_R   0.864089 0.401997 0.652443 0.252834
H11   H     H_    0.181759 0.885293 0.985066 0.099516
H12   H     H_    0.818243 0.385398 0.014928 0.099526
H13   H     H_    0.394541 0.846075 0.021549 0.141119
H14   H     H_    0.605462 0.346182 0.978449 0.141124
H15   H     H_    0.410791 0.818484 0.207965 0.115172
H16   H     H_    0.589212 0.318527 0.792034 0.115176
O11   O     O_R   0.913760 0.203480 0.916370 -0.545914
O12   O     O_R   0.086240 0.703480 0.083630 -0.545894
O13   O     O_R   0.047590 0.535230 0.888250 -0.530696
O14   O     O_R   0.952410 0.035230 0.111750 -0.530715
C61   C     C_R   0.064906 0.367565 0.862663 0.758282
C62   C     C_R   0.935094 0.867565 0.137339 0.758362
O15   O     O_R   0.912020 0.532880 0.904260 -0.521300
O16   O     O_R   0.087980 0.032880 0.095740 -0.521343
O17   O     O_R   0.949590 0.708460 0.099750 -0.540995
O18   O     O_R   0.050410 0.208460 0.900250 -0.541006
C63   C     C_R   0.886470 0.365451 0.880897 0.782724
C64   C     C_R   0.113532 0.865449 0.119099 0.782763
O19   O     O_3   0.012370 0.375360 0.064120 -0.381263
O20   O     O_3   0.987630 0.875360 0.935880 -0.381244
V3    V     V_3+5 0.997700 0.648160 0.988110 1.472715
V4    V     V_3+5 0.002300 0.148160 0.011890 1.472600
C65   C     C_1   0.513690 0.055218 0.167998 0.296032
N1    N     N_1   0.464357 0.139822 0.153459 -0.359154
C66   C     C_1   0.486308 0.555177 0.832011 0.296018
N2    N     N_1   0.535634 0.639803 0.846551 -0.359135
O21   O     O_3   0.280855 0.888875 0.886111 -0.636575
H17   H     H_    0.232530 0.903298 0.851687 0.305151
O22   O     O_3   0.719146 0.389020 0.113883 -0.636566
H18   H     H_    0.767471 0.403458 0.148307 0.305135
C67   C     C_1   0.327385 0.838116 0.553331 0.307868
N3    N     N_1   0.377342 0.836549 0.616084 -0.295743
C68   C     C_1   0.672624 0.338050 0.446669 0.307814
N4    N     N_1   0.622668 0.336541 0.383914 -0.295772
O23   O     O_3   0.209353 0.811767 0.624108 -0.652291
H19   H     H_    0.249318 0.736361 0.655057 0.319346
O24   O     O_3   0.790662 0.311351 0.375921 -0.652278
H20   H     H_    0.750678 0.236012 0.344983 0.319315
O25   O     O_3   0.075489 0.964565 0.287717 -0.652573
H21   H     H_    0.051003 0.034928 0.331578 0.333226
O26   O     O_3   0.924488 0.464682 0.712265 -0.652533
H22   H     H_    0.949048 0.534618 0.668337 0.333325
O27   O     O_3   0.788671 0.858869 0.452909 -0.669735
H23   H     H_    0.820477 0.853590 0.521697 0.328597
O28   O     O_3   0.211313 0.359478 0.547095 -0.669732
H24   H     H_    0.179476 0.354803 0.478320 0.328574
O29   O     O_3   0.926197 0.777216 0.499320 -0.647925
H25   H     H_    0.973588 0.744168 0.501635 0.333523
O30   O     O_3   0.073788 0.277657 0.500650 -0.647888
H26   H     H_    0.026479 0.243719 0.498376 0.333528
O31   O     O_3   0.085010 0.885671 0.493053 -0.659162
H27   H     H_    0.095990 0.869024 0.569301 0.334339
O32   O     O_3   0.915008 0.385231 0.506962 -0.658976
H28   H     H_    0.904034 0.368402 0.430726 0.334442

loop_
_geom_bond_atom_site_label_1
_geom_bond_atom_site_label_2
_ccdc_geom_bond_type
C51   C64   S    
C22   C24   A    
C41   C43   A    
C7    C29   A    
C13   O27   S    
C11   C13   A    
O22   H18   S    
O1    C3    A    
O2    C4    A    
C2    O7    A    
C9    H7    S    
C7    C27   A    
O26   H22   S    
C23   C25   A    
O5    C3    A    
C4    C7    S    
C58   O32   S    
O11   C63   A    
C16   C20   A    
C19   C21   A    
C5    C29   A    
C67   N3    T    
C55   O23   S    
H2    C24   S    
C56   C58   A    
C35   C37   A    
C36   C38   A    
C68   N4    T    
C44   C52   A    
C3    C8    S    
C54   C68   S    
C43   C51   A    
C38   C40   A    
C47   C49   A    
C40   C42   A    
C39   H15   S    
C35   O21   S    
O15   V3    S    
C18   C26   A    
C66   N2    T    
C15   C17   A    
C53   C67   S    
C19   C27   A    
C9    C31   A    
C10   C32   A    
C24   C26   A    
O6    V2    S    
C1    C46   S    
C6    C30   A    
O12   C64   A    
C33   C43   A    
C29   C65   S    
C34   H12   S    
C55   C57   A    
C57   O31   S    
C41   C45   A    
C37   C39   A    
C32   C61   S    
C54   C56   A    
C36   O22   S    
O32   H28   S    
C58   C60   A    
C49   C51   A    
C38   H14   S    
C27   H5    S    
O5    V1    S    
C62   O17   A    
C40   H16   S    
C5    H3    S    
C59   O25   S    
C45   C47   A    
C42   C44   A    
O4    V2    S    
C37   H13   S    
C10   H8    S    
O13   C61   A    
O6    C4    A    
C30   C66   S    
O14   C62   A    
O1    V2    S    
C5    C21   A    
O2    V1    S    
C53   C55   A    
C25   H9    S    
O25   H21   S    
O17   V3    S    
H1    C23   S    
C50   C52   A    
C2    C45   S    
C8    C28   A    
O19   V4    S    
C33   C35   A    
O11   V4    S    
C48   C54   A    
O27   H23   S    
C11   O29   S    
C15   C19   A    
C20   C28   A    
O4    C2    A    
C18   C32   A    
C33   H11   S    
O30   H26   S    
C42   C46   A    
C60   O26   S    
O3    V1    S    
C57   C59   A    
O29   H25   S    
C28   H6    S    
O16   V4    S    
C14   O28   S    
C6    H4    S    
C39   C41   A    
O13   V3    S    
O3    C1    A    
O24   H20   S    
C52   C63   S    
C9    C11   A    
C65   N1    T    
C10   C12   A    
C12   O30   S    
C8    C30   A    
C12   C14   A    
C56   O24   S    
C6    C22   A    
C17   C25   A    
C1    O8    A    
C13   C15   A    
O8    V2    S    
O21   H17   S    
C26   H10   S    
C14   C16   A    
O31   H27   S    
C34   C44   A    
O16   C64   A    
C20   C22   A    
C17   C31   A    
C31   C62   S    
C34   C36   A    
C47   C53   A    
O15   C63   A    
O7    V1    S    
O20   V3    S    
O12   V3    S    
O14   V4    S    
C21   C23   A    
O9    V2    S    
C46   C48   A    
O10   V1    S    
C48   C50   A    
O23   H19   S    
C61   O18   A    
O18   V4    S    
C50   C60   A    
O28   H24   S    
C16   C18   A    
C49   C59   A    
