data_mof_unit_39141.cif
_audit_creation_date              2012-12-10T17:04:29-0500
_audit_creation_method            fapswitch 2.2
_symmetry_space_group_name_H-M    P1
_symmetry_Int_Tables_number       1
_space_group_crystal_system       triclinic
_cell_length_a                    14.956762
_cell_length_b                    10.590966
_cell_length_c                    10.072928
_cell_angle_alpha                 92.050579
_cell_angle_beta                  90.706787
_cell_angle_gamma                 91.176605
_cell_volume                      1594.12343469

loop_
_atom_site_label
_atom_site_type_symbol
_atom_type_description
_atom_site_fract_x
_atom_site_fract_y
_atom_site_fract_z
_atom_type_partial_charge
C1    C     C_R   0.503169 0.262133 0.497294 0.991640
C2    C     C_R   0.183631 0.408386 0.579782 0.313239
C3    C     C_R   0.230803 0.489617 0.496684 -0.204452
C4    C     C_R   0.326904 0.495768 0.499015 0.967813
C5    C     C_R   0.186622 0.568883 0.411250 -0.235783
C6    C     C_2   0.550106 0.929918 0.398509 -0.337497
C7    C     C_2   0.546249 0.865069 0.510442 0.250173
C8    C     C_2   0.557049 0.066022 0.402756 0.224517
C9    C     C_2   0.504683 0.128087 0.488889 -0.240955
C10   C     C_2   0.495963 0.601322 0.928615 -0.035416
C11   C     C_2   0.514013 0.599292 0.075818 -0.061231
C12   C     C_R   0.907468 0.575592 0.410263 0.074893
C13   C     C_R   0.510855 0.737123 0.502697 0.821027
C14   C     C_R   0.673026 0.501802 0.500895 0.879442
C15   C     C_R   0.814730 0.572865 0.408367 -0.199823
C16   C     C_R   0.768662 0.505889 0.503758 -0.039411
C17   C     C_R   0.813658 0.443491 0.603169 -0.209823
C18   C     C_R   0.906089 0.442642 0.604381 0.119181
C19   C     C_R   0.953503 0.507818 0.506800 0.090337
C20   C     C_R   0.951545 0.376683 0.700724 -0.200960
C21   C     C_R   0.043788 0.368573 0.696060 -0.087573
C22   C     C_R   0.091790 0.425842 0.594355 0.005930
C23   C     C_R   0.046601 0.502878 0.504126 -0.014865
C24   C     C_R   0.094006 0.572017 0.409044 0.062251
C25   C     C_R   0.047550 0.643485 0.315893 0.176101
C26   C     C_R   0.954521 0.643327 0.316287 -0.221056
H1    H     H_    0.778324 0.623182 0.333634 0.157737
H2    H     H_    0.918948 0.696057 0.242810 0.177300
H3    H     H_    0.533693 0.885757 0.302049 0.175501
H4    H     H_    0.665986 0.834696 0.825168 0.380976
H5    H     H_    0.332052 0.248246 0.172195 0.374435
H6    H     H_    0.276522 0.199941 0.447919 0.358148
H7    H     H_    0.460647 0.078173 0.555063 0.204752
H8    H     H_    0.480114 0.690554 0.885309 0.185147
H9    H     H_    0.538016 0.430060 0.889648 0.232725
H10   H     H_    0.538072 0.686588 0.124601 0.117341
H11   H     H_    0.776585 0.392381 0.676868 0.171585
H12   H     H_    0.915670 0.329740 0.778441 0.171000
H13   H     H_    0.077003 0.319337 0.774173 0.213995
H14   H     H_    0.225584 0.627318 0.346564 0.202135
I1    I     I_    0.647118 0.150312 0.268015 -0.202510
I2    I     I_    0.111281 0.749845 0.167347 -0.270515
N1    N     N_2   0.500970 0.501330 0.852150 -0.137922
N2    N     N_2   0.500990 0.501360 0.147810 0.054173
O1    O     O_R   0.499990 0.319060 0.613040 -0.559123
O2    O     O_2   0.522630 0.963043 0.757270 -0.279244
O3    O     O_3   0.651107 0.803498 0.733511 -0.547834
O4    O     O_2   0.357112 0.432403 0.997671 -0.249513
O5    O     O_2   0.476036 0.276903 0.021103 -0.270282
O6    O     O_3   0.370197 0.315996 0.215003 -0.495065
O7    O     O_2   0.282299 0.304354 0.770635 -0.177019
O8    O     O_2   0.169331 0.165630 0.660120 -0.285283
O9    O     O_3   0.311281 0.219729 0.530661 -0.572437
O10   O     O_R   0.500010 0.319100 0.386900 -0.550007
O11   O     O_R   0.367830 0.499950 0.613080 -0.560593
O12   O     O_R   0.367860 0.499990 0.386940 -0.560728
O13   O     O_R   0.499990 0.680900 0.613100 -0.570786
O14   O     O_R   0.500010 0.680940 0.386960 -0.668601
O15   O     O_R   0.632140 0.500010 0.613060 -0.618293
O16   O     O_R   0.632170 0.500050 0.386920 -0.633215
O17   O     O_2   0.659658 0.030205 0.645182 -0.275810
S1    S     S_3+6 0.595368 0.921641 0.664737 0.037895
S2    S     S_3+6 0.425991 0.381291 0.090349 0.157632
S3    S     S_3+6 0.235877 0.271498 0.640673 0.056418
Zn1   Zn    Zn3+2 0.499980 0.499970 0.650990 1.092329
Zn2   Zn    Zn3+2 0.500020 0.500030 0.349010 1.075855

loop_
_geom_bond_atom_site_label_1
_geom_bond_atom_site_label_2
_ccdc_geom_bond_type
C25   I2    S    
C2    C22   A    
C19   C23   A    
C1    O10   A    
C7    S1    S    
C6    C7    D    
O5    S2    D    
C14   O16   A    
H4    O3    S    
N2    Zn2   S    
C21   H13   S    
C12   C15   A    
N1    Zn1   S    
H9    N1    S    
O3    S1    S    
C2    C3    A    
C10   N1    D    
C14   O15   A    
O16   Zn2   S    
C11   N2    D    
C10   H8    S    
C17   H11   S    
C21   C22   A    
C20   C21   A    
C9    H7    S    
O6    S2    S    
C1    O1    A    
O10   Zn2   S    
C5    C24   A    
O2    S1    D    
O12   Zn2   S    
C12   C19   A    
C11   H10   S    
O11   Zn1   S    
C2    S3    S    
C17   C18   A    
C20   H12   S    
C18   C20   A    
N2    S2    S    
O1    Zn1   S    
O17   S1    D    
O9    S3    S    
C14   C16   S    
C13   O13   A    
C10   C11   S    
H5    O6    S    
C3    C4    S    
C3    C5    A    
H6    O9    S    
C7    C13   S    
C6    H3    S    
C1    C9    S    
C24   C25   A    
C18   C19   A    
O8    S3    D    
C5    H14   S    
C12   C26   A    
C4    O11   A    
C22   C23   A    
C16   C17   A    
O4    S2    D    
C6    C8    S    
C13   O14   A    
C23   C24   A    
C8    I1    S    
C25   C26   A    
O15   Zn1   S    
C26   H2    S    
O14   Zn2   S    
C4    O12   A    
O7    S3    D    
C15   C16   A    
O13   Zn1   S    
C8    C9    D    
C15   H1    S    
