data_mof_unit_56178.cif
_audit_creation_date              2012-12-10T22:11:06-0500
_audit_creation_method            fapswitch 2.2
_symmetry_space_group_name_H-M    P1
_symmetry_Int_Tables_number       1
_space_group_crystal_system       triclinic
_cell_length_a                    12.112844
_cell_length_b                    12.317391
_cell_length_c                    22.94975
_cell_angle_alpha                 90.757347
_cell_angle_beta                  90.63445
_cell_angle_gamma                 91.064824
_cell_volume                      3422.9616168

loop_
_atom_site_label
_atom_site_type_symbol
_atom_type_description
_atom_site_fract_x
_atom_site_fract_y
_atom_site_fract_z
_atom_type_partial_charge
C1    C     C_R   0.656926 0.998404 0.579502 0.868529
C2    C     C_R   0.343074 0.001596 0.420498 0.868528
C3    C     C_R   0.894513 0.770232 0.148572 -0.220895
C4    C     C_R   0.105488 0.229765 0.851429 -0.220891
C5    C     C_R   0.087537 0.890997 0.172079 -0.175703
C6    C     C_R   0.912463 0.109004 0.827920 -0.175701
C7    C     C_R   0.087384 0.810622 0.129624 -0.198171
C8    C     C_R   0.912615 0.189380 0.870375 -0.198171
C9    C     C_R   0.894248 0.129956 0.176817 0.510147
C10   C     C_R   0.105753 0.870040 0.823182 0.510140
C11   C     C_R   0.898304 0.212383 0.135615 -0.321327
C12   C     C_R   0.101696 0.787614 0.864384 -0.321315
C13   C     C_R   0.147420 0.907606 0.302602 -0.180157
C14   C     C_R   0.852583 0.092395 0.697396 -0.180156
C15   C     C_R   0.229160 0.906708 0.345208 -0.194762
C16   C     C_R   0.770842 0.093292 0.654791 -0.194761
C17   C     C_R   0.851731 0.102318 0.309335 -0.125097
C18   C     C_R   0.148264 0.897682 0.690662 -0.125114
C19   C     C_R   0.772134 0.101323 0.351942 -0.226840
C20   C     C_R   0.227861 0.898676 0.648056 -0.226821
C21   C     C_3   0.994412 0.005823 0.247741 -0.097199
C22   C     C_3   0.005588 0.994176 0.752259 -0.097197
C23   C     C_R   0.655424 0.001940 0.421115 0.876013
C24   C     C_R   0.344575 0.998060 0.578885 0.876015
C25   C     C_R   0.094586 0.005083 0.288616 0.104381
C26   C     C_R   0.905414 0.994917 0.711384 0.104385
C27   C     C_R   0.257904 0.002404 0.375621 -0.024827
C28   C     C_R   0.742096 0.997596 0.624378 -0.024827
C29   C     C_R   0.899430 0.004722 0.290418 0.207799
C30   C     C_R   0.100570 0.995278 0.709581 0.207796
C31   C     C_R   0.740934 0.003330 0.377623 -0.033479
C32   C     C_R   0.259066 0.996670 0.622376 -0.033482
C33   C     C_R   0.992748 0.103948 0.207528 0.033989
C34   C     C_R   0.007253 0.896051 0.792472 0.033987
C35   C     C_R   0.996865 0.268930 0.124985 -0.076396
C36   C     C_R   0.003135 0.731070 0.875015 -0.076403
C37   C     C_R   0.992300 0.910120 0.204997 0.132230
C38   C     C_R   0.007700 0.089879 0.795003 0.132226
C39   C     C_R   0.991101 0.749488 0.118022 -0.023794
C40   C     C_R   0.008899 0.250511 0.881978 -0.023796
C41   C     C_R   0.992903 0.662494 0.075100 0.873392
C42   C     C_R   0.007097 0.337506 0.924900 0.873391
C43   C     C_R   0.998741 0.352264 0.081028 0.899206
C44   C     C_R   0.001259 0.647736 0.918972 0.899206
C45   C     C_R   0.122028 0.099843 0.321121 -0.164524
C46   C     C_R   0.877970 0.900157 0.678880 -0.164524
C47   C     C_R   0.204066 0.098963 0.363374 -0.197125
C48   C     C_R   0.795931 0.901037 0.636627 -0.197127
C49   C     C_R   0.873135 0.908172 0.319819 -0.197059
C50   C     C_R   0.126868 0.091829 0.680183 -0.197067
C51   C     C_R   0.792732 0.906954 0.361999 -0.201520
C52   C     C_R   0.207271 0.093046 0.638002 -0.201529
C53   C     C_R   0.092161 0.159308 0.194061 -0.262450
C54   C     C_R   0.907839 0.840693 0.805940 -0.262447
C55   C     C_R   0.093608 0.242195 0.154264 -0.202044
C56   C     C_R   0.906392 0.757806 0.845736 -0.202043
C57   C     C_R   0.894727 0.850265 0.191428 -0.104614
C58   C     C_R   0.105274 0.149731 0.808573 -0.104615
H1    H     H_    0.223583 0.173456 0.387228 0.155508
H2    H     H_    0.776412 0.826542 0.612774 0.155509
H3    H     H_    0.914985 0.833333 0.309975 0.130657
H4    H     H_    0.085021 0.166667 0.690028 0.130661
H5    H     H_    0.170688 0.136754 0.212647 0.163992
H6    H     H_    0.829312 0.863250 0.787355 0.163991
H7    H     H_    0.817346 0.866045 0.212611 0.178466
H8    H     H_    0.182656 0.133950 0.787392 0.178469
H9    H     H_    0.162538 0.938631 0.179420 0.143611
H10   H     H_    0.837461 0.061372 0.820579 0.143611
H11   H     H_    0.123702 0.830932 0.282195 0.137809
H12   H     H_    0.876302 0.169069 0.717803 0.137808
H13   H     H_    0.876386 0.180045 0.291832 0.107589
H14   H     H_    0.123604 0.819954 0.708163 0.107581
H15   H     H_    0.772331 0.830896 0.382833 0.159370
H16   H     H_    0.227675 0.169106 0.617170 0.159373
H17   H     H_    0.171275 0.283397 0.145360 0.166412
H18   H     H_    0.828724 0.716606 0.854642 0.166412
H19   H     H_    0.818913 0.724385 0.139587 0.156106
H20   H     H_    0.181089 0.275610 0.860416 0.156108
H21   H     H_    0.162502 0.796989 0.105634 0.158984
H22   H     H_    0.837496 0.203014 0.894364 0.158983
H23   H     H_    0.825699 0.229460 0.109800 0.156124
H24   H     H_    0.174302 0.770538 0.890198 0.156132
H25   H     H_    0.268825 0.830781 0.354758 0.154869
H26   H     H_    0.731179 0.169220 0.645240 0.154869
H27   H     H_    0.735004 0.177292 0.364562 0.158931
H28   H     H_    0.264987 0.822706 0.635434 0.158930
H29   H     H_    0.078881 0.174794 0.314095 0.134627
H30   H     H_    0.921114 0.825204 0.685906 0.134626
O1    O     O_R   0.621380 0.090460 0.561410 -0.627543
O2    O     O_R   0.378620 0.909540 0.438590 -0.627543
O3    O     O_R   0.617150 0.909540 0.438590 -0.631111
O4    O     O_R   0.382850 0.090460 0.561410 -0.631112
O5    O     O_R   0.619720 0.093230 0.440890 -0.628058
O6    O     O_R   0.380280 0.906770 0.559110 -0.628059
O7    O     O_R   0.618800 0.906770 0.559110 -0.630308
O8    O     O_R   0.381200 0.093230 0.440890 -0.630308
O9    O     O_R   0.087590 0.627480 0.058790 -0.632008
O10   O     O_R   0.912410 0.372520 0.941210 -0.632008
O11   O     O_R   0.905660 0.383870 0.059980 -0.633644
O12   O     O_R   0.094340 0.616130 0.940020 -0.633645
O13   O     O_R   0.092570 0.390420 0.063230 -0.627523
O14   O     O_R   0.907430 0.609580 0.936770 -0.627523
O15   O     O_R   0.900680 0.620930 0.055550 -0.626547
O16   O     O_R   0.099320 0.379070 0.944450 -0.626547
Zn1   Zn    Zn3+2 0.501730 0.123520 0.501540 0.934996
Zn2   Zn    Zn3+2 0.498270 0.876480 0.498460 0.934996
Zn3   Zn    Zn3+2 0.125690 0.504390 0.002180 0.933535
Zn4   Zn    Zn3+2 0.874310 0.495610 0.997820 0.933534
O17   O     O_3   0.800192 0.064407 0.182752 -0.627911
C59   C     C_3   0.702465 0.125133 0.186158 0.085880
H31   H     H_    0.674364 0.148568 0.141913 0.147082
H32   H     H_    0.713904 0.198996 0.214343 0.129086
C60   C     C_3   0.611496 0.054391 0.211947 -0.828179
H33   H     H_    0.636035 0.026996 0.255993 0.263930
H34   H     H_    0.534356 0.101266 0.215391 0.204797
H35   H     H_    0.595547 0.981920 0.183569 0.252776
O18   O     O_3   0.199810 0.935588 0.817247 -0.627908
C61   C     C_3   0.297530 0.874854 0.813824 0.085886
H36   H     H_    0.286078 0.801009 0.785628 0.129086
H37   H     H_    0.325639 0.851389 0.858063 0.147074
C62   C     C_3   0.388499 0.945605 0.788042 -0.828192
H38   H     H_    0.404479 0.018043 0.816437 0.252767
H39   H     H_    0.465626 0.898718 0.784571 0.204801
H40   H     H_    0.363943 0.973048 0.744008 0.263943

loop_
_geom_bond_atom_site_label_1
_geom_bond_atom_site_label_2
_ccdc_geom_bond_type
C16   C28   A    
O8    Zn1   S    
O13   Zn3   S    
C56   H18   S    
C5    C37   A    
C53   H5    S    
C17   C29   A    
C5    H9    S    
C19   C31   A    
C61   H37   S    
C43   O13   A    
C39   C41   S    
C29   C49   A    
C11   H23   S    
O11   Zn4   S    
C13   H11   S    
C45   H29   S    
C43   O11   A    
C52   H16   S    
C42   O10   A    
C21   C33   S    
C22   C38   S    
C16   H26   S    
O10   Zn4   S    
C2    O2    A    
C61   H36   S    
C32   C52   A    
C62   H40   S    
O5    Zn1   S    
C59   H31   S    
C11   C35   A    
C58   H8    S    
O6    Zn2   S    
C4    C40   A    
C49   C51   A    
C18   H14   S    
C20   H28   S    
C1    C28   S    
C50   C52   A    
C6    C38   A    
O14   Zn4   S    
O15   Zn4   S    
C18   C30   A    
C14   C16   A    
C12   C36   A    
C35   C43   S    
C18   C20   A    
C60   H35   S    
C55   H17   S    
C45   C47   A    
C30   C50   A    
C3    C39   A    
C38   C58   A    
C9    C33   A    
C14   H12   S    
O3    Zn2   S    
C13   C25   A    
C24   O4    A    
C48   H2    S    
C46   H30   S    
C53   C55   A    
C33   C53   A    
C22   C34   S    
C46   C48   A    
C49   H3    S    
C35   C55   A    
O2    Zn2   S    
C57   H7    S    
C5    C7    A    
C44   O14   A    
C15   H25   S    
C21   C29   S    
C23   O5    A    
C9    O17   S    
C23   C31   S    
C24   C32   S    
C4    H20   S    
C36   C56   A    
O7    Zn2   S    
C24   O6    A    
C15   C27   A    
C1    O7    A    
C12   H24   S    
C10   C34   A    
C14   C26   A    
C9    C11   A    
C59   C60   S    
C62   H38   S    
C2    C27   S    
C10   C12   A    
C3    C57   A    
C17   H13   S    
C13   C15   A    
C50   H4    S    
C23   O3    A    
C36   C44   S    
O1    Zn1   S    
C3    H19   S    
C25   C45   A    
C7    H21   S    
C60   H33   S    
C20   C32   A    
C27   C47   A    
C21   C25   S    
C28   C48   A    
O12   Zn3   S    
C1    O1    A    
C22   C30   S    
C51   H15   S    
C31   C51   A    
C40   C42   S    
C19   H27   S    
C42   O16   A    
C6    C8    A    
C54   C56   A    
C34   C54   A    
C2    O8    A    
C10   O18   S    
O17   C59   S    
C44   O12   A    
C54   H6    S    
C6    H10   S    
C17   C19   A    
C41   O9    A    
C59   H32   S    
C62   H39   S    
C26   C46   A    
C47   H1    S    
O9    Zn3   S    
C41   O15   A    
O4    Zn1   S    
C21   C37   S    
C22   C26   S    
C4    C58   A    
C8    H22   S    
C7    C39   A    
C8    C40   A    
O18   C61   S    
C61   C62   S    
O16   Zn3   S    
C37   C57   A    
C60   H34   S    
