data_mof_unit_25862.cif
_audit_creation_date              2012-12-10T17:59:36-0500
_audit_creation_method            fapswitch 2.2
_symmetry_space_group_name_H-M    P1
_symmetry_Int_Tables_number       1
_space_group_crystal_system       triclinic
_cell_length_a                    18.796509
_cell_length_b                    18.813363
_cell_length_c                    34.919467
_cell_angle_alpha                 90.04787
_cell_angle_beta                  90.00651
_cell_angle_gamma                 90.004486
_cell_volume                      12348.4111896

loop_
_atom_site_label
_atom_site_type_symbol
_atom_type_description
_atom_site_fract_x
_atom_site_fract_y
_atom_site_fract_z
_atom_type_partial_charge
C1    C     C_R   0.979912 0.562019 0.418752 0.356110
C2    C     C_R   0.994887 0.436031 0.581568 0.366259
C3    C     C_R   0.436936 0.982057 0.418590 0.353608
C4    C     C_R   0.564314 0.995881 0.581767 0.368325
C5    C     C_R   0.022631 0.440333 0.418650 0.356005
C6    C     C_R   0.006734 0.565073 0.581867 0.366868
C7    C     C_R   0.560888 0.018474 0.418683 0.355283
C8    C     C_R   0.434772 0.002724 0.582009 0.368003
C9    C     C_R   0.478964 0.061033 0.918624 0.355529
C10   C     C_R   0.495595 0.935260 0.081661 0.370103
C11   C     C_R   0.939052 0.480722 0.918741 0.353712
C12   C     C_R   0.064956 0.497099 0.082016 0.368164
C13   C     C_R   0.519654 0.938608 0.918550 0.357344
C14   C     C_R   0.504886 0.064472 0.081703 0.368370
C15   C     C_R   0.062734 0.518151 0.918665 0.354744
C16   C     C_R   0.935464 0.504096 0.081843 0.367115
C17   C     C_R   0.000541 0.500886 0.398379 -0.204381
C18   C     C_R   0.000299 0.500445 0.601677 -0.216227
C19   C     C_R   0.499080 0.000158 0.398312 -0.201773
C20   C     C_R   0.499724 0.999727 0.601886 -0.216311
C21   C     C_R   0.499704 0.999950 0.898312 -0.204767
C22   C     C_R   0.500092 0.999911 0.101649 -0.220799
C23   C     C_R   0.000683 0.499811 0.898360 -0.201011
C24   C     C_R   0.000096 0.500172 0.101916 -0.215772
C25   C     C_R   0.010916 0.372933 0.479312 0.404526
C26   C     C_R   0.991467 0.629476 0.519685 0.373168
C27   C     C_R   0.627369 0.007141 0.479613 0.402087
C28   C     C_R   0.370645 0.987924 0.519590 0.373081
C29   C     C_R   0.991783 0.629274 0.479800 0.400376
C30   C     C_R   0.011681 0.372400 0.519100 0.373104
C31   C     C_R   0.370556 0.992221 0.479955 0.402770
C32   C     C_R   0.627804 0.010048 0.519244 0.371106
C33   C     C_R   0.508922 0.871786 0.979468 0.402356
C34   C     C_R   0.488604 0.128300 0.019417 0.373294
C35   C     C_R   0.128993 0.507811 0.980017 0.403456
C36   C     C_R   0.871863 0.489573 0.019312 0.373242
C37   C     C_R   0.490264 0.128075 0.979608 0.404113
C38   C     C_R   0.510868 0.871443 0.019275 0.370873
C39   C     C_R   0.872178 0.492322 0.979692 0.402185
C40   C     C_R   0.129005 0.511879 0.019672 0.372994
C41   C     C_R   0.499575 0.000034 0.355741 0.940948
C42   C     C_R   0.500019 0.999940 0.644385 0.951081
C43   C     C_R   0.000072 0.500425 0.355753 0.935412
C44   C     C_R   0.000032 0.500136 0.644322 0.952526
C45   C     C_R   0.000302 0.499982 0.855758 0.940204
C46   C     C_R   0.999947 0.500016 0.144396 0.951217
C47   C     C_R   0.499953 0.000017 0.855729 0.937820
C48   C     C_R   0.500017 0.999977 0.144313 0.951732
C49   C     C_R   0.360167 0.139510 0.250402 0.853008
C50   C     C_R   0.640803 0.860414 0.750080 0.839958
C51   C     C_R   0.860410 0.360177 0.250309 0.850060
C52   C     C_R   0.139661 0.640707 0.750120 0.840435
C53   C     C_R   0.639842 0.860467 0.250425 0.851830
C54   C     C_R   0.359229 0.139611 0.750064 0.836966
C55   C     C_R   0.139572 0.639800 0.250349 0.850428
C56   C     C_R   0.860447 0.359173 0.750038 0.841994
C57   C     C_R   0.360576 0.860028 0.750413 0.850534
C58   C     C_R   0.639508 0.140856 0.250050 0.841630
C59   C     C_R   0.860208 0.639574 0.750380 0.852681
C60   C     C_R   0.140779 0.360365 0.250071 0.839875
C61   C     C_R   0.639509 0.139857 0.750382 0.850250
C62   C     C_R   0.360434 0.859190 0.250020 0.840148
C63   C     C_R   0.139813 0.360459 0.750406 0.851830
C64   C     C_R   0.859249 0.639616 0.250050 0.842241
C65   C     C_R   0.250955 0.801051 0.222445 0.104781
C66   C     C_R   0.751453 0.192132 0.778816 0.151986
C67   C     C_R   0.197460 0.249417 0.222964 0.103670
C68   C     C_R   0.808919 0.752406 0.778302 0.148988
C69   C     C_R   0.748700 0.199011 0.222384 0.102622
C70   C     C_R   0.248925 0.807461 0.779088 0.152401
C71   C     C_R   0.802490 0.750287 0.222950 0.100116
C72   C     C_R   0.191424 0.248049 0.778297 0.150326
C73   C     C_R   0.241860 0.192251 0.776751 0.115866
C74   C     C_R   0.749984 0.804013 0.223338 0.106191
C75   C     C_R   0.193127 0.756873 0.777335 0.119835
C76   C     C_R   0.802474 0.251449 0.222437 0.110148
C77   C     C_R   0.758204 0.808014 0.776589 0.115882
C78   C     C_R   0.250139 0.195849 0.223251 0.106132
C79   C     C_R   0.807150 0.242813 0.777168 0.118807
C80   C     C_R   0.197303 0.748520 0.222542 0.109337
C81   C     C_R   0.751457 0.300676 0.722322 0.102257
C82   C     C_R   0.251948 0.691742 0.278532 0.151369
C83   C     C_R   0.697762 0.749842 0.722942 0.101314
C84   C     C_R   0.308338 0.251777 0.278579 0.150738
C85   C     C_R   0.250286 0.697535 0.723129 0.104012
C86   C     C_R   0.747894 0.308539 0.278458 0.151090
C87   C     C_R   0.302614 0.250436 0.723022 0.104203
C88   C     C_R   0.691692 0.748088 0.278382 0.146594
C89   C     C_R   0.742171 0.692302 0.276710 0.116780
C90   C     C_R   0.250087 0.304146 0.723403 0.106408
C91   C     C_R   0.692369 0.257662 0.276957 0.119969
C92   C     C_R   0.303769 0.750260 0.723103 0.109949
C93   C     C_R   0.257891 0.307587 0.276687 0.117730
C94   C     C_R   0.750163 0.696023 0.723291 0.105724
C95   C     C_R   0.307487 0.742610 0.276923 0.119224
C96   C     C_R   0.697529 0.248409 0.722487 0.109439
C97   C     C_R   0.011751 0.437543 0.458986 -0.178877
C98   C     C_R   0.999444 0.565836 0.540950 -0.169357
C99   C     C_R   0.562901 0.008626 0.459011 -0.175683
C100  C     C_R   0.434194 0.996312 0.541173 -0.170403
C101  C     C_R   0.991078 0.564797 0.459167 -0.175499
C102  C     C_R   0.003273 0.435782 0.540685 -0.173510
C103  C     C_R   0.434878 0.991429 0.459054 -0.176770
C104  C     C_R   0.564387 0.002582 0.540956 -0.169277
C105  C     C_R   0.509393 0.936202 0.958973 -0.175719
C106  C     C_R   0.497208 0.064863 0.040799 -0.171696
C107  C     C_R   0.064694 0.508847 0.959135 -0.177317
C108  C     C_R   0.935292 0.497459 0.041032 -0.171019
C109  C     C_R   0.489575 0.063608 0.959047 -0.177926
C110  C     C_R   0.502571 0.934855 0.040758 -0.167269
C111  C     C_R   0.936726 0.491102 0.959049 -0.176991
C112  C     C_R   0.065466 0.503687 0.041203 -0.169649
C113  C     C_R   0.196129 0.695030 0.250888 -0.176792
C114  C     C_R   0.805120 0.300786 0.750753 -0.173036
C115  C     C_R   0.304767 0.195699 0.251272 -0.174844
C116  C     C_R   0.698922 0.804881 0.750693 -0.169586
C117  C     C_R   0.803769 0.305012 0.250865 -0.177058
C118  C     C_R   0.195404 0.698600 0.751033 -0.173094
C119  C     C_R   0.695301 0.804255 0.251248 -0.173029
C120  C     C_R   0.301212 0.195222 0.750606 -0.171911
C121  C     C_R   0.195208 0.304224 0.751201 -0.174360
C122  C     C_R   0.801325 0.695306 0.250586 -0.166868
C123  C     C_R   0.304489 0.804332 0.751282 -0.176853
C124  C     C_R   0.694721 0.199279 0.250734 -0.173378
C125  C     C_R   0.804961 0.695951 0.751206 -0.174089
C126  C     C_R   0.198739 0.304634 0.250679 -0.170956
C127  C     C_R   0.695935 0.195215 0.750999 -0.176564
C128  C     C_R   0.305098 0.800825 0.250668 -0.172868
C129  C     C_R   0.001436 0.501105 0.479597 -0.110382
C130  C     C_R   0.001406 0.500918 0.520509 -0.108804
C131  C     C_R   0.498951 0.999936 0.479772 -0.110593
C132  C     C_R   0.499155 0.999765 0.520551 -0.110769
C133  C     C_R   0.499599 0.999899 0.979532 -0.110753
C134  C     C_R   0.499756 0.999866 0.020464 -0.110682
C135  C     C_R   0.000621 0.500256 0.979827 -0.110002
C136  C     C_R   0.000471 0.500406 0.020601 -0.110452
O1    O     O_3   0.500000 0.000000 0.250000 -0.498163
O2    O     O_3   0.500000 1.000000 0.750000 -0.499478
O3    O     O_3   0.000000 0.500000 0.250000 -0.499955
O4    O     O_3   1.000000 0.500000 0.750000 -0.498544
O5    O     O_R   0.500000 0.939270 0.337550 -0.659856
O6    O     O_R   0.500000 0.060730 0.662450 -0.669873
O7    O     O_R   0.060730 0.500000 0.337550 -0.654938
O8    O     O_R   0.939270 0.500000 0.662450 -0.665749
O9    O     O_R   0.500000 0.060730 0.337550 -0.659971
O10   O     O_R   0.500000 0.939270 0.662450 -0.666513
O11   O     O_R   0.939270 0.500000 0.337550 -0.656879
O12   O     O_R   0.060730 0.500000 0.662450 -0.666721
O13   O     O_R   0.000000 0.439270 0.837550 -0.657790
O14   O     O_R   0.000000 0.560730 0.162450 -0.666725
O15   O     O_R   0.560730 1.000000 0.837550 -0.658334
O16   O     O_R   0.439270 1.000000 0.162450 -0.668534
O17   O     O_R   0.000000 0.560730 0.837550 -0.660158
O18   O     O_R   0.000000 0.439270 0.162450 -0.669823
O19   O     O_R   0.439270 1.000000 0.837550 -0.656404
O20   O     O_R   0.560730 1.000000 0.162450 -0.665280
O21   O     O_R   0.414490 0.146150 0.273020 -0.636594
O22   O     O_R   0.585510 0.853850 0.726980 -0.626469
O23   O     O_R   0.853850 0.414490 0.273020 -0.634344
O24   O     O_R   0.146150 0.585510 0.726980 -0.626157
O25   O     O_R   0.585510 0.853850 0.273020 -0.635623
O26   O     O_R   0.414490 0.146150 0.726980 -0.625685
O27   O     O_R   0.146150 0.585510 0.273020 -0.634801
O28   O     O_R   0.853850 0.414490 0.726980 -0.625249
O29   O     O_R   0.414490 0.853850 0.726980 -0.622567
O30   O     O_R   0.585510 0.146150 0.273020 -0.669082
O31   O     O_R   0.853850 0.585510 0.726980 -0.622065
O32   O     O_R   0.146150 0.414490 0.273020 -0.661180
O33   O     O_R   0.585510 0.146150 0.726980 -0.623293
O34   O     O_R   0.414490 0.853850 0.273020 -0.668848
O35   O     O_R   0.146150 0.414490 0.726980 -0.622376
O36   O     O_R   0.853850 0.585510 0.273020 -0.656128
O37   O     O_R   0.914490 0.646150 0.773020 -0.636197
O38   O     O_R   0.085510 0.353850 0.226980 -0.627123
O39   O     O_R   0.353850 0.914490 0.773020 -0.634477
O40   O     O_R   0.646150 0.085510 0.226980 -0.625672
O41   O     O_R   0.085510 0.353850 0.773020 -0.636031
O42   O     O_R   0.914490 0.646150 0.226980 -0.627209
O43   O     O_R   0.646150 0.085510 0.773020 -0.633966
O44   O     O_R   0.353850 0.914490 0.226980 -0.627495
O45   O     O_R   0.914490 0.353850 0.226980 -0.622902
O46   O     O_R   0.085510 0.646150 0.773020 -0.667797
O47   O     O_R   0.353850 0.085510 0.226980 -0.621648
O48   O     O_R   0.646150 0.914490 0.773020 -0.660249
O49   O     O_R   0.085510 0.646150 0.226980 -0.622737
O50   O     O_R   0.914490 0.353850 0.773020 -0.669310
O51   O     O_R   0.646150 0.914490 0.226980 -0.621924
O52   O     O_R   0.353850 0.085510 0.773020 -0.662003
Zn1   Zn    Zn3+2 0.413190 0.000000 0.217350 0.944518
Zn2   Zn    Zn3+2 0.586810 0.000000 0.782650 0.937964
Zn3   Zn    Zn3+2 0.000000 0.413190 0.217350 0.943611
Zn4   Zn    Zn3+2 0.000000 0.586810 0.782650 0.934403
Zn5   Zn    Zn3+2 0.586810 0.000000 0.217350 0.946298
Zn6   Zn    Zn3+2 0.413190 0.000000 0.782650 0.937847
Zn7   Zn    Zn3+2 0.000000 0.586810 0.217350 0.944669
Zn8   Zn    Zn3+2 0.000000 0.413190 0.782650 0.935042
Zn9   Zn    Zn3+2 0.913190 0.500000 0.717350 0.946618
Zn10  Zn    Zn3+2 0.086810 0.500000 0.282650 0.938303
Zn11  Zn    Zn3+2 0.500000 0.913190 0.717350 0.944900
Zn12  Zn    Zn3+2 0.500000 0.086810 0.282650 0.933989
Zn13  Zn    Zn3+2 0.086810 0.500000 0.717350 0.945318
Zn14  Zn    Zn3+2 0.913190 0.500000 0.282650 0.939174
Zn15  Zn    Zn3+2 0.500000 0.086810 0.717350 0.943592
Zn16  Zn    Zn3+2 0.500000 0.913190 0.282650 0.934416
O53   O     O_3   0.009431 0.307439 0.461207 -0.645471
C137  C     C_3   0.944603 0.298211 0.441418 0.152638
H1    H     H_    0.951886 0.253548 0.420971 0.159858
H2    H     H_    0.928657 0.345053 0.424102 0.153717
C138  C     C_3   0.885198 0.279920 0.469211 -0.375304
H3    H     H_    0.899523 0.229392 0.483728 0.246984
H4    H     H_    0.878898 0.322774 0.490887 0.213466
C139  C     C_3   0.815470 0.271778 0.447856 -1.026013
H5    H     H_    0.805414 0.318847 0.429300 0.271387
H6    H     H_    0.770769 0.267583 0.468387 0.277204
H7    H     H_    0.817967 0.222795 0.430162 0.277678
O54   O     O_3   0.988904 0.695144 0.536992 -0.646272
C140  C     C_3   0.921915 0.705220 0.553773 0.158522
H8    H     H_    0.930559 0.736607 0.580412 0.180399
H9    H     H_    0.894105 0.655153 0.562650 0.122102
C141  C     C_3   0.875571 0.746569 0.526159 -0.326983
H10   H     H_    0.906955 0.789530 0.512238 0.262860
H11   H     H_    0.854761 0.710111 0.503628 0.205723
C142  C     C_3   0.814824 0.778343 0.548436 -1.051281
H12   H     H_    0.784591 0.734474 0.562133 0.274753
H13   H     H_    0.779480 0.807301 0.529151 0.290435
H14   H     H_    0.835048 0.816336 0.570344 0.274510
O55   O     O_3   0.692834 0.002487 0.461598 -0.644832
C143  C     C_3   0.700320 0.935431 0.443863 0.152536
H15   H     H_    0.746418 0.938769 0.424022 0.160070
H16   H     H_    0.653613 0.920096 0.426169 0.154276
C144  C     C_3   0.714569 0.878108 0.473575 -0.378553
H17   H     H_    0.764242 0.892676 0.488881 0.247665
H18   H     H_    0.669858 0.874869 0.494348 0.211288
C145  C     C_3   0.722373 0.806233 0.454382 -1.024201
H19   H     H_    0.677674 0.796799 0.434031 0.271680
H20   H     H_    0.721156 0.763370 0.476168 0.277317
H21   H     H_    0.774012 0.804668 0.438924 0.278685
O56   O     O_3   0.305142 0.981398 0.536878 -0.643552
C146  C     C_3   0.297968 0.913010 0.552375 0.154818
H22   H     H_    0.269559 0.919043 0.580089 0.184230
H23   H     H_    0.349302 0.885396 0.559044 0.116768
C147  C     C_3   0.254173 0.867967 0.525058 -0.327648
H24   H     H_    0.210417 0.900048 0.512309 0.262680
H25   H     H_    0.288891 0.847834 0.501599 0.202250
C148  C     C_3   0.223299 0.806621 0.547267 -1.045059
H26   H     H_    0.267975 0.776188 0.560144 0.273893
H27   H     H_    0.193106 0.771412 0.528348 0.289078
H28   H     H_    0.186496 0.826394 0.569928 0.272707
O57   O     O_3   0.992991 0.694954 0.461968 -0.647030
C149  C     C_3   0.058276 0.704976 0.442784 0.150876
H29   H     H_    0.051897 0.751464 0.423520 0.159787
H30   H     H_    0.073452 0.659377 0.424306 0.156244
C150  C     C_3   0.117830 0.719981 0.471193 -0.374741
H31   H     H_    0.103854 0.768687 0.487535 0.249945
H32   H     H_    0.124208 0.674648 0.491293 0.211127
C151  C     C_3   0.187546 0.730418 0.450210 -1.028625
H33   H     H_    0.196650 0.686485 0.429419 0.272253
H34   H     H_    0.232462 0.730358 0.470724 0.277983
H35   H     H_    0.185867 0.782161 0.435056 0.278823
O58   O     O_3   0.014674 0.306561 0.535997 -0.648205
C152  C     C_3   0.081178 0.297144 0.553371 0.152138
H36   H     H_    0.071791 0.267028 0.580267 0.181792
H37   H     H_    0.108974 0.347402 0.561840 0.120403
C153  C     C_3   0.127948 0.254513 0.526533 -0.324632
H38   H     H_    0.096358 0.212053 0.512240 0.263352
H39   H     H_    0.150549 0.290295 0.504231 0.204347
C154  C     C_3   0.186816 0.221659 0.549740 -1.048535
H40   H     H_    0.216987 0.264939 0.564072 0.274441
H41   H     H_    0.222741 0.192136 0.531018 0.289163
H42   H     H_    0.164683 0.184035 0.571290 0.274583
O59   O     O_3   0.304773 0.997013 0.462261 -0.643147
C155  C     C_3   0.297069 0.064033 0.444578 0.149441
H43   H     H_    0.250559 0.060783 0.425004 0.159809
H44   H     H_    0.343400 0.079201 0.426591 0.156883
C156  C     C_3   0.283628 0.121561 0.474328 -0.380401
H45   H     H_    0.233918 0.107608 0.489717 0.247089
H46   H     H_    0.328516 0.124205 0.495020 0.210451
C157  C     C_3   0.276591 0.193627 0.455238 -1.022045
H47   H     H_    0.321186 0.202531 0.434832 0.271286
H48   H     H_    0.278577 0.236396 0.477069 0.277297
H49   H     H_    0.224934 0.196040 0.439906 0.278293
O60   O     O_3   0.693644 0.013490 0.536296 -0.647550
C158  C     C_3   0.704608 0.081841 0.551044 0.152890
H50   H     H_    0.734423 0.075552 0.578278 0.181127
H51   H     H_    0.654818 0.111601 0.558364 0.117007
C159  C     C_3   0.748554 0.123841 0.522479 -0.322779
H52   H     H_    0.790898 0.089797 0.509802 0.263276
H53   H     H_    0.713591 0.143599 0.499107 0.204553
C160  C     C_3   0.781866 0.185311 0.543270 -1.054647
H54   H     H_    0.738419 0.216809 0.556569 0.275794
H55   H     H_    0.810926 0.219238 0.523359 0.291021
H56   H     H_    0.819810 0.165928 0.565404 0.275787
O61   O     O_3   0.505386 0.806350 0.961419 -0.644233
C161  C     C_3   0.438302 0.797730 0.943815 0.151259
H57   H     H_    0.441727 0.750492 0.924819 0.160677
H58   H     H_    0.423130 0.843281 0.925306 0.153998
C162  C     C_3   0.380709 0.785373 0.973766 -0.379423
H59   H     H_    0.396032 0.737819 0.990670 0.250988
H60   H     H_    0.376169 0.832129 0.993101 0.209163
C163  C     C_3   0.309211 0.773956 0.954700 -1.025705
H61   H     H_    0.299074 0.815982 0.932921 0.272614
H62   H     H_    0.265997 0.776746 0.976232 0.277841
H63   H     H_    0.308949 0.720653 0.941052 0.279131
O62   O     O_3   0.484533 0.193931 0.036552 -0.646083
C164  C     C_3   0.417658 0.202403 0.053647 0.155766
H64   H     H_    0.426442 0.230987 0.081121 0.184950
H65   H     H_    0.389547 0.151763 0.061048 0.117415
C165  C     C_3   0.371544 0.246588 0.027283 -0.326914
H66   H     H_    0.403584 0.289415 0.013701 0.263205
H67   H     H_    0.348961 0.212004 0.004412 0.204600
C166  C     C_3   0.312667 0.278922 0.050778 -1.049179
H68   H     H_    0.281982 0.235326 0.064363 0.274541
H69   H     H_    0.277260 0.309635 0.032385 0.289399
H70   H     H_    0.334834 0.315359 0.072867 0.274344
O63   O     O_3   0.194640 0.502081 0.962318 -0.643518
C167  C     C_3   0.201656 0.434551 0.945048 0.148134
H71   H     H_    0.248332 0.436816 0.925577 0.160422
H72   H     H_    0.155242 0.419505 0.927068 0.155290
C168  C     C_3   0.214296 0.377710 0.975233 -0.379648
H73   H     H_    0.263545 0.392245 0.990895 0.248083
H74   H     H_    0.168869 0.375432 0.995581 0.210086
C169  C     C_3   0.222030 0.305224 0.956695 -1.022993
H75   H     H_    0.177935 0.295623 0.936041 0.272112
H76   H     H_    0.219778 0.263070 0.978822 0.278000
H77   H     H_    0.274056 0.302688 0.941753 0.278434
O64   O     O_3   0.806123 0.484876 0.036433 -0.645752
C170  C     C_3   0.797070 0.416806 0.051923 0.153824
H78   H     H_    0.767844 0.423553 0.079323 0.182842
H79   H     H_    0.847611 0.388294 0.059147 0.117067
C171  C     C_3   0.753382 0.372627 0.024194 -0.324543
H80   H     H_    0.710587 0.405438 0.011109 0.263725
H81   H     H_    0.788400 0.351895 0.001049 0.203976
C172  C     C_3   0.720889 0.311915 0.046062 -1.052470
H82   H     H_    0.764660 0.280895 0.059288 0.275450
H83   H     H_    0.690931 0.277280 0.026839 0.290768
H84   H     H_    0.683685 0.332222 0.068321 0.274241
O65   O     O_3   0.492605 0.193716 0.961760 -0.644888
C173  C     C_3   0.558173 0.202746 0.942689 0.150507
H85   H     H_    0.552258 0.248544 0.922913 0.160289
H86   H     H_    0.573584 0.156486 0.924759 0.154956
C174  C     C_3   0.617235 0.218572 0.971202 -0.377050
H87   H     H_    0.603040 0.268137 0.986687 0.248090
H88   H     H_    0.622743 0.174220 0.991993 0.211617
C175  C     C_3   0.687543 0.227498 0.950532 -1.026187
H89   H     H_    0.696958 0.182360 0.930551 0.271662
H90   H     H_    0.731951 0.228458 0.971360 0.277784
H91   H     H_    0.686470 0.278322 0.934500 0.278364
O66   O     O_3   0.514832 0.805799 0.036356 -0.647235
C176  C     C_3   0.582470 0.796395 0.052345 0.157579
H92   H     H_    0.574925 0.766592 0.079504 0.183584
H93   H     H_    0.610880 0.846715 0.060082 0.118678
C177  C     C_3   0.627112 0.753315 0.024654 -0.327440
H94   H     H_    0.594434 0.710702 0.011260 0.263860
H95   H     H_    0.647969 0.788742 0.001725 0.203719
C178  C     C_3   0.687715 0.720709 0.046611 -1.051445
H96   H     H_    0.719301 0.764284 0.059648 0.275504
H97   H     H_    0.721749 0.690140 0.027392 0.289880
H98   H     H_    0.667229 0.684002 0.069036 0.275104
O67   O     O_3   0.806498 0.495283 0.961761 -0.645250
C179  C     C_3   0.798057 0.560883 0.942747 0.151959
H99   H     H_    0.753203 0.554990 0.922257 0.159840
H100  H     H_    0.845157 0.576767 0.925542 0.155564
C180  C     C_3   0.780552 0.619355 0.971204 -0.377099
H101  H     H_    0.729547 0.605342 0.985334 0.246033
H102  H     H_    0.823285 0.623803 0.993093 0.213246
C181  C     C_3   0.774073 0.690171 0.950817 -1.024871
H103  H     H_    0.821036 0.699551 0.932090 0.271117
H104  H     H_    0.771728 0.733922 0.972031 0.278161
H105  H     H_    0.724677 0.690094 0.933426 0.278313
O68   O     O_3   0.194589 0.517589 0.036906 -0.643780
C182  C     C_3   0.202339 0.585585 0.052875 0.155526
H106  H     H_    0.229537 0.578704 0.080872 0.186780
H107  H     H_    0.151281 0.614082 0.059082 0.115293
C183  C     C_3   0.247980 0.630176 0.026300 -0.327915
H108  H     H_    0.291386 0.597447 0.013656 0.262166
H109  H     H_    0.214493 0.651614 0.002725 0.203813
C184  C     C_3   0.279618 0.690042 0.049301 -1.046344
H110  H     H_    0.235423 0.720308 0.062760 0.273093
H111  H     H_    0.309774 0.725896 0.030838 0.290435
H112  H     H_    0.316347 0.668912 0.071584 0.272520
N1    N     N_2   0.259479 0.842973 0.189075 -0.300368
H113  H     H_    0.247607 0.815143 0.164782 0.247684
C185  C     C_3   0.233153 0.915477 0.188437 -0.702706
H114  H     H_    0.187028 0.919768 0.169023 0.190529
H115  H     H_    0.275462 0.950787 0.176698 0.273709
H116  H     H_    0.218466 0.933962 0.217629 0.244228
N2    N     N_2   0.756910 0.133255 0.805175 -0.274383
H117  H     H_    0.806636 0.112226 0.810234 0.239523
C186  C     C_3   0.707871 0.126378 0.837503 -0.687166
H118  H     H_    0.731032 0.149569 0.863576 0.208330
H119  H     H_    0.697786 0.068730 0.842780 0.250720
H120  H     H_    0.655836 0.152497 0.831796 0.235152
N3    N     N_2   0.153801 0.256136 0.190098 -0.295530
H121  H     H_    0.179900 0.240740 0.165994 0.247721
C187  C     C_3   0.080945 0.230728 0.190981 -0.698995
H122  H     H_    0.075880 0.181869 0.173730 0.188961
H123  H     H_    0.045765 0.271601 0.177830 0.271839
H124  H     H_    0.062655 0.220584 0.220898 0.243531
N4    N     N_2   0.868838 0.759940 0.804129 -0.277402
H125  H     H_    0.886758 0.810638 0.809625 0.241203
C188  C     C_3   0.879417 0.711672 0.836512 -0.680788
H126  H     H_    0.860615 0.735991 0.863464 0.203656
H127  H     H_    0.937638 0.700955 0.839734 0.253646
H128  H     H_    0.851738 0.660015 0.832512 0.236452
N5    N     N_2   0.739272 0.157848 0.188862 -0.300788
H129  H     H_    0.750389 0.186519 0.164834 0.249628
C189  C     C_3   0.765902 0.085474 0.187376 -0.701222
H130  H     H_    0.811737 0.082089 0.167668 0.190304
H131  H     H_    0.723550 0.050356 0.175526 0.271989
H132  H     H_    0.781104 0.066119 0.216325 0.244513
N6    N     N_2   0.243753 0.865994 0.805731 -0.275921
H133  H     H_    0.194196 0.887241 0.811016 0.238810
C190  C     C_3   0.293850 0.873230 0.837576 -0.683287
H134  H     H_    0.271244 0.851306 0.864129 0.205101
H135  H     H_    0.304749 0.930908 0.842359 0.252592
H136  H     H_    0.345429 0.846352 0.831683 0.234522
N7    N     N_2   0.845070 0.742491 0.189904 -0.296322
H137  H     H_    0.817730 0.756401 0.165947 0.250394
C191  C     C_3   0.917723 0.768463 0.189787 -0.700695
H138  H     H_    0.921860 0.816437 0.171813 0.189660
H139  H     H_    0.952818 0.727195 0.176929 0.270904
H140  H     H_    0.936747 0.780143 0.219415 0.243761
N8    N     N_2   0.131943 0.241165 0.804482 -0.277299
H141  H     H_    0.113561 0.190721 0.810180 0.240535
C192  C     C_3   0.122402 0.290078 0.836749 -0.680634
H142  H     H_    0.142238 0.266418 0.863609 0.203894
H143  H     H_    0.064309 0.300797 0.840446 0.253097
H144  H     H_    0.149839 0.341667 0.832167 0.236630
N9    N     N_2   0.230756 0.134092 0.801791 -0.303763
H145  H     H_    0.271535 0.122007 0.819481 0.266899
C193  C     C_3   0.192636 0.072758 0.787372 -0.778621
H146  H     H_    0.173907 0.041254 0.812611 0.227629
H147  H     H_    0.228066 0.037839 0.769681 0.267590
H148  H     H_    0.145511 0.089894 0.770110 0.229965
N10   N     N_2   0.753936 0.858708 0.194782 -0.280358
H149  H     H_    0.804517 0.874303 0.186917 0.224931
C194  C     C_3   0.704478 0.854724 0.162705 -0.720175
H150  H     H_    0.686663 0.909430 0.155260 0.260200
H151  H     H_    0.656777 0.822297 0.169783 0.236893
H152  H     H_    0.730761 0.831676 0.137134 0.196819
N11   N     N_2   0.135063 0.766605 0.803055 -0.302510
H153  H     H_    0.120704 0.723388 0.818778 0.269213
C195  C     C_3   0.074731 0.806567 0.789275 -0.795296
H154  H     H_    0.047134 0.830796 0.814318 0.230334
H155  H     H_    0.036188 0.771032 0.774571 0.271717
H156  H     H_    0.091415 0.849288 0.769456 0.234073
N12   N     N_2   0.855252 0.249501 0.192779 -0.280985
H157  H     H_    0.870556 0.199643 0.183416 0.225452
C196  C     C_3   0.849852 0.301794 0.162174 -0.719798
H158  H     H_    0.904203 0.320264 0.154428 0.262199
H159  H     H_    0.817848 0.348800 0.170975 0.234759
H160  H     H_    0.825500 0.277979 0.136228 0.197494
N13   N     N_2   0.769249 0.866455 0.801495 -0.302047
H161  H     H_    0.729668 0.877547 0.820215 0.267423
C197  C     C_3   0.807283 0.927866 0.787245 -0.784262
H162  H     H_    0.827164 0.958318 0.812540 0.226995
H163  H     H_    0.771802 0.963481 0.770465 0.270123
H164  H     H_    0.853388 0.911120 0.769537 0.231426
N14   N     N_2   0.246236 0.140952 0.194816 -0.280447
H165  H     H_    0.195711 0.125010 0.187089 0.224057
C198  C     C_3   0.295474 0.144974 0.162662 -0.720367
H166  H     H_    0.312852 0.090242 0.154925 0.258915
H167  H     H_    0.343453 0.176936 0.169762 0.237288
H168  H     H_    0.269134 0.168572 0.137242 0.195970
N15   N     N_2   0.865320 0.232975 0.802869 -0.301371
H169  H     H_    0.879855 0.276431 0.818329 0.271079
C199  C     C_3   0.925718 0.193468 0.788813 -0.796494
H170  H     H_    0.953607 0.168884 0.813629 0.230241
H171  H     H_    0.963987 0.229483 0.774261 0.271693
H172  H     H_    0.909249 0.150982 0.768735 0.234048
N16   N     N_2   0.144171 0.750477 0.192987 -0.280951
H173  H     H_    0.128206 0.800319 0.183995 0.225325
C200  C     C_3   0.149567 0.698544 0.162174 -0.718069
H174  H     H_    0.095257 0.679780 0.154543 0.262677
H175  H     H_    0.181923 0.651636 0.170739 0.234913
H176  H     H_    0.173547 0.722807 0.136285 0.196521
N17   N     N_2   0.761689 0.340757 0.688449 -0.300656
H177  H     H_    0.751084 0.311283 0.664556 0.251338
C201  C     C_3   0.735372 0.413191 0.686125 -0.700735
H178  H     H_    0.690849 0.416444 0.665543 0.190445
H179  H     H_    0.778546 0.447944 0.674826 0.271535
H180  H     H_    0.718383 0.433150 0.714695 0.244047
N18   N     N_2   0.257837 0.632555 0.304665 -0.275365
H181  H     H_    0.307635 0.611425 0.309377 0.239257
C202  C     C_3   0.209341 0.625225 0.337203 -0.684969
H182  H     H_    0.233241 0.647360 0.363356 0.207230
H183  H     H_    0.198819 0.567523 0.342068 0.251088
H184  H     H_    0.157463 0.652000 0.331988 0.235086
N19   N     N_2   0.655796 0.757950 0.689602 -0.297048
H185  H     H_    0.683608 0.743827 0.665844 0.250279
C203  C     C_3   0.582969 0.732426 0.688929 -0.700067
H186  H     H_    0.578833 0.684917 0.670536 0.189332
H187  H     H_    0.548367 0.774173 0.676147 0.270802
H188  H     H_    0.563271 0.720195 0.718351 0.244229
N20   N     N_2   0.367605 0.258730 0.304899 -0.277849
H189  H     H_    0.385384 0.309241 0.310941 0.242434
C204  C     C_3   0.378058 0.209312 0.336787 -0.681070
H190  H     H_    0.359240 0.232597 0.363982 0.202768
H191  H     H_    0.436264 0.198493 0.339977 0.254430
H192  H     H_    0.350367 0.157840 0.332236 0.236664
N21   N     N_2   0.243439 0.653534 0.690411 -0.299507
H193  H     H_    0.256758 0.679681 0.665867 0.248027
C205  C     C_3   0.269801 0.581031 0.691464 -0.700485
H194  H     H_    0.317872 0.575996 0.673477 0.190099
H195  H     H_    0.228686 0.545152 0.679018 0.272613
H196  H     H_    0.281491 0.563900 0.721300 0.243452
N22   N     N_2   0.742000 0.368016 0.304379 -0.274657
H197  H     H_    0.692303 0.389577 0.308765 0.239126
C206  C     C_3   0.789871 0.374863 0.337164 -0.685544
H198  H     H_    0.765719 0.351662 0.362987 0.209340
H199  H     H_    0.799837 0.432511 0.342606 0.249314
H200  H     H_    0.842104 0.348795 0.331992 0.235223
N23   N     N_2   0.346338 0.243645 0.690248 -0.294422
H201  H     H_    0.320135 0.258817 0.666082 0.248006
C207  C     C_3   0.419101 0.269491 0.691130 -0.698407
H202  H     H_    0.423939 0.318389 0.673873 0.188616
H203  H     H_    0.454454 0.228737 0.677974 0.271325
H204  H     H_    0.437301 0.279764 0.721106 0.243140
N24   N     N_2   0.632273 0.741087 0.304575 -0.277187
H205  H     H_    0.614231 0.690566 0.310379 0.241765
C208  C     C_3   0.622674 0.790110 0.336783 -0.683595
H206  H     H_    0.642681 0.766583 0.363638 0.203756
H207  H     H_    0.564568 0.800712 0.340513 0.253843
H208  H     H_    0.649961 0.841758 0.332128 0.236669
N25   N     N_2   0.731152 0.633406 0.301165 -0.302142
H209  H     H_    0.767898 0.623539 0.321275 0.265349
C209  C     C_3   0.691955 0.572554 0.287083 -0.791710
H210  H     H_    0.667048 0.546015 0.312046 0.227093
H211  H     H_    0.727940 0.533582 0.273085 0.272361
H212  H     H_    0.649714 0.589292 0.266785 0.233914
N26   N     N_2   0.254367 0.359236 0.695077 -0.280579
H213  H     H_    0.305026 0.375207 0.687553 0.224101
C210  C     C_3   0.205484 0.355459 0.662733 -0.722570
H214  H     H_    0.188054 0.410241 0.655186 0.258616
H215  H     H_    0.157489 0.323287 0.669574 0.237528
H216  H     H_    0.232118 0.332233 0.637313 0.196568
N27   N     N_2   0.634307 0.267543 0.302649 -0.300517
H217  H     H_    0.620136 0.224407 0.318444 0.271161
C211  C     C_3   0.573638 0.306670 0.288606 -0.795281
H218  H     H_    0.545649 0.330953 0.313505 0.230178
H219  H     H_    0.535541 0.270553 0.273988 0.271674
H220  H     H_    0.589966 0.349270 0.268628 0.233629
N28   N     N_2   0.357393 0.747643 0.693901 -0.280981
H221  H     H_    0.373813 0.697609 0.685391 0.224138
C212  C     C_3   0.352097 0.798392 0.662546 -0.717712
H222  H     H_    0.406417 0.817072 0.654873 0.261424
H223  H     H_    0.319429 0.845455 0.670516 0.235471
H224  H     H_    0.328587 0.773094 0.636794 0.196619
N29   N     N_2   0.269260 0.366283 0.301385 -0.301671
H225  H     H_    0.228488 0.379412 0.319210 0.266699
C213  C     C_3   0.309322 0.426355 0.287153 -0.797619
H226  H     H_    0.333757 0.453339 0.312285 0.228713
H227  H     H_    0.274168 0.465267 0.272584 0.270580
H228  H     H_    0.352076 0.408723 0.267487 0.235429
N30   N     N_2   0.746036 0.641171 0.694805 -0.279909
H229  H     H_    0.695384 0.625833 0.686913 0.225087
C214  C     C_3   0.795536 0.644823 0.662720 -0.720935
H230  H     H_    0.813254 0.590020 0.655343 0.259950
H231  H     H_    0.843288 0.677278 0.669720 0.236517
H232  H     H_    0.769251 0.667668 0.637058 0.196182
N31   N     N_2   0.365610 0.733012 0.302703 -0.301831
H233  H     H_    0.379657 0.776453 0.318362 0.270950
C215  C     C_3   0.426371 0.694008 0.288686 -0.792618
H234  H     H_    0.454943 0.670428 0.313562 0.230089
H235  H     H_    0.463938 0.730122 0.273699 0.271897
H236  H     H_    0.410197 0.650779 0.269006 0.232963
N32   N     N_2   0.644761 0.250239 0.692733 -0.280912
H237  H     H_    0.629447 0.300077 0.683397 0.226016
C216  C     C_3   0.649998 0.197696 0.662204 -0.720168
H238  H     H_    0.595704 0.178407 0.654937 0.264096
H239  H     H_    0.682880 0.151214 0.670866 0.234143
H240  H     H_    0.673258 0.221614 0.636035 0.198140
O69   O     O_3   0.956307 0.620223 0.397917 -0.657611
C217  C     C_3   0.890600 0.646225 0.412227 0.156027
H241  H     H_    0.896838 0.703618 0.418934 0.203402
H242  H     H_    0.870067 0.618332 0.438154 0.113020
C218  C     C_3   0.834797 0.640678 0.381519 -0.375648
H243  H     H_    0.857210 0.663641 0.354699 0.232046
H244  H     H_    0.822135 0.583639 0.376906 0.226022
C219  C     C_3   0.767096 0.680519 0.392890 -1.020772
H245  H     H_    0.758415 0.677340 0.424264 0.275762
H246  H     H_    0.719809 0.656465 0.379014 0.279915
H247  H     H_    0.770998 0.737032 0.383775 0.277364
O70   O     O_3   0.986626 0.374562 0.603188 -0.665925
C220  C     C_3   0.924714 0.336606 0.592301 0.146773
H248  H     H_    0.935650 0.278686 0.595692 0.176372
H249  H     H_    0.908574 0.345818 0.562204 0.168006
C221  C     C_3   0.860992 0.355944 0.616400 -0.358955
H250  H     H_    0.870615 0.337492 0.646154 0.241523
H251  H     H_    0.853238 0.414389 0.616402 0.235673
C222  C     C_3   0.795066 0.320824 0.599043 -1.045404
H252  H     H_    0.796479 0.321857 0.567380 0.275538
H253  H     H_    0.746241 0.350193 0.607058 0.272044
H254  H     H_    0.792128 0.264710 0.609137 0.272604
O71   O     O_3   0.377347 0.962996 0.397308 -0.660089
C223  C     C_3   0.347793 0.897856 0.410091 0.163902
H255  H     H_    0.290090 0.906155 0.415552 0.202391
H256  H     H_    0.372474 0.875559 0.436587 0.114069
C224  C     C_3   0.354123 0.842746 0.378959 -0.381847
H257  H     H_    0.335541 0.866617 0.351605 0.234199
H258  H     H_    0.410835 0.826872 0.376395 0.224828
C225  C     C_3   0.309289 0.777542 0.388523 -1.019389
H259  H     H_    0.313927 0.764615 0.419399 0.275128
H260  H     H_    0.328362 0.730414 0.372662 0.289546
H261  H     H_    0.252868 0.787476 0.380643 0.276980
O72   O     O_3   0.626047 0.990248 0.603577 -0.663007
C226  C     C_3   0.664206 0.927482 0.594421 0.142831
H262  H     H_    0.722183 0.938112 0.598719 0.173010
H263  H     H_    0.656630 0.910234 0.564335 0.171661
C227  C     C_3   0.642895 0.864669 0.619066 -0.350966
H264  H     H_    0.661746 0.873973 0.648952 0.238131
H265  H     H_    0.584045 0.858731 0.619033 0.236982
C228  C     C_3   0.676367 0.797461 0.602128 -1.034139
H266  H     H_    0.677528 0.798229 0.570401 0.271264
H267  H     H_    0.644201 0.749894 0.609356 0.270102
H268  H     H_    0.731813 0.792350 0.613045 0.272936
O73   O     O_3   0.047011 0.382381 0.397766 -0.655857
C229  C     C_3   0.112862 0.356825 0.412170 0.153323
H269  H     H_    0.106629 0.299879 0.419833 0.205063
H270  H     H_    0.134107 0.386323 0.437458 0.111398
C230  C     C_3   0.167868 0.359970 0.380982 -0.373439
H271  H     H_    0.144169 0.336364 0.354624 0.232641
H272  H     H_    0.181502 0.416602 0.375783 0.224414
C231  C     C_3   0.235134 0.319142 0.391986 -1.014563
H273  H     H_    0.245578 0.323931 0.423171 0.274116
H274  H     H_    0.282052 0.341205 0.376832 0.283629
H275  H     H_    0.229413 0.262194 0.383918 0.276602
O74   O     O_3   0.014304 0.626419 0.603704 -0.663845
C232  C     C_3   0.078345 0.662620 0.594728 0.139644
H276  H     H_    0.070717 0.720090 0.601390 0.167936
H277  H     H_    0.093330 0.658734 0.564172 0.176436
C233  C     C_3   0.141414 0.634836 0.617202 -0.360478
H278  H     H_    0.134404 0.649527 0.647787 0.246837
H279  H     H_    0.144724 0.576186 0.614676 0.235427
C234  C     C_3   0.209433 0.666903 0.600616 -1.040496
H280  H     H_    0.209394 0.665778 0.568881 0.274053
H281  H     H_    0.256583 0.635340 0.609398 0.272371
H282  H     H_    0.214248 0.722814 0.610750 0.272528
O75   O     O_3   0.620472 0.038282 0.397653 -0.657183
C235  C     C_3   0.648975 0.103773 0.410719 0.161513
H283  H     H_    0.706642 0.096185 0.416550 0.202513
H284  H     H_    0.623459 0.125773 0.437069 0.111367
C236  C     C_3   0.642620 0.158733 0.379576 -0.379074
H285  H     H_    0.661912 0.134761 0.352353 0.233631
H286  H     H_    0.585766 0.173883 0.376646 0.224541
C237  C     C_3   0.686686 0.224537 0.389209 -1.014610
H287  H     H_    0.684979 0.235641 0.420408 0.273429
H288  H     H_    0.665002 0.272072 0.374659 0.287225
H289  H     H_    0.742483 0.216413 0.379624 0.276301
O76   O     O_3   0.373271 0.006237 0.604174 -0.664217
C238  C     C_3   0.333753 0.068607 0.596108 0.133319
H290  H     H_    0.276620 0.057446 0.601982 0.169573
H291  H     H_    0.337865 0.085422 0.565901 0.175777
C239  C     C_3   0.356768 0.131596 0.620170 -0.350106
H292  H     H_    0.338922 0.123466 0.650251 0.237008
H293  H     H_    0.415474 0.136748 0.619619 0.239994
C240  C     C_3   0.324204 0.199054 0.603252 -1.032218
H294  H     H_    0.322416 0.197564 0.571570 0.270558
H295  H     H_    0.357812 0.245960 0.609826 0.269165
H296  H     H_    0.269216 0.205692 0.614630 0.274307
O77   O     O_3   0.455756 0.119377 0.897718 -0.656988
C241  C     C_3   0.390158 0.145975 0.911910 0.155723
H297  H     H_    0.396996 0.203148 0.918965 0.204431
H298  H     H_    0.368892 0.117768 0.937564 0.112755
C242  C     C_3   0.334709 0.141958 0.880935 -0.375314
H299  H     H_    0.357887 0.164825 0.854285 0.232277
H300  H     H_    0.320963 0.085214 0.876158 0.225198
C243  C     C_3   0.267672 0.183017 0.892120 -1.017235
H301  H     H_    0.257321 0.177891 0.923281 0.274499
H302  H     H_    0.220573 0.161290 0.877011 0.284032
H303  H     H_    0.273614 0.240040 0.884311 0.276131
O78   O     O_3   0.490087 0.873683 0.103358 -0.662942
C244  C     C_3   0.426236 0.836653 0.095100 0.136051
H304  H     H_    0.433861 0.779758 0.103187 0.165118
H305  H     H_    0.411831 0.837718 0.064434 0.181973
C245  C     C_3   0.362627 0.866566 0.116389 -0.366612
H306  H     H_    0.368745 0.854626 0.147360 0.249932
H307  H     H_    0.359216 0.925001 0.112382 0.233614
C246  C     C_3   0.295127 0.833333 0.099968 -1.040889
H308  H     H_    0.295537 0.833693 0.068263 0.274174
H309  H     H_    0.247702 0.864249 0.108695 0.275407
H310  H     H_    0.291422 0.777485 0.110274 0.272779
O79   O     O_3   0.879905 0.459610 0.897685 -0.658854
C247  C     C_3   0.851954 0.394190 0.911139 0.159804
H311  H     H_    0.794439 0.401555 0.917426 0.203744
H312  H     H_    0.878435 0.372428 0.937266 0.112169
C248  C     C_3   0.857263 0.339168 0.879971 -0.378511
H313  H     H_    0.837566 0.363395 0.852935 0.234579
H314  H     H_    0.913905 0.323459 0.876754 0.224267
C249  C     C_3   0.812808 0.273784 0.889720 -1.017275
H315  H     H_    0.816791 0.261382 0.920699 0.274567
H316  H     H_    0.832543 0.226637 0.874056 0.289349
H317  H     H_    0.756487 0.283204 0.881493 0.276256
O80   O     O_3   0.126473 0.493263 0.104094 -0.664987
C250  C     C_3   0.165197 0.430351 0.096188 0.130295
H318  H     H_    0.222268 0.440471 0.102743 0.169007
H319  H     H_    0.162000 0.413940 0.065882 0.177307
C251  C     C_3   0.140158 0.367498 0.119689 -0.350728
H320  H     H_    0.156308 0.375414 0.150061 0.240682
H321  H     H_    0.081471 0.362881 0.118110 0.238148
C252  C     C_3   0.173004 0.299870 0.103153 -1.033602
H322  H     H_    0.175075 0.300953 0.071470 0.270824
H323  H     H_    0.139647 0.253008 0.109979 0.270569
H324  H     H_    0.227925 0.293725 0.114606 0.274371
O81   O     O_3   0.541722 0.879864 0.897575 -0.655759
C253  C     C_3   0.607535 0.853006 0.911270 0.159409
H325  H     H_    0.601008 0.795400 0.917341 0.202404
H326  H     H_    0.628516 0.879702 0.937479 0.112648
C254  C     C_3   0.663089 0.859606 0.880488 -0.378631
H327  H     H_    0.640722 0.836911 0.853578 0.230661
H328  H     H_    0.675176 0.916831 0.876168 0.227052
C255  C     C_3   0.731338 0.820314 0.891512 -1.015266
H329  H     H_    0.739230 0.821268 0.922978 0.273721
H330  H     H_    0.778437 0.846403 0.878574 0.280740
H331  H     H_    0.728953 0.764490 0.881104 0.278118
O82   O     O_3   0.511932 0.125971 0.103419 -0.665414
C256  C     C_3   0.574697 0.163590 0.093725 0.140545
H332  H     H_    0.565370 0.221086 0.099484 0.171049
H333  H     H_    0.589897 0.158353 0.063265 0.174603
C257  C     C_3   0.638483 0.139063 0.116474 -0.361916
H334  H     H_    0.630418 0.154445 0.146867 0.245342
H335  H     H_    0.644038 0.080549 0.114489 0.235087
C258  C     C_3   0.705194 0.173441 0.099649 -1.042101
H336  H     H_    0.704840 0.172239 0.067949 0.274751
H337  H     H_    0.753537 0.143712 0.108199 0.272735
H338  H     H_    0.708267 0.229471 0.109728 0.272828
O83   O     O_3   0.122384 0.537075 0.897406 -0.658739
C259  C     C_3   0.152595 0.601827 0.910428 0.163166
H339  H     H_    0.209956 0.592668 0.916437 0.204015
H340  H     H_    0.127282 0.624747 0.936601 0.113352
C260  C     C_3   0.148482 0.656837 0.879191 -0.381411
H341  H     H_    0.167372 0.632597 0.851955 0.234527
H342  H     H_    0.092163 0.673843 0.876211 0.223647
C261  C     C_3   0.194504 0.721048 0.889155 -1.019690
H343  H     H_    0.187325 0.735518 0.919732 0.275503
H344  H     H_    0.178549 0.767925 0.872127 0.290809
H345  H     H_    0.251361 0.708961 0.883070 0.275110
O84   O     O_3   0.873814 0.509571 0.103759 -0.664541
C262  C     C_3   0.835217 0.572011 0.094601 0.140327
H346  H     H_    0.777494 0.560837 0.098701 0.173417
H347  H     H_    0.842746 0.589329 0.064615 0.171352
C263  C     C_3   0.855526 0.634703 0.119515 -0.349186
H348  H     H_    0.835365 0.625490 0.149106 0.235631
H349  H     H_    0.914256 0.640454 0.120327 0.239939
C264  C     C_3   0.823203 0.702082 0.102232 -1.036395
H350  H     H_    0.822952 0.700878 0.070536 0.271623
H351  H     H_    0.855819 0.749325 0.109436 0.269559
H352  H     H_    0.767656 0.708214 0.112825 0.273176

loop_
_geom_bond_atom_site_label_1
_geom_bond_atom_site_label_2
_ccdc_geom_bond_type
C169  H76   S    
N14   H165  S    
N6    C190  S    
O29   Zn11  S    
C60   O38   A    
C192  H142  S    
C71   C122  A    
C253  H326  S    
C142  H12   S    
C259  C260  S    
O18   Zn3   S    
C236  C237  S    
C237  H289  S    
C256  C257  S    
O65   C173  S    
C142  H14   S    
C214  H230  S    
C163  H61   S    
C200  H176  S    
C145  H20   S    
C66   C79   A    
C27   C99   A    
O60   C158  S    
C228  H266  S    
C7    C99   A    
C52   O46   A    
C230  H271  S    
C232  H277  S    
O13   Zn8   S    
C238  C239  S    
C234  H281  S    
C169  H77   S    
C229  H269  S    
C149  H30   S    
O59   C155  S    
C151  H35   S    
C206  H198  S    
C212  H224  S    
C66   N2    S    
C220  H248  S    
C189  H132  S    
O80   C250  S    
C179  H99   S    
C184  H112  S    
C188  H127  S    
C258  H336  S    
N26   H213  S    
O27   Zn10  S    
C165  H67   S    
C219  H245  S    
N31   C215  S    
C241  C242  S    
C14   O82   S    
C147  H25   S    
C221  C222  S    
C3    C19   A    
O64   C170  S    
C193  H148  S    
C37   C109  A    
C233  C234  S    
O38   Zn3   S    
C69   N5    S    
C149  C150  S    
C256  H333  S    
C228  H267  S    
C148  H26   S    
O51   Zn5   S    
C203  H187  S    
O46   Zn4   S    
O49   Zn7   S    
C67   N3    S    
O47   Zn1   S    
C143  H15   S    
C240  H295  S    
O3    Zn7   S    
C244  H304  S    
C248  C249  S    
C205  H195  S    
C155  H44   S    
C165  H66   S    
C62   O34   A    
C201  H180  S    
C147  C148  S    
C171  H80   S    
C109  C133  A    
C215  H234  S    
C34   C106  A    
C191  H140  S    
C223  H255  S    
C248  H314  S    
C92   C123  A    
O24   Zn13  S    
C206  H199  S    
C137  H1    S    
C72   C73   A    
C216  H240  S    
C207  H203  S    
C172  H82   S    
C77   N13   S    
O69   C217  S    
C96   C127  A    
C167  H71   S    
C145  H21   S    
C254  C255  S    
C17   C43   S    
C217  H241  S    
N15   C199  S    
C18   C44   S    
C57   C123  S    
N22   C206  S    
C225  H260  S    
O55   C143  S    
C218  C219  S    
C177  H94   S    
C30   C102  A    
C13   C21   A    
C61   C127  S    
C185  H114  S    
C221  H250  S    
C88   C119  A    
C263  H349  S    
C89   N25   S    
C171  H81   S    
C4    O72   S    
C49   C115  S    
C61   O43   A    
C7    C19   A    
C210  H215  S    
N1    H113  S    
C192  H144  S    
C239  H293  S    
C172  H84   S    
C61   O33   A    
C251  H321  S    
C236  H285  S    
C1    C101  A    
N8    H141  S    
C244  C245  S    
C59   O31   A    
O28   Zn9   S    
C225  H261  S    
C105  C133  A    
N3    H121  S    
C214  H232  S    
C3    C103  A    
C68   C77   A    
N4    C188  S    
O53   C137  S    
C159  C160  S    
C191  H139  S    
C50   O48   A    
C74   N10   S    
C102  C130  A    
O70   C220  S    
C51   O45   A    
C20   C42   S    
C238  H290  S    
C100  C132  A    
O1    Zn16  S    
C195  H154  S    
C227  C228  S    
O73   C229  S    
C56   O28   A    
C33   C38   A    
C24   C46   S    
C251  C252  S    
C35   C40   A    
C200  H174  S    
C55   O27   A    
N17   C201  S    
O77   C241  S    
C159  H53   S    
C9    C21   A    
C75   N11   S    
C257  C258  S    
C4    C104  A    
C11   C23   A    
O66   C176  S    
C72   N8    S    
C144  C145  S    
C84   C93   A    
C195  H155  S    
C35   C107  A    
O76   C238  S    
C253  C254  S    
C57   O29   A    
C88   C89   A    
N20   H189  S    
N29   C213  S    
C224  C225  S    
O67   C179  S    
C197  H163  S    
N23   C207  S    
C242  H300  S    
N5    H129  S    
C143  C144  S    
N10   C194  S    
C52   O24   A    
C209  H212  S    
C168  H74   S    
C148  H27   S    
C176  H92   S    
C46   O14   A    
C36   C108  A    
O45   Zn3   S    
C191  H138  S    
C223  C224  S    
N19   H185  S    
C207  H204  S    
C27   O55   S    
C235  H283  S    
C160  H56   S    
C188  H126  S    
C226  C227  S    
C40   C112  A    
N9    H145  S    
C50   O22   A    
N14   C198  S    
O57   C149  S    
C202  H182  S    
C167  C168  S    
C30   O58   S    
C167  H72   S    
C243  H301  S    
N26   C210  S    
C221  H251  S    
C222  H254  S    
O44   Zn1   S    
N16   C200  S    
C150  H31   S    
C154  H42   S    
O33   Zn15  S    
C89   C122  A    
C2    C102  A    
N4    H125  S    
C177  C178  S    
N5    C189  S    
O74   C232  S    
C69   C76   A    
C8    O76   S    
C263  H348  S    
C79   N15   S    
C183  H108  S    
C57   O39   A    
C95   C128  A    
C12   O80   S    
C193  H146  S    
C36   O64   S    
C153  H38   S    
C164  H65   S    
C151  H34   S    
C81   C114  A    
C186  H120  S    
C204  H191  S    
C218  H243  S    
C39   O67   S    
O40   Zn5   S    
C80   N16   S    
C81   N17   S    
C82   N18   S    
C152  H37   S    
C87   C90   A    
C163  H63   S    
C44   O8    A    
O2    Zn11  S    
C76   N12   S    
N25   H209  S    
C211  H220  S    
N24   H205  S    
C162  H60   S    
C49   O21   A    
C252  H322  S    
C112  C136  A    
C2    O70   S    
C141  H10   S    
N7    C191  S    
C85   C92   A    
C233  H279  S    
C160  H54   S    
C172  H83   S    
C174  H88   S    
C96   N32   S    
C156  C157  S    
C94   C125  A    
C78   C115  A    
C15   O83   S    
C230  C231  S    
C170  H79   S    
C194  H151  S    
C155  H43   S    
C237  H288  S    
C196  H159  S    
C140  H8    S    
C157  H49   S    
C54   O26   A    
C168  H73   S    
C215  H235  S    
C183  C184  S    
C29   O57   S    
O61   C161  S    
C264  H351  S    
O71   C223  S    
C139  H7    S    
C182  C183  S    
C87   N23   S    
C32   C104  A    
C138  H3    S    
C146  H23   S    
C139  H5    S    
O36   Zn14  S    
C208  H207  S    
C181  H105  S    
C6    O74   S    
C25   C97   A    
C178  H97   S    
C5    C97   A    
C227  H264  S    
C176  C177  S    
C173  H86   S    
C166  H69   S    
C48   O16   A    
C3    O71   S    
C90   C121  A    
C241  H298  S    
C148  H28   S    
C38   C110  A    
C207  H202  S    
C235  C236  S    
C10   O78   S    
C179  H100  S    
C12   C112  A    
C188  H128  S    
C247  H311  S    
C68   N4    S    
N1    C185  S    
C129  C130  A    
C198  H168  S    
N24   C208  S    
C44   O12   A    
C82   C95   A    
C217  C218  S    
C258  H337  S    
O34   Zn16  S    
C243  H303  S    
C40   O68   S    
C82   C113  A    
C175  H90   S    
O58   C152  S    
N2    C186  S    
O3    Zn14  S    
C152  C153  S    
C205  H194  S    
C142  H13   S    
C90   N26   S    
C200  H175  S    
C173  C174  S    
C12   C24   A    
C1    C17   A    
O21   Zn12  S    
C7    O75   S    
C14   C22   A    
N21   C205  S    
C8    C100  A    
C185  H116  S    
O19   Zn6   S    
C232  H276  S    
C260  C261  S    
C238  H291  S    
C229  H270  S    
C153  C154  S    
C39   C111  A    
C180  C181  S    
C169  H75   S    
O48   Zn2   S    
C189  H131  S    
C261  H343  S    
C58   O30   A    
O14   Zn7   S    
C184  H111  S    
C110  C134  A    
O54   C140  S    
C197  H162  S    
C262  C263  S    
C80   C113  A    
C190  H135  S    
N31   H233  S    
C211  H218  S    
O84   C262  S    
C219  H247  S    
C157  H47   S    
N11   C195  S    
C103  C131  A    
C68   C125  A    
C231  H275  S    
C194  H150  S    
C52   C118  S    
C21   C47   S    
C229  C230  S    
C101  C129  A    
C22   C48   S    
C190  H134  S    
C23   C45   S    
C72   C121  A    
C34   C37   A    
C220  H249  S    
O25   Zn16  S    
C43   O7    A    
C201  H178  S    
O5    Zn16  S    
O79   C247  S    
C143  H16   S    
C240  H294  S    
O3    Zn10  S    
C135  C136  A    
N8    C192  S    
C10   C22   A    
C140  C141  S    
O32   Zn10  S    
N28   H221  S    
C6    C98   A    
C245  H306  S    
C213  H227  S    
C146  H22   S    
C223  H256  S    
C202  H184  S    
O3    Zn3   S    
C86   C91   A    
C161  H57   S    
C187  H124  S    
C137  H2    S    
C216  H239  S    
C34   O62   S    
C182  H106  S    
C138  C139  S    
C26   O54   S    
C15   C107  A    
C86   N22   S    
N13   C197  S    
C155  C156  S    
C181  H103  S    
C107  C135  A    
C28   O56   S    
C49   O47   A    
O15   Zn2   S    
O8    Zn9   S    
C226  H262  S    
C218  H244  S    
C171  C172  S    
C177  H95   S    
C180  H101  S    
C91   N27   S    
C60   O32   A    
C213  H228  S    
C257  H334  S    
C247  C248  S    
C55   O49   A    
O2    Zn6   S    
C253  H325  S    
C48   O20   A    
O63   C167  S    
C73   C120  A    
C54   O52   A    
C210  H214  S    
C9    C109  A    
C192  H143  S    
C239  C240  S    
C75   C118  A    
C25   O53   S    
C231  H274  S    
C244  H305  S    
C163  H62   S    
O68   C182  S    
C214  H231  S    
C73   N9    S    
C46   O18   A    
C11   C111  A    
N12   H157  S    
C65   C128  A    
C234  H280  S    
C33   C105  A    
O9    Zn12  S    
C246  H309  S    
C67   C126  A    
C260  H341  S    
C81   C96   A    
C234  H282  S    
C92   N28   S    
C69   C124  A    
C236  H286  S    
C149  H29   S    
C198  H166  S    
C83   C94   A    
C217  H242  S    
C36   C39   A    
C88   N24   S    
C64   O36   A    
N16   H173  S    
C28   C31   A    
O16   Zn1   S    
C150  C151  S    
C64   O42   A    
O2    Zn15  S    
C63   O35   A    
C248  H313  S    
C175  H91   S    
C154  H40   S    
C196  H160  S    
C16   O84   S    
C98   C130  A    
C53   C119  S    
O22   Zn11  S    
O31   Zn9   S    
C29   C101  A    
C144  H18   S    
O4    Zn9   S    
C8    C20   A    
C33   O61   S    
C161  C162  S    
C13   C105  A    
N18   C202  S    
C56   O50   A    
C228  H268  S    
C224  H258  S    
C31   O59   S    
C133  C134  A    
C203  H188  S    
C232  C233  S    
C59   C125  S    
C145  H19   S    
C131  C132  A    
C42   O10   A    
C38   O66   S    
C246  H308  S    
C240  H296  S    
N10   H149  S    
C205  H196  S    
O50   Zn8   S    
C25   C30   A    
C209  H211  S    
O7    Zn10  S    
O56   C146  S    
C27   C32   A    
C58   C124  S    
C245  C246  S    
C259  H340  S    
O23   Zn14  S    
C235  H284  S    
C206  H200  S    
C249  H316  S    
C187  H122  S    
C226  H263  S    
C94   N30   S    
O37   Zn4   S    
C76   C117  A    
C249  H315  S    
O26   Zn15  S    
C204  H192  S    
C243  H302  S    
C170  H78   S    
O4    Zn13  S    
O6    Zn15  S    
C85   N21   S    
C154  H41   S    
C111  C135  A    
C225  H259  S    
C152  H36   S    
C60   C126  S    
C95   N31   S    
C10   C110  A    
C85   C118  A    
C183  H109  S    
C249  H317  S    
C86   C117  A    
C139  H6    S    
C70   N6    S    
C14   C106  A    
C199  H172  S    
C41   O9    A    
C78   N14   S    
C165  C166  S    
C153  H39   S    
O81   C253  S    
C104  C132  A    
C210  H216  S    
N6    H133  S    
C186  H119  S    
C239  H292  S    
C160  H55   S    
C251  H320  S    
C19   C41   S    
C254  H328  S    
C161  H58   S    
C166  H68   S    
N30   C214  S    
C11   O79   S    
O41   Zn8   S    
C54   C120  S    
C2    C18   A    
C162  H59   S    
N30   H229  S    
C141  H11   S    
N7    H137  S    
C216  H238  S    
C93   N29   S    
N22   H197  S    
N19   C203  S    
O83   C259  S    
C5    O73   S    
C256  H332  S    
C227  H265  S    
C74   C119  A    
N3    C187  S    
C9    O77   S    
C208  H208  S    
N29   H225  S    
C164  H64   S    
N18   H181  S    
C220  C221  S    
C156  H46   S    
C224  H257  S    
C108  C136  A    
C230  H272  S    
C62   O44   A    
C159  H52   S    
C84   N20   S    
N12   C196  S    
C209  H210  S    
C66   C127  A    
C32   O60   S    
C263  C264  S    
C252  H323  S    
C204  H190  S    
O10   Zn11  S    
C195  H156  S    
C71   N7    S    
C71   C74   A    
C212  H223  S    
C93   C126  A    
C70   C123  A    
C178  H96   S    
C255  H329  S    
C182  H107  S    
C212  H222  S    
C42   O6    A    
C197  H164  S    
C203  H186  S    
N28   C212  S    
C77   C116  A    
C208  H206  S    
O39   Zn6   S    
C50   C116  S    
C28   C100  A    
C15   C23   A    
N27   C211  S    
C168  C169  S    
O52   Zn6   S    
C16   C24   A    
C65   C80   A    
C13   O81   S    
C180  H102  S    
O2    Zn2   S    
C67   C78   A    
N2    H117  S    
C255  H330  S    
C63   C121  S    
C247  H312  S    
O12   Zn13  S    
C147  H24   S    
C246  H310  S    
C181  H104  S    
C198  H167  S    
C262  H346  S    
C6    C18   A    
O1    Zn5   S    
C211  H219  S    
N9    C193  S    
C259  H339  S    
N17   H177  S    
C250  C251  S    
C213  H226  S    
C222  H253  S    
C55   C113  S    
C261  H345  S    
N27   H217  S    
C254  H327  S    
C179  C180  S    
C242  C243  S    
C31   C103  A    
O35   Zn13  S    
C252  H324  S    
C185  H115  S    
C41   O5    A    
C260  H342  S    
C150  H32   S    
C199  H170  S    
O1    Zn12  S    
C106  C134  A    
C189  H130  S    
C164  C165  S    
C151  H33   S    
C178  H98   S    
N15   H169  S    
N20   C204  S    
O72   C226  S    
C175  H89   S    
C5    C17   A    
C261  H344  S    
C190  H136  S    
O4    Zn8   S    
C184  H110  S    
C26   C98   A    
O1    Zn1   S    
C257  H335  S    
O62   C164  S    
C262  H347  S    
C156  H45   S    
C219  H246  S    
C196  H158  S    
C84   C115  A    
C91   C124  A    
N25   C209  S    
O4    Zn4   S    
C162  C163  S    
C157  H48   S    
C79   C114  A    
C231  H273  S    
C158  H50   S    
C233  H278  S    
C35   O63   S    
C264  H350  S    
C174  C175  S    
C250  H318  S    
C56   C114  S    
C250  H319  S    
C199  H171  S    
C83   C116  A    
C37   O65   S    
O11   Zn14  S    
C58   O40   A    
C83   N19   S    
C47   O15   A    
C59   O37   A    
N32   H237  S    
C1    O69   S    
C170  C171  S    
C201  H179  S    
N32   C216  S    
C237  H287  S    
C4    C20   A    
C140  H9    S    
O42   Zn7   S    
C193  H147  S    
C63   O41   A    
C99   C131  A    
C215  H236  S    
O78   C244  S    
C245  H307  S    
O20   Zn5   S    
C53   O51   A    
C97   C129  A    
C87   C120  A    
C202  H183  S    
C62   C128  S    
C187  H123  S    
C137  C138  S    
C53   O25   A    
N11   H153  S    
C186  H118  S    
O43   Zn2   S    
C47   O19   A    
C255  H331  S    
C64   C122  S    
C51   O23   A    
C138  H4    S    
C194  H152  S    
C146  C147  S    
C45   O13   A    
C141  C142  S    
N13   H161  S    
C264  H352  S    
O30   Zn12  S    
C43   O11   A    
C16   C108  A    
C222  H252  S    
C258  H338  S    
C45   O17   A    
O82   C256  S    
C70   C75   A    
C26   C29   A    
C176  H93   S    
C173  H85   S    
C166  H70   S    
C144  H17   S    
C51   C117  S    
C174  H87   S    
C241  H297  S    
C242  H299  S    
N21   H193  S    
N23   H201  S    
O75   C235  S    
C65   N1    S    
C158  H51   S    
C158  C159  S    
O17   Zn4   S    
