data_mof_unit_33600.cif
_audit_creation_date              2012-12-10T16:55:05-0500
_audit_creation_method            fapswitch 2.2
_symmetry_space_group_name_H-M    P1
_symmetry_Int_Tables_number       1
_space_group_crystal_system       triclinic
_cell_length_a                    9.793111
_cell_length_b                    10.920904
_cell_length_c                    15.403728
_cell_angle_alpha                 88.907505
_cell_angle_beta                  73.908503
_cell_angle_gamma                 90.154973
_cell_volume                      1582.5349236

loop_
_atom_site_label
_atom_site_type_symbol
_atom_type_description
_atom_site_fract_x
_atom_site_fract_y
_atom_site_fract_z
_atom_type_partial_charge
C1    C     C_R   0.999646 0.265624 0.500632 0.890203
C2    C     C_R   0.673814 0.519065 0.910653 0.036262
C3    C     C_R   0.767376 0.480312 0.961633 0.074288
C4    C     C_R   0.529394 0.546162 0.955886 0.088059
C5    C     C_R   0.476419 0.518926 0.049742 0.103747
C6    C     C_R   0.574545 0.491238 0.098906 -0.133999
C7    C     C_R   0.716780 0.471388 0.055780 -0.106480
C8    C     C_R   0.437770 0.604107 0.911597 -0.162157
C9    C     C_R   0.299187 0.633544 0.958120 -0.071985
C10   C     C_R   0.242860 0.598824 0.048998 0.043137
C11   C     C_R   0.328718 0.531479 0.093424 -0.026370
C12   C     C_R   0.916666 0.500250 0.672435 0.832972
C13   C     C_R   0.102228 0.629318 0.096561 0.419098
C14   C     C_R   0.048617 0.593711 0.187036 -0.266426
C15   C     C_R   0.263071 0.479292 0.179864 0.319089
C16   C     C_2   0.892106 0.933208 0.491818 -0.122357
C17   C     C_2   0.006754 0.866746 0.492029 -0.290025
C18   C     C_2   0.896190 0.067287 0.486212 -0.150089
C19   C     C_2   0.999378 0.133340 0.505119 -0.256489
C20   C     C_2   0.398116 0.442623 0.559759 0.058684
C21   C     C_2   0.554783 0.420738 0.543408 0.085189
C22   C     C_R   0.001111 0.734422 0.498144 0.828692
C23   C     C_R   0.082795 0.501661 0.327835 0.856041
C24   C     C_R   0.868671 0.498937 0.772110 -0.120845
C25   C     C_R   0.128920 0.520168 0.229299 -0.164093
C26   C     C_R   0.910117 0.452593 0.917198 0.411842
C27   C     C_R   0.959816 0.464935 0.823553 -0.212196
C28   C     C_R   0.726663 0.525451 0.815841 -0.183175
Cu1   Cu    Cu3+1 0.138640 0.500020 0.499980 1.044857
Cu2   Cu    Cu3+1 0.861360 0.499980 0.500020 1.073362
H1    H     H_    0.786572 0.449115 0.097245 0.208080
H2    H     H_    0.791839 0.888688 0.494053 0.216013
H3    H     H_    0.109865 0.908397 0.484771 0.171564
H4    H     H_    0.809763 0.112417 0.467322 0.199892
H5    H     H_    0.085565 0.091594 0.526063 0.173318
H6    H     H_    0.415877 0.513747 0.437961 0.257396
H7    H     H_    0.944589 0.625074 0.224781 0.210041
H8    H     H_    0.236054 0.682509 0.921462 0.204138
H9    H     H_    0.068628 0.443234 0.790999 0.214456
H10   H     H_    0.657673 0.546851 0.774157 0.183012
H11   H     H_    0.543902 0.490147 0.171881 0.195122
H12   H     H_    0.472558 0.635115 0.842063 0.157243
N1    N     N_2   0.346430 0.498660 0.500980 -0.288212
N2    N     N_2   0.652550 0.498630 0.501000 -0.048573
O1    O     O_R   0.117050 0.321960 0.499980 -0.524035
O2    O     O_R   0.882890 0.321920 0.500020 -0.587970
O3    O     O_R   0.052910 0.500040 0.629810 -0.580623
O4    O     O_R   0.818750 0.499990 0.629840 -0.545350
O5    O     O_R   0.117110 0.678080 0.499980 -0.568508
O6    O     O_R   0.882950 0.678040 0.500020 -0.526658
O7    O     O_R   0.181250 0.500010 0.370160 -0.555748
O8    O     O_R   0.947090 0.499960 0.370190 -0.568467
Cl1   Cl    Cl    0.991607 0.718006 0.047545 -0.588938
C29   C     C_2   0.305389 0.392486 0.645474 0.885460
O9    O     O_2   0.323434 0.426342 0.716715 -0.600197
O10   O     O_R   0.210523 0.296957 0.645083 -0.722933
H13   H     H_    0.160864 0.264211 0.707956 0.331135
C30   C     C_2   0.592864 0.304351 0.581080 0.835698
O11   O     O_2   0.650994 0.304824 0.641719 -0.548806
O12   O     O_R   0.548705 0.193804 0.552994 -0.760200
H14   H     H_    0.573595 0.120284 0.586642 0.341357
Cl2   Cl    Cl    0.601889 0.646698 0.480583 -0.524239
Cl3   Cl    Cl    0.328775 0.343738 0.219110 -0.567613
Cl4   Cl    Cl    0.029062 0.394233 0.974901 -0.575691

loop_
_geom_bond_atom_site_label_1
_geom_bond_atom_site_label_2
_ccdc_geom_bond_type
C8    C9    A    
C2    C4    A    
C10   C13   A    
C13   Cl1   S    
Cu1   Cu2   S    
C26   Cl4   S    
C16   H2    S    
C21   N2    D    
C9    C10   A    
C12   C24   S    
C23   O7    A    
C17   C22   S    
C24   C27   A    
C22   O6    A    
C12   O4    A    
Cu2   N2    S    
C12   O3    A    
C2    C3    A    
C23   O8    A    
C21   C30   S    
Cu1   O5    S    
C13   C14   A    
Cu1   N1    S    
C14   H7    S    
C18   H4    S    
C1    O1    A    
C26   C27   A    
C6    C7    A    
C17   H3    S    
Cu1   O3    S    
C22   O5    A    
C16   C18   S    
C9    H8    S    
C8    H12   S    
C19   H5    S    
C5    C11   A    
C3    C7    A    
C23   C25   S    
C14   C25   A    
Cu2   O6    S    
C5    C6    A    
C29   O10   S    
C1    O2    A    
C15   C25   A    
C7    H1    S    
C10   C11   A    
C28   H10   S    
C30   O12   S    
C15   Cl3   S    
C20   N1    D    
C20   C21   S    
C20   C29   S    
C18   C19   D    
Cu1   O7    S    
Cu2   O4    S    
C4    C8    A    
O10   H13   S    
Cu2   O8    S    
C29   O9    D    
C4    C5    A    
H6    N1    S    
C2    C28   A    
N2    Cl2   S    
C30   O11   D    
C1    C19   S    
C11   C15   A    
Cu2   O2    S    
C3    C26   A    
Cu1   O1    S    
C24   C28   A    
C16   C17   D    
C27   H9    S    
O12   H14   S    
C6    H11   S    
