data_mof_unit_12331.cif
_audit_creation_date              2012-10-26T21:20:13-0400
_audit_creation_method            fapswitch 2.2
_symmetry_space_group_name_H-M    P1
_symmetry_Int_Tables_number       1
_space_group_crystal_system       triclinic
_cell_length_a                    13.00922
_cell_length_b                    10.822544
_cell_length_c                    9.566845
_cell_angle_alpha                 89.905721
_cell_angle_beta                  96.443156
_cell_angle_gamma                 90.235444
_cell_volume                      1338.42344853

loop_
_atom_site_label
_atom_site_type_symbol
_atom_type_description
_atom_site_fract_x
_atom_site_fract_y
_atom_site_fract_z
_atom_type_partial_charge
C1    C     C_R   0.506280 0.262479 0.501176 0.578381
C2    C     C_R   0.699434 0.500893 0.526541 0.533401
C3    C     C_R   0.812262 0.504024 0.541928 -0.067618
C4    C     C_R   0.187675 0.498497 0.458349 -0.065067
C5    C     C_R   0.023618 0.475340 0.313531 0.239784
C6    C     C_R   0.976214 0.528340 0.687013 0.241886
C7    C     C_R   0.131307 0.481472 0.326325 -0.127397
C8    C     C_R   0.868532 0.521042 0.674089 -0.130710
C9    C     C_R   0.136038 0.512470 0.578035 -0.149797
C10   C     C_R   0.863956 0.491534 0.422245 -0.147454
C11   C     C_R   0.028364 0.511543 0.566971 0.005015
C12   C     C_R   0.500305 0.737802 0.500035 0.577527
C13   C     C_R   0.971572 0.493088 0.433404 0.005181
C14   C     C_R   0.557719 0.064186 0.397821 0.188015
C15   C     C_R   0.468052 0.937964 0.611884 0.178468
C16   C     C_R   0.558679 0.934776 0.401420 0.198881
C17   C     C_R   0.491304 0.063611 0.623053 0.205062
C18   C     C_3   0.956355 0.327100 0.162549 -0.009494
C19   C     C_3   0.918281 0.301914 0.009442 -0.363136
C20   C     C_3   0.044529 0.673562 0.842014 -0.015807
C21   C     C_3   0.078273 0.695756 0.997365 -0.360437
C22   C     C_3   0.579450 0.139032 0.180660 0.027985
C23   C     C_R   0.504898 0.872046 0.500917 -0.070332
C24   C     C_3   0.639640 0.237537 0.110550 -0.363761
C25   C     C_3   0.335954 0.919926 0.750615 0.006755
C26   C     C_3   0.303805 0.855211 0.880031 -0.374099
C27   C     C_3   0.718962 0.854994 0.391964 0.011609
C28   C     C_3   0.795530 0.814724 0.292047 -0.372238
C29   C     C_3   0.626740 0.082340 0.793769 -0.001921
C30   C     C_3   0.698691 0.187637 0.760362 -0.374235
C31   C     C_3   0.305204 0.270334 0.051386 -0.047839
C32   C     C_3   0.258580 0.180489 0.149563 -0.375519
C33   C     C_3   0.662242 0.746304 0.907793 -0.019104
C34   C     C_R   0.514265 0.128197 0.503825 -0.056955
C35   C     C_3   0.770178 0.791399 0.886856 -0.412946
C36   C     C_R   0.426396 0.433843 0.064251 0.359753
C37   C     C_R   0.573872 0.564450 0.937183 0.369703
C38   C     C_R   0.425813 0.437399 0.913764 -0.035003
C39   C     C_R   0.574117 0.561715 0.086152 -0.031495
C40   C     C_R   0.300552 0.499714 0.473524 0.539770
Cu1   Cu    Cu3+1 0.500000 0.500020 0.640660 1.002297
Cu2   Cu    Cu3+1 0.500000 0.499980 0.359340 1.000690
H1    H     H_    0.820079 0.479404 0.320032 0.169271
H2    H     H_    0.905903 0.201071 0.994531 0.071219
H3    H     H_    0.844435 0.351284 0.979066 0.162195
H4    H     H_    0.972530 0.727316 0.812484 0.115117
H5    H     H_    0.105766 0.709011 0.780022 0.122280
H6    H     H_    0.151511 0.645935 0.030311 0.165910
H7    H     H_    0.090393 0.796059 0.017087 0.074640
H8    H     H_    0.017347 0.662855 0.060945 0.202613
H9    H     H_    0.497597 0.169199 0.174882 0.157315
H10   H     H_    0.582625 0.049921 0.123938 0.159394
H11   H     H_    0.716652 0.201451 0.091970 0.121521
H12   H     H_    0.180011 0.524535 0.680183 0.169646
H13   H     H_    0.595929 0.265320 0.009477 0.118131
H14   H     H_    0.651249 0.320210 0.178992 0.191923
H15   H     H_    0.277487 0.899307 0.659360 0.110279
H16   H     H_    0.337031 0.021053 0.771919 0.155322
H17   H     H_    0.227465 0.890545 0.902543 0.076455
H18   H     H_    0.298377 0.753882 0.861919 0.162272
H19   H     H_    0.361484 0.873883 0.972374 0.163105
H20   H     H_    0.715789 0.782566 0.474090 0.122569
H21   H     H_    0.749484 0.942212 0.443468 0.142598
H22   H     H_    0.797715 0.883690 0.206318 0.152367
H23   H     H_    0.829363 0.530705 0.767514 0.184127
H24   H     H_    0.874029 0.807032 0.350336 0.095937
H25   H     H_    0.773356 0.723337 0.245985 0.151751
H26   H     H_    0.652592 0.996362 0.744004 0.106227
H27   H     H_    0.638103 0.063397 0.907653 0.132622
H28   H     H_    0.674806 0.276291 0.804505 0.183500
H29   H     H_    0.778634 0.165849 0.805658 0.078317
H30   H     H_    0.699496 0.197817 0.645206 0.156254
H31   H     H_    0.360612 0.217376 0.994031 0.117919
H32   H     H_    0.241641 0.307805 0.975917 0.137647
H33   H     H_    0.206884 0.230340 0.214619 0.151561
H34   H     H_    0.170438 0.470062 0.233060 0.174160
H35   H     H_    0.213466 0.108101 0.087206 0.089648
H36   H     H_    0.320701 0.135499 0.220747 0.137993
H37   H     H_    0.647971 0.771156 0.016593 0.129175
H38   H     H_    0.605545 0.796278 0.833818 0.205958
H39   H     H_    0.784080 0.779019 0.775282 0.137670
H40   H     H_    0.778785 0.890677 0.914775 0.080379
H41   H     H_    0.828357 0.738152 0.956032 0.166591
H42   H     H_    0.366983 0.389651 0.845461 0.117728
H43   H     H_    0.635373 0.606375 0.152932 0.134888
H44   H     H_    0.897852 0.291169 0.228900 0.134095
H45   H     H_    0.029885 0.275431 0.188313 0.116391
H46   H     H_    0.976881 0.333237 0.941191 0.201958
N1    N     N_R   0.500030 0.500030 0.852080 -0.241312
N2    N     N_R   0.499970 0.499970 0.147920 -0.250873
O1    O     O_R   0.499990 0.319660 0.618740 -0.474813
O2    O     O_3   0.029604 0.545537 0.818893 -0.566327
O3    O     O_3   0.624706 0.126420 0.320180 -0.551957
O4    O     O_3   0.434020 0.875799 0.724997 -0.537938
O5    O     O_3   0.619904 0.871315 0.316368 -0.542126
O6    O     O_3   0.520773 0.112363 0.755129 -0.541239
O7    O     O_3   0.354090 0.367798 0.131895 -0.526416
O8    O     O_3   0.655601 0.618286 0.878540 -0.544087
O9    O     O_R   0.500010 0.680340 0.381260 -0.477175
O10   O     O_R   0.499990 0.319630 0.381170 -0.459289
O11   O     O_R   0.500010 0.680370 0.618830 -0.443940
O12   O     O_R   0.349000 0.499990 0.599490 -0.527545
O13   O     O_R   0.651000 0.500010 0.400510 -0.531084
O14   O     O_R   0.348990 0.499960 0.361920 -0.454947
O15   O     O_R   0.651010 0.500040 0.638080 -0.466917
O16   O     O_3   0.970073 0.455616 0.182308 -0.568454

loop_
_geom_bond_atom_site_label_1
_geom_bond_atom_site_label_2
_ccdc_geom_bond_type
Cu1   N1    S    
Cu1   Cu2   S    
C27   O5    S    
Cu2   O13   S    
C32   H33   S    
C21   H7    S    
C30   H29   S    
C35   H39   S    
C24   H13   S    
C20   O2    S    
C12   C23   S    
C18   H44   S    
Cu1   O15   S    
C26   H19   S    
C18   C19   S    
C31   H31   S    
Cu1   O12   S    
C33   O8    S    
C37   O8    S    
C12   O9    A    
C32   H35   S    
C4    C40   S    
C36   O7    S    
C26   H17   S    
C14   O3    S    
C5    C13   A    
C21   H6    S    
C15   C23   A    
C8    H23   S    
C1    O1    A    
C25   H15   S    
C15   O4    S    
C4    C7    A    
C1    O10   A    
C21   H8    S    
C30   H28   S    
C35   H40   S    
C1    C34   S    
C29   H27   S    
C5    O16   S    
C28   H25   S    
C19   H46   S    
C6    C11   A    
C5    C7    A    
C35   H41   S    
C33   H37   S    
C31   H32   S    
C6    C8    A    
C25   C26   S    
C40   O12   A    
Cu2   N2    S    
C28   H24   S    
C18   O16   S    
C29   C30   S    
C27   H20   S    
Cu2   O10   S    
C40   O14   A    
C29   H26   S    
C31   C32   S    
C38   N1    A    
C17   O6    S    
C9    C11   A    
C27   H21   S    
C28   H22   S    
Cu1   O1    S    
C3    C8    A    
C16   C23   A    
C22   O3    S    
C14   C16   A    
C17   C34   A    
C39   H43   S    
C19   H2    S    
C22   H10   S    
C36   N2    A    
C15   C17   A    
C16   O5    S    
C39   N2    A    
C38   H42   S    
C10   H1    S    
C10   C13   A    
Cu2   O14   S    
C14   C34   A    
C29   O6    S    
C30   H30   S    
C19   H3    S    
C33   H38   S    
C7    H34   S    
C24   H14   S    
C2    O15   A    
C18   H45   S    
C37   N1    A    
C36   C38   A    
C2    C3    S    
C24   H11   S    
C12   O11   A    
C37   C39   A    
C3    C10   A    
Cu2   O9    S    
C11   C13   A    
C2    O13   A    
C6    O2    S    
C33   C35   S    
Cu1   O11   S    
C22   C24   S    
C31   O7    S    
C20   H5    S    
C32   H36   S    
C25   O4    S    
C20   C21   S    
C25   H16   S    
C27   C28   S    
C9    H12   S    
C4    C9    A    
C26   H18   S    
C20   H4    S    
C22   H9    S    
