data_mof_unit_38073.cif
_audit_creation_date              2012-12-11T16:21:25-0500
_audit_creation_method            fapswitch 2.2
_symmetry_space_group_name_H-M    P1
_symmetry_Int_Tables_number       1
_space_group_crystal_system       triclinic
_cell_length_a                    8.201979
_cell_length_b                    16.522101
_cell_length_c                    17.308483
_cell_angle_alpha                 107.754734
_cell_angle_beta                  84.623394
_cell_angle_gamma                 97.182787
_cell_volume                      2212.4569442

loop_
_atom_site_label
_atom_site_type_symbol
_atom_type_description
_atom_site_fract_x
_atom_site_fract_y
_atom_site_fract_z
_atom_type_partial_charge
Ba1   Ba    Ba6+2 0.638770 0.457640 0.528600 1.665171
Ba2   Ba    Ba6+2 0.171410 0.542370 0.471460 1.684349
C1    C     C_3   0.768246 0.251431 0.786682 -0.305355
C2    C     C_R   0.106434 0.251040 0.481796 -0.287457
C3    C     C_2   0.523312 0.860257 0.586853 -0.026458
C4    C     C_3   0.310445 0.225647 0.657359 0.351698
C5    C     C_2   0.553047 0.777913 0.562798 0.071766
C6    C     C_2   0.825485 0.809842 0.499058 0.003489
C7    C     C_3   0.811603 0.904589 0.539871 0.111755
C8    C     C_3   0.631236 0.924797 0.554839 -0.042717
C9    C     C_2   0.912911 0.962642 0.497113 -0.142355
C10   C     C_2   0.918624 0.047801 0.528318 -0.085870
C11   C     C_R   0.173116 0.082184 0.448362 0.001142
C12   C     C_3   0.799890 0.275875 0.708360 0.328074
C13   C     C_R   0.025849 0.107702 0.492263 -0.045115
C14   C     C_R   0.284278 0.139869 0.420598 -0.128006
C15   C     C_R   0.252816 0.225096 0.438758 0.057299
C16   C     C_3   0.296181 0.137513 0.669324 -0.323705
C17   C     C_R   0.990286 0.192652 0.506608 0.001624
C18   C     C_R   0.093538 0.467742 0.716390 -0.344676
C19   C     C_R   0.956291 0.512249 0.747522 0.055282
C20   C     C_R   0.896990 0.519375 0.827542 -0.199712
C21   C     C_R   0.977997 0.486805 0.877597 -0.085713
C22   C     C_R   0.124080 0.446500 0.848183 0.360988
C23   C     C_3   0.963149 0.280909 0.313043 0.309896
C24   C     C_R   0.180882 0.436792 0.765850 -0.062011
C25   C     C_R   0.899600 0.480127 0.159927 -0.091916
C26   C     C_R   0.850605 0.488219 0.241457 0.011150
C27   C     C_R   0.626838 0.567319 0.233035 0.016329
C28   C     C_3   0.310610 0.650298 0.725186 0.299449
C29   C     C_R   0.674660 0.559463 0.151312 -0.130619
C30   C     C_R   0.812784 0.516579 0.114792 -0.019606
C31   C     C_1   0.863389 0.507132 0.030533 0.075825
C32   C     C_1   0.911950 0.498207 0.960540 0.132100
C33   C     C_R   0.718263 0.534208 0.278181 -0.280068
C34   C     C_3   0.961393 0.184998 0.273976 -0.379925
C35   C     C_3   0.255124 0.677925 0.815019 -0.363167
C36   C     C_3   0.484862 0.351152 0.274535 0.294268
C37   C     C_3   0.503951 0.328590 0.182359 -0.360247
C38   C     C_3   0.759449 0.721127 0.755047 0.688150
C39   C     C_3   0.715008 0.713466 0.841119 -0.344871
C40   C     C_3   0.646888 0.924376 0.346089 -0.274284
C41   C     C_3   0.689379 0.998151 0.309701 -0.379924
C42   C     C_3   0.505290 0.774898 0.324618 0.334404
C43   C     C_3   0.534444 0.852409 0.292497 -0.201248
C44   C     C_3   0.008810 0.726598 0.294585 0.355951
C45   C     C_3   0.026290 0.754473 0.217990 -0.356924
C46   C     C_2   0.702977 0.751701 0.511358 -0.244841
H1    H     H_    0.745571 0.336444 0.716980 0.100446
H2    H     H_    0.655821 0.695127 0.715324 -0.015287
H3    H     H_    0.634256 0.236460 0.798478 0.157295
H4    H     H_    0.643993 0.650247 0.838032 0.050302
H5    H     H_    0.634926 0.763757 0.875727 0.130275
H6    H     H_    0.829164 0.721834 0.875092 0.104880
H7    H     H_    0.935015 0.286019 0.696364 -0.063532
H8    H     H_    0.814948 0.305219 0.838387 0.102585
H9    H     H_    0.087999 0.306552 0.334149 0.016728
H10   H     H_    0.871774 0.292520 0.365822 0.058022
H11   H     H_    0.053627 0.171398 0.221637 0.142740
H12   H     H_    0.150662 0.717532 0.825158 0.154168
H13   H     H_    0.992160 0.154359 0.318813 0.047103
H14   H     H_    0.837288 0.157473 0.252464 0.127885
H15   H     H_    0.832378 0.194646 0.781885 0.135509
H16   H     H_    0.241998 0.088953 0.615753 0.076655
H17   H     H_    0.438756 0.792571 0.385469 0.066076
H18   H     H_    0.626559 0.754847 0.330437 -0.082644
H19   H     H_    0.414174 0.875896 0.290123 0.130695
H20   H     H_    0.592217 0.832291 0.229707 0.116738
H21   H     H_    0.875944 0.711243 0.308569 -0.077071
H22   H     H_    0.072284 0.668062 0.282662 0.102626
H23   H     H_    0.216361 0.621417 0.836428 0.047354
H24   H     H_    0.972009 0.702372 0.166999 0.076742
H25   H     H_    0.158421 0.769397 0.201570 0.149486
H26   H     H_    0.389459 0.224284 0.601318 0.080473
H27   H     H_    0.960938 0.812133 0.228012 0.105410
H28   H     H_    0.414406 0.880212 0.625328 0.106093
H29   H     H_    0.395787 0.118398 0.386242 0.091900
H30   H     H_    0.716273 0.683942 0.487156 0.067924
H31   H     H_    0.080607 0.316453 0.493463 0.073869
H32   H     H_    0.984903 0.935740 0.441416 0.109089
H33   H     H_    0.844675 0.073749 0.583563 0.127742
H34   H     H_    0.357521 0.716095 0.851657 0.131800
H35   H     H_    0.001903 0.443896 0.131347 0.138093
H36   H     H_    0.603208 0.584942 0.116227 0.103429
H37   H     H_    0.185326 0.240095 0.649878 -0.075939
H38   H     H_    0.788038 0.551030 0.851805 0.107410
H39   H     H_    0.137975 0.461267 0.654162 0.083975
H40   H     H_    0.679135 0.538993 0.340756 0.062286
H41   H     H_    0.420115 0.120785 0.676456 0.149461
H42   H     H_    0.215451 0.136686 0.724546 0.146411
H43   H     H_    0.202369 0.621569 0.689163 0.034664
H44   H     H_    0.399594 0.602117 0.714626 0.025737
H45   H     H_    0.607092 0.372092 0.299791 0.005404
H46   H     H_    0.997008 0.813267 0.663638 0.352365
H47   H     H_    0.763412 0.977099 0.251278 0.133848
H48   H     H_    0.575422 0.021900 0.298713 0.132878
H49   H     H_    0.762552 0.051134 0.352615 0.140983
H50   H     H_    0.584543 0.948588 0.407221 0.134654
H51   H     H_    0.763013 0.899306 0.352060 0.117926
H52   H     H_    0.432506 0.338599 0.913044 0.356124
H53   H     H_    0.405138 0.403974 0.297334 0.069968
H54   H     H_    0.589828 0.278540 0.158078 0.138295
H55   H     H_    0.553259 0.385750 0.163638 0.072655
H56   H     H_    0.382326 0.304534 0.156117 0.143463
O1    O     O_2   0.563480 0.287900 0.421550 -0.461373
O2    O     O_2   0.288875 0.552565 0.236996 -0.464562
O3    O     O_3   0.408898 0.710311 0.270090 -0.599928
O4    O     O_3   0.344560 0.396140 0.441010 -0.497343
O5    O     O_3   0.942720 0.544140 0.599330 -0.456693
O6    O     O_2   0.129060 0.458130 0.306750 -0.456753
O7    O     O_3   0.923021 0.318252 0.255479 -0.633232
O8    O     O_2   0.166793 0.809037 0.504587 -0.479635
O9    O     O_3   0.080521 0.792415 0.358339 -0.612540
O10   O     O_3   0.805120 0.340890 0.569250 -0.487755
O11   O     O_2   0.650918 0.189820 0.495448 -0.491884
O12   O     O_3   0.899598 0.680269 0.719434 -0.661435
O13   O     O_3   0.414609 0.278533 0.295517 -0.633590
O14   O     O_3   0.726155 0.210669 0.644838 -0.606836
O15   O     O_2   0.681260 0.541920 0.693290 -0.502011
O16   O     O_3   0.399420 0.384560 0.615960 -0.504846
O17   O     O_2   0.523208 0.441913 0.760701 -0.436390
O18   O     O_2   0.649027 0.874660 0.779607 -0.274993
O19   O     O_2   0.921139 0.875891 0.827983 -0.270103
O20   O     O_3   0.894004 0.841680 0.672289 -0.535960
O21   O     O_2   0.239704 0.477434 0.995837 -0.310380
O22   O     O_2   0.117007 0.332993 0.930069 -0.317744
O23   O     O_3   0.381454 0.285815 0.725049 -0.548241
O24   O     O_3   0.413921 0.379173 0.883510 -0.486168
O25   O     O_2   0.246830 0.712160 0.578490 -0.452899
O26   O     O_3   0.465730 0.603870 0.559050 -0.505715
O27   O     O_3   0.005180 0.659120 0.430820 -0.479428
O28   O     O_3   0.385080 0.722281 0.704393 -0.598555
O29   O     O_3   0.867570 0.455870 0.400730 -0.482774
O30   O     O_3   0.410870 0.615450 0.384100 -0.493364
P1    P     P_3+3 0.397200 0.301470 0.401420 0.979159
P2    P     P_3+3 0.862850 0.568080 0.686620 0.970945
P3    P     P_3+3 0.370695 0.388549 0.718080 1.047085
P4    P     P_3+3 0.413100 0.698540 0.598650 1.027686
P5    P     P_3+3 0.434893 0.611074 0.281044 0.965574
P6    P     P_3+3 0.791843 0.231179 0.552828 0.940447
P7    P     P_3+3 0.940282 0.429297 0.298610 0.953049
P8    P     P_3+3 0.021075 0.769427 0.449854 0.971174
S1    S     S_3+6 0.805361 0.832110 0.761392 -0.054702
S2    S     S_3+6 0.224558 0.408450 0.915968 -0.084820

loop_
_geom_bond_atom_site_label_1
_geom_bond_atom_site_label_2
_ccdc_geom_bond_type
C6    C7    S    
Ba2   O5    S    
C42   H18   S    
C34   H11   S    
O8    P8    D    
C37   H56   S    
C13   C17   A    
Ba2   O30   S    
C4    H37   S    
O7    P7    S    
C22   C24   A    
C4    O23   S    
C14   H29   S    
C36   H53   S    
C40   H50   S    
C36   C37   S    
C34   H14   S    
C12   H1    S    
Ba1   O10   S    
O21   S2    D    
O28   P4    S    
C18   H39   S    
Ba2   O25   S    
O27   P8    S    
O9    P8    S    
Ba1   Ba2   S    
Ba1   O15   S    
C46   H30   S    
C44   H21   S    
Ba1   O5    S    
C2    C17   A    
O25   P4    D    
C26   C33   A    
C14   C15   A    
C12   O14   S    
C15   P1    S    
C41   H47   S    
C21   C22   A    
O20   S1    S    
O10   P6    S    
Ba1   P2    S    
C7    C8    S    
C19   P2    S    
O1    P1    D    
C24   P3    S    
C12   H7    S    
C19   C20   A    
O5    P2    S    
C36   O13   S    
C7    C9    S    
C42   H17   S    
C23   H9    S    
O18   S1    D    
C4    C16   S    
Ba2   O4    S    
C4    H26   S    
C27   P5    S    
Ba1   O29   S    
Ba2   O29   S    
C16   H42   S    
C45   H25   S    
O4    P1    S    
C28   H44   S    
Ba1   O26   S    
O30   P5    S    
C3    C5    D    
C1    H3    S    
C17   P6    S    
Ba1   O4    S    
O17   P3    D    
C29   H36   S    
C28   C35   S    
C40   C43   S    
Ba2   P4    S    
O6    P7    D    
C6    C46   D    
C43   H19   S    
C41   H48   S    
C1    H8    S    
C29   C30   A    
C10   C13   S    
C21   C32   S    
C43   H20   S    
Ba2   O27   S    
C38   H2    S    
O11   P6    D    
C39   H6    S    
O24   S2    S    
C39   H5    S    
C1    C12   S    
C2    H31   S    
C2    C15   A    
C38   C39   S    
C35   H23   S    
O26   P4    S    
C35   H34   S    
C38   S1    S    
C40   C41   S    
C34   H13   S    
O13   P1    S    
C42   C43   S    
C37   H54   S    
C42   O3    S    
C44   C45   S    
Ba2   O6    S    
C39   H4    S    
C44   O9    S    
C25   C30   A    
H52   O24   S    
C16   H41   S    
C41   H49   S    
C28   H43   S    
O14   P6    S    
C5    P4    S    
C9    C10   D    
C37   H55   S    
O12   P2    S    
C1    H15   S    
C27   C33   A    
O29   P7    S    
O15   P2    D    
C5    C46   S    
C3    H28   S    
C11   C13   A    
C45   H27   S    
C3    C8    S    
C27   C29   A    
C40   H51   S    
C30   C31   S    
C16   H16   S    
O2    P5    D    
C38   O12   S    
C18   C24   A    
C22   S2    S    
C28   O28   S    
C36   H45   S    
O22   S2    D    
C33   H40   S    
Ba2   O26   S    
C31   C32   T    
C10   H33   S    
C20   H38   S    
O3    P5    S    
C45   H24   S    
C44   H22   S    
C35   H12   S    
C9    H32   S    
C23   O7    S    
C23   C34   S    
C25   H35   S    
C18   C19   A    
O16   P3    S    
C23   H10   S    
C11   C14   A    
O19   S1    D    
C25   C26   A    
C20   C21   A    
C6    P8    S    
C26   P7    S    
O23   P3    S    
Ba1   P1    S    
Ba1   O16   S    
Ba1   O1    S    
H46   O20   S    
