data_mof_unit_56933.cif
_audit_creation_date              2012-12-11T15:35:22-0500
_audit_creation_method            fapswitch 2.2
_symmetry_space_group_name_H-M    P1
_symmetry_Int_Tables_number       1
_space_group_crystal_system       triclinic
_cell_length_a                    17.32917
_cell_length_b                    24.183612
_cell_length_c                    14.887658
_cell_angle_alpha                 89.99173
_cell_angle_beta                  124.923033
_cell_angle_gamma                 90.078129
_cell_volume                      5115.6074882

loop_
_atom_site_label
_atom_site_type_symbol
_atom_type_description
_atom_site_fract_x
_atom_site_fract_y
_atom_site_fract_z
_atom_type_partial_charge
C1    C     C_R   0.350006 0.151754 0.907900 -0.101060
C2    C     C_R   0.355301 0.846638 0.909568 -0.154037
C3    C     C_R   0.808134 0.622646 0.909117 -0.112457
C4    C     C_R   0.807781 0.377786 0.909310 -0.170121
C5    C     C_R   0.648778 0.151465 0.091985 -0.135734
C6    C     C_R   0.649425 0.848836 0.092091 -0.132394
C7    C     C_R   0.188491 0.625506 0.093028 -0.130298
C8    C     C_R   0.188547 0.374832 0.092717 -0.128440
C9    C     C_R   0.559980 0.847834 0.910057 -0.118533
C10   C     C_R   0.559693 0.152290 0.910083 -0.114692
C11   C     C_R   0.096220 0.369818 0.910529 -0.126030
C12   C     C_R   0.096430 0.630467 0.910870 -0.114218
C13   C     C_R   0.439316 0.999974 0.634500 0.016870
C14   C     C_R   0.019806 0.500050 0.692638 0.023500
C15   C     C_R   0.825530 0.001021 0.282261 -0.000033
C16   C     C_R   0.304095 0.499595 0.364175 0.005113
C17   C     C_R   0.620544 0.183988 0.001719 0.035043
C18   C     C_R   0.621208 0.816321 0.001737 0.038890
C19   C     C_R   0.186194 0.641575 0.002344 0.032237
C20   C     C_R   0.186010 0.358966 0.001739 0.042519
C21   C     C_3   0.045230 0.989738 0.570446 -0.405502
C22   C     C_3   0.076543 0.059230 0.468516 -0.409665
C23   C     C_3   0.549267 0.444954 0.580706 -0.344291
C24   C     C_3   0.548602 0.548468 0.595282 -0.413902
C25   C     C_3   0.941291 0.988100 0.476699 -0.392406
C26   C     C_3   0.971224 0.059584 0.376722 -0.417426
C27   C     C_3   0.441892 0.445020 0.508038 -0.456210
C28   C     C_3   0.441049 0.548200 0.521944 -0.412904
C29   C     C_3   0.086080 0.958174 0.439727 -0.328988
C30   C     C_3   0.555095 0.504206 0.445029 -0.383354
C31   C     C_3   0.106380 0.002192 0.527147 0.416764
C32   C     C_3   0.589031 0.499502 0.565349 0.380675
C33   C     C_3   0.927734 0.001874 0.367033 0.399697
C34   C     C_3   0.406429 0.499269 0.440894 0.411957
C35   C     C_R   0.445229 0.846840 0.091619 -0.135788
C36   C     C_R   0.443970 0.153055 0.090693 -0.137748
C37   C     C_R   0.901735 0.376123 0.093271 -0.118163
C38   C     C_R   0.901847 0.624011 0.093211 -0.120887
C39   C     C_3   0.980629 0.958782 0.344037 -0.447618
C40   C     C_3   0.447538 0.504339 0.371453 -0.387394
C41   C     C_R   0.297945 0.729529 0.903467 -0.171451
C42   C     C_R   0.294139 0.269308 0.901653 -0.174155
C43   C     C_R   0.656772 0.316920 0.905294 -0.167859
C44   C     C_R   0.657433 0.683515 0.905167 -0.170519
C45   C     C_R   0.610405 0.270136 0.904904 -0.166431
C46   C     C_R   0.611186 0.730250 0.904819 -0.163952
C47   C     C_R   0.246333 0.686001 0.903999 -0.165707
C48   C     C_R   0.244438 0.313753 0.902517 -0.163876
C49   C     C_R   0.644578 0.242124 0.003374 0.142076
C50   C     C_R   0.645407 0.758291 0.003324 0.140965
C51   C     C_R   0.260985 0.669777 0.003060 0.145961
C52   C     C_R   0.260127 0.330568 0.001857 0.142703
C53   C     C_R   0.712249 0.267717 0.103083 -0.167290
C54   C     C_R   0.713054 0.732797 0.103011 -0.171973
C55   C     C_R   0.341563 0.687950 0.102273 -0.171126
C56   C     C_R   0.340325 0.312134 0.100838 -0.174113
C57   C     C_R   0.393616 0.731167 0.101814 -0.167795
C58   C     C_R   0.390406 0.268004 0.100067 -0.161125
C59   C     C_R   0.758488 0.314483 0.103367 -0.167279
C60   C     C_R   0.759186 0.686090 0.103253 -0.161995
C61   C     C_R   0.364514 0.756248 0.002167 0.140166
C62   C     C_R   0.359948 0.242478 0.000286 0.145663
C63   C     C_R   0.738101 0.335142 0.004015 0.137788
C64   C     C_R   0.738690 0.665379 0.003873 0.145422
C65   C     C_R   0.394045 0.949865 0.465664 -0.167779
C66   C     C_R   0.394011 0.050011 0.465618 -0.183709
C67   C     C_R   0.088230 0.449968 0.609673 -0.165225
C68   C     C_R   0.088251 0.550221 0.609632 -0.169159
C69   C     C_R   0.392607 0.949889 0.371787 -0.173617
C70   C     C_R   0.392616 0.049975 0.371760 -0.167328
C71   C     C_R   0.108889 0.450008 0.532995 -0.175881
C72   C     C_R   0.108921 0.550191 0.532964 -0.174500
C73   C     C_R   0.403306 0.999937 0.332552 0.143361
C74   C     C_R   0.106030 0.500091 0.484044 0.134672
C75   C     C_R   0.478648 0.046004 0.247279 -0.127287
C76   C     C_R   0.478636 0.953953 0.247313 -0.127096
C77   C     C_R   0.052132 0.545662 0.304756 -0.134384
C78   C     C_R   0.052150 0.454402 0.304787 -0.133943
C79   C     C_R   0.404743 0.999950 0.519127 0.144491
C80   C     C_R   0.066849 0.500082 0.637840 0.151673
C81   C     C_R   0.248019 0.955667 0.691593 0.426881
C82   C     C_R   0.252253 0.046839 0.692862 0.428377
C83   C     C_R   0.745326 0.454392 0.695499 0.404692
C84   C     C_R   0.745320 0.545785 0.696150 0.407246
C85   C     C_R   0.382675 0.184566 0.999385 0.015759
C86   C     C_R   0.386943 0.814339 0.001084 0.049395
C87   C     C_R   0.811445 0.635750 0.002307 0.011280
C88   C     C_R   0.811114 0.364649 0.002481 0.051565
C89   C     C_R   0.446648 0.999960 0.272499 0.040112
C90   C     C_R   0.072210 0.500053 0.369746 0.055997
C91   C     C_R   0.206011 0.001612 0.624818 -0.258022
C92   C     C_R   0.693212 0.499932 0.635637 -0.205184
C93   C     C_R   0.454514 0.045831 0.698179 -0.114730
C94   C     C_R   0.454029 0.954139 0.697979 -0.109325
C95   C     C_R   0.995965 0.545810 0.726718 -0.102045
C96   C     C_R   0.995845 0.454247 0.726609 -0.115943
C97   C     C_R   0.769526 0.953989 0.253504 -0.136323
C98   C     C_R   0.768227 0.047087 0.252140 -0.138945
C99   C     C_R   0.254490 0.453806 0.303279 -0.151646
C100  C     C_R   0.255227 0.545787 0.303776 -0.154392
H1    H     H_    0.310463 0.165105 0.823633 0.149438
H2    H     H_    0.325420 0.830724 0.828461 0.112973
H3    H     H_    0.749251 0.626889 0.824866 0.143069
H4    H     H_    0.748374 0.374050 0.825202 0.119965
H5    H     H_    0.057070 0.022010 0.630528 0.153026
H6    H     H_    0.089610 0.092765 0.526716 0.197485
H7    H     H_    0.574413 0.440080 0.667868 0.141912
H8    H     H_    0.573496 0.545296 0.682604 0.153444
H9    H     H_    0.902282 0.018228 0.493285 0.159446
H10   H     H_    0.938080 0.091783 0.397453 0.151867
H11   H     H_    0.413939 0.440886 0.558944 0.165272
H12   H     H_    0.412914 0.544647 0.572746 0.162321
H13   H     H_    0.912812 0.946223 0.473098 0.155728
H14   H     H_    0.959905 0.071284 0.297679 0.162749
H15   H     H_    0.418738 0.408202 0.453806 0.151961
H16   H     H_    0.416999 0.588409 0.478181 0.147463
H17   H     H_    0.103301 0.915878 0.474134 0.216643
H18   H     H_    0.129813 0.966753 0.408436 0.151628
H19   H     H_    0.582114 0.468800 0.422834 0.181930
H20   H     H_    0.581932 0.542798 0.431385 0.143864
H21   H     H_    0.950843 0.916705 0.334345 0.154705
H22   H     H_    0.972628 0.969129 0.266280 0.168408
H23   H     H_    0.422528 0.469377 0.312290 0.160488
H24   H     H_    0.423058 0.543269 0.322769 0.157010
H25   H     H_    0.277965 0.745454 0.825091 0.110589
H26   H     H_    0.273730 0.253075 0.823286 0.111101
H27   H     H_    0.634562 0.334550 0.827262 0.109191
H28   H     H_    0.635154 0.665816 0.827137 0.108314
H29   H     H_    0.554090 0.253569 0.826654 0.107444
H30   H     H_    0.554878 0.746731 0.826580 0.107435
H31   H     H_    0.189413 0.669323 0.826151 0.105111
H32   H     H_    0.187961 0.330683 0.824782 0.105527
H33   H     H_    0.736633 0.249198 0.181104 0.106557
H34   H     H_    0.737440 0.751331 0.181048 0.106664
H35   H     H_    0.359243 0.673351 0.180533 0.104436
H36   H     H_    0.358898 0.327199 0.179214 0.106559
H37   H     H_    0.449024 0.748360 0.179872 0.106088
H38   H     H_    0.445468 0.250766 0.178124 0.106921
H39   H     H_    0.816597 0.330083 0.181509 0.108859
H40   H     H_    0.817249 0.670557 0.181388 0.108191
H41   H     H_    0.395900 0.910397 0.500843 0.111502
H42   H     H_    0.395776 0.089479 0.500738 0.107587
H43   H     H_    0.081154 0.410565 0.638597 0.103236
H44   H     H_    0.081184 0.589620 0.638514 0.103023
H45   H     H_    0.492429 0.833188 0.175389 0.083801
H46   H     H_    0.491580 0.167345 0.173985 0.087350
H47   H     H_    0.929382 0.370829 0.178579 0.091295
H48   H     H_    0.929427 0.629254 0.178521 0.095303
H49   H     H_    0.393777 0.910473 0.338390 0.109625
H50   H     H_    0.393794 0.089388 0.338330 0.108734
H51   H     H_    0.114447 0.410591 0.502933 0.106549
H52   H     H_    0.114511 0.589609 0.502881 0.106763
H53   H     H_    0.468548 0.088993 0.257122 0.095018
H54   H     H_    0.468507 0.910962 0.257223 0.094819
H55   H     H_    0.070550 0.588126 0.331146 0.083832
H56   H     H_    0.070597 0.411977 0.331228 0.083413
H57   H     H_    0.438447 0.088423 0.672061 0.101799
H58   H     H_    0.437301 0.911575 0.671638 0.101500
H59   H     H_    0.990657 0.587771 0.700044 0.090046
H60   H     H_    0.990332 0.412303 0.699738 0.089452
H61   H     H_    0.792083 0.911389 0.270704 0.092643
H62   H     H_    0.787845 0.090141 0.265476 0.094788
H63   H     H_    0.266716 0.411093 0.328896 0.087566
H64   H     H_    0.269914 0.588479 0.329527 0.085798
H65   H     H_    0.685003 0.165127 0.175900 0.084136
H66   H     H_    0.686326 0.835407 0.176190 0.083509
H67   H     H_    0.245943 0.629669 0.177941 0.090221
H68   H     H_    0.246130 0.370695 0.177573 0.089309
H69   H     H_    0.515330 0.834027 0.826016 0.089532
H70   H     H_    0.514998 0.166014 0.826036 0.092757
H71   H     H_    0.066890 0.356677 0.828147 0.085850
H72   H     H_    0.067391 0.643531 0.828531 0.087096
H73   H     H_    0.064652 0.949296 0.613755 0.170863
H74   H     H_    0.116665 0.068334 0.432800 0.153950
H75   H     H_    0.573034 0.408354 0.557680 0.210484
H76   H     H_    0.572251 0.589078 0.584759 0.178402
N1    N     N_R   0.392140 0.102630 0.941800 -0.034931
N2    N     N_R   0.392140 0.897370 0.941800 -0.040541
N3    N     N_R   0.892140 0.602630 0.941800 -0.032218
N4    N     N_R   0.892140 0.397370 0.941800 -0.047655
N5    N     N_R   0.450890 0.896450 0.057150 -0.038796
N6    N     N_R   0.450890 0.103550 0.057150 -0.042432
N7    N     N_R   0.950890 0.396450 0.057150 -0.040545
N8    N     N_R   0.950890 0.603550 0.057150 -0.046275
N9    N     N_R   0.525160 0.027960 0.206160 -0.042773
N10   N     N_R   0.525160 0.972040 0.206160 -0.042749
N11   N     N_R   0.025160 0.527960 0.206160 -0.038382
N12   N     N_R   0.025160 0.472040 0.206160 -0.037853
N13   N     N_R   0.317870 0.971120 0.792790 -0.114952
N14   N     N_R   0.317870 0.028880 0.792790 -0.090591
N15   N     N_R   0.817870 0.471120 0.792790 -0.125657
N16   N     N_R   0.817870 0.528880 0.792790 -0.088723
N17   N     N_R   0.473480 0.027920 0.793480 -0.039983
N18   N     N_R   0.473480 0.972080 0.793480 -0.046107
N19   N     N_R   0.973480 0.527920 0.793480 -0.034975
N20   N     N_R   0.973480 0.472080 0.793480 -0.045356
N21   N     N_R   0.681610 0.971120 0.207570 -0.037802
N22   N     N_R   0.681610 0.028880 0.207570 -0.038007
N23   N     N_R   0.181610 0.471120 0.207570 -0.032778
N24   N     N_R   0.181610 0.528880 0.207570 -0.032763
N25   N     N_R   0.605410 0.102620 0.056870 -0.038244
N26   N     N_R   0.605410 0.897380 0.056870 -0.036824
N27   N     N_R   0.105410 0.602620 0.056870 -0.043012
N28   N     N_R   0.105410 0.397380 0.056870 -0.040203
N29   N     N_R   0.549680 0.896430 0.944180 -0.037501
N30   N     N_R   0.549680 0.103570 0.944180 -0.036463
N31   N     N_R   0.049680 0.396430 0.944180 -0.042833
N32   N     N_R   0.049680 0.603570 0.944180 -0.036830
Ni1   Ni    Ni4+2 0.433410 0.064680 0.868830 0.238245
Ni2   Ni    Ni4+2 0.433410 0.935320 0.868830 0.220875
Ni3   Ni    Ni4+2 0.933410 0.564680 0.868830 0.263343
Ni4   Ni    Ni4+2 0.933410 0.435320 0.868830 0.206847
Ni5   Ni    Ni4+2 0.565650 0.934380 0.131170 0.203854
Ni6   Ni    Ni4+2 0.565650 0.065620 0.131170 0.203703
Ni7   Ni    Ni4+2 0.065650 0.434380 0.131170 0.205363
Ni8   Ni    Ni4+2 0.065650 0.565620 0.131170 0.207512
O1    O     O_3   0.224282 0.901887 0.658728 -0.793902
H77   H     H_    0.215539 0.884860 0.712577 0.301313
O2    O     O_3   0.258856 0.098852 0.660443 -0.796927
H78   H     H_    0.250887 0.095074 0.589377 0.303123
O3    O     O_3   0.740657 0.403789 0.650378 -0.780835
H79   H     H_    0.797119 0.382540 0.706249 0.314329
O4    O     O_3   0.742194 0.597682 0.656161 -0.777017
H80   H     H_    0.697623 0.596436 0.575398 0.305490

loop_
_geom_bond_atom_site_label_1
_geom_bond_atom_site_label_2
_ccdc_geom_bond_type
C68   C80   A    
C38   C87   A    
C13   C79   S    
C58   C62   A    
C65   C79   A    
C63   C88   S    
C14   C95   A    
C37   C88   A    
C9    H69   S    
O4    H80   S    
C70   H50   S    
C41   C61   A    
C67   H43   S    
C6    H66   S    
C53   C59   A    
C43   C63   A    
C12   H72   S    
C54   C60   A    
C44   C64   A    
C45   H29   S    
C83   C92   A    
C21   C31   S    
N28   Ni7   S    
C50   C54   A    
C39   H22   S    
C34   C40   S    
C12   N32   A    
C83   N15   A    
N14   Ni1   S    
C4    N4    A    
C28   H12   S    
C6    N26   A    
C48   C52   A    
C25   H13   S    
N13   Ni2   S    
C5    N25   A    
C35   C86   A    
C65   C69   A    
N8    Ni8   S    
C23   H75   S    
C30   H19   S    
C2    H2    S    
C10   C17   A    
N1    N6    A    
C54   H34   S    
N10   Ni5   S    
N3    Ni3   S    
C13   C93   A    
C38   N8    A    
N9    Ni6   S    
N2    Ni2   S    
C35   H45   S    
C7    H67   S    
N1    Ni1   S    
N4    Ni4   S    
C3    N3    A    
C7    N27   A    
C8    H68   S    
C16   C34   S    
C1    N1    A    
C33   C39   S    
C71   H51   S    
C82   O2    S    
C72   H52   S    
N26   N29   A    
N25   N30   A    
C69   C73   A    
C24   H8    S    
C23   C27   S    
C28   H16   S    
C26   H10   S    
C64   C87   S    
C51   C55   A    
N4    N7    A    
C25   H9    S    
C76   C89   A    
C58   H38   S    
C27   H11   S    
N23   N24   A    
C94   H58   S    
C2    C86   A    
C82   N14   A    
N7    Ni7   S    
C98   H62   S    
C11   N31   A    
C15   C97   A    
C40   H24   S    
C57   H37   S    
C14   C96   A    
C56   H36   S    
N12   Ni7   S    
C44   C46   A    
C55   H35   S    
C27   C34   S    
C1    C85   A    
C6    C18   A    
C62   C85   S    
C11   C20   A    
C22   C31   S    
C98   N22   A    
C81   N13   A    
C3    C87   A    
N15   N16   A    
C41   H25   S    
N27   Ni8   S    
C8    N28   A    
C53   H33   S    
C72   C74   A    
C22   H74   S    
C84   N16   A    
C17   C49   S    
O2    H78   S    
C75   C89   A    
C16   C100  A    
C47   C51   A    
C32   C92   S    
O1    H77   S    
C22   H6    S    
C29   H17   S    
C78   C90   A    
C82   C91   A    
C47   H31   S    
C81   C91   A    
C42   C48   A    
C24   C32   S    
N16   Ni3   S    
N19   Ni3   S    
O3    H79   S    
C66   C79   A    
C75   N9    A    
C97   N21   A    
N18   Ni2   S    
C65   H41   S    
C75   H53   S    
C26   C33   S    
N17   Ni1   S    
N28   N31   A    
C59   H39   S    
C68   C72   A    
C23   H7    S    
C29   C39   S    
C70   C73   A    
C45   C49   A    
C41   C47   A    
C30   C40   S    
N13   N14   A    
C100  H64   S    
C8    C20   A    
C37   H47   S    
C5    C17   A    
C93   H57   S    
C43   C45   A    
C38   H48   S    
C60   H40   S    
C66   H42   S    
C100  N24   A    
C36   H46   S    
C96   H60   S    
C21   H73   S    
C14   C80   S    
C55   C57   A    
N31   Ni4   S    
C77   N11   A    
N23   Ni7   S    
C36   N6    A    
C27   H15   S    
C15   C98   A    
C43   H27   S    
N22   Ni6   S    
C1    H1    S    
C11   H71   S    
C76   N10   A    
C18   C50   S    
N3    N8    A    
C29   H18   S    
C3    H3    S    
C26   H14   S    
C40   H23   S    
C21   C25   S    
N11   Ni8   S    
C44   H28   S    
C95   H59   S    
C95   N19   A    
C94   N18   A    
C59   C63   A    
C93   N17   A    
C67   C80   A    
C24   C28   S    
C31   C91   S    
C84   O4    S    
C46   H30   S    
C71   C74   A    
C83   O3    S    
C16   C99   A    
C57   C61   A    
C81   O1    S    
C4    C88   A    
C42   C62   A    
C36   C85   A    
C35   N5    A    
C37   N7    A    
C84   C92   A    
N27   N32   A    
C46   C50   A    
C7    C19   A    
C39   H21   S    
C13   C94   A    
C60   C64   A    
C69   H49   S    
C23   C32   S    
C74   C90   S    
C10   N30   A    
C73   C89   S    
N11   N12   A    
C20   C52   S    
C9    N29   A    
C77   H55   S    
C30   C32   S    
N30   Ni1   S    
C78   H56   S    
N9    N10   A    
C66   C70   A    
C30   H20   S    
N29   Ni2   S    
N32   Ni3   S    
C49   C53   A    
C10   H70   S    
C4    H4    S    
C12   C19   A    
C76   H54   S    
N24   Ni8   S    
C56   C58   A    
C68   H44   S    
C67   C71   A    
C5    H65   S    
N26   Ni5   S    
N21   N22   A    
N15   Ni4   S    
N25   Ni6   S    
N2    N5    A    
C99   H63   S    
C61   C86   S    
C42   H26   S    
C28   C34   S    
N19   N20   A    
N20   Ni4   S    
C19   C51   S    
C9    C18   A    
C96   N20   A    
N21   Ni5   S    
C78   N12   A    
C29   C31   S    
N17   N18   A    
C22   C26   S    
C99   N23   A    
N6    Ni6   S    
C77   C90   A    
C48   H32   S    
N5    Ni5   S    
C2    N2    A    
C15   C33   S    
C21   H5    S    
C52   C56   A    
C97   H61   S    
C25   C33   S    
C24   H76   S    
