data_mof_unit_65779.cif
_audit_creation_date              2012-12-10T16:42:38-0500
_audit_creation_method            fapswitch 2.2
_symmetry_space_group_name_H-M    P1
_symmetry_Int_Tables_number       1
_space_group_crystal_system       triclinic
_cell_length_a                    19.198929
_cell_length_b                    19.048426
_cell_length_c                    18.944595
_cell_angle_alpha                 109.023621
_cell_angle_beta                  109.811997
_cell_angle_gamma                 109.845308
_cell_volume                      5315.41713661

loop_
_atom_site_label
_atom_site_type_symbol
_atom_type_description
_atom_site_fract_x
_atom_site_fract_y
_atom_site_fract_z
_atom_type_partial_charge
C1    C     C_R   0.385246 0.382130 0.502543 0.828091
C2    C     C_R   0.579165 0.367030 0.666435 0.307315
C3    C     C_2   0.256445 0.260725 0.582974 -0.133926
C4    C     C_R   0.618194 0.500845 0.618251 0.904838
C5    C     C_2   0.176549 0.201939 0.512623 -0.200044
C6    C     C_2   0.316265 0.332023 0.579227 0.381106
C7    C     C_2   0.329488 0.313544 0.511114 0.254477
C8    C     C_2   0.172356 0.494032 0.254130 0.304813
C9    C     C_2   0.185810 0.523414 0.200395 -0.245528
C10   C     C_2   0.245311 0.503188 0.326153 0.428664
C11   C     C_2   0.299984 0.479711 0.310448 0.169730
C12   C     C_R   0.769453 0.572870 0.736250 -0.137889
C13   C     C_2   0.734298 0.805850 0.473998 0.319168
C14   C     C_2   0.820306 0.845356 0.527982 -0.183308
C15   C     C_2   0.673161 0.748571 0.489591 0.282268
C16   C     C_R   0.615535 0.617117 0.497809 0.839678
C17   C     C_2   0.679172 0.680785 0.491728 0.256259
C18   C     C_R   0.998018 0.382600 0.881227 0.825211
C19   C     C_R   0.878686 0.500243 0.878656 0.797494
C20   C     C_R   0.998846 0.617150 0.116570 0.818330
C21   C     C_R   0.115397 0.505573 0.120287 0.800231
C22   C     C_R   0.003356 0.120568 0.616752 0.766139
C23   C     C_R   0.811722 0.500468 0.811780 -0.057805
C24   C     C_R   0.116518 0.122615 0.504616 0.795222
C25   C     C_R   0.005470 0.888406 0.382709 0.835290
C26   C     C_R   0.883143 0.889055 0.506399 0.845392
C27   C     C_2   0.960000 0.224370 0.671125 -0.103014
C28   C     C_R   0.377568 0.494794 0.381052 0.778449
C29   C     C_2   0.020155 0.200911 0.682126 0.221820
C30   C     C_2   0.984142 0.306584 0.740561 -0.086246
C31   C     C_2   0.996265 0.312957 0.817888 -0.215888
C32   C     C_2   0.074827 0.811984 0.328608 0.307867
C33   C     C_2   0.019117 0.841449 0.314024 -0.179200
C34   C     C_R   0.731911 0.422618 0.747549 -0.103407
C35   C     C_2   0.075549 0.753173 0.253955 0.287048
C36   C     C_2   0.001478 0.680331 0.189003 0.243467
C37   C     C_R   0.799008 0.640758 0.718522 0.367361
C38   C     C_R   0.872861 0.719854 0.783247 0.375290
C39   C     C_R   0.919206 0.731838 0.866271 0.239701
C40   C     C_R   0.891748 0.662726 0.881934 -0.154170
C41   C     C_R   0.825202 0.578926 0.811556 -0.121486
C42   C     C_2   0.472920 0.220771 0.630940 0.879619
C43   C     C_2   0.140742 0.220587 0.441715 0.899793
C44   C     C_2   0.275155 0.584287 0.225671 0.871862
C45   C     C_R   0.664242 0.429959 0.698419 0.024352
C46   C     C_2   0.854348 0.855646 0.616406 0.870656
C47   C     C_2   0.867155 0.165724 0.604003 0.892849
C48   C     C_2   0.000921 0.379768 0.723279 0.969472
C49   C     C_2   0.988710 0.240748 0.836333 0.911116
C50   C     C_2   0.975232 0.835479 0.228603 0.867271
C51   C     C_2   0.923469 0.682830 0.973367 0.935780
C52   C     C_2   0.782218 0.314566 0.738204 0.935907
C53   C     C_2   0.287789 0.260428 0.666202 0.875383
C54   C     C_R   0.684702 0.501571 0.685215 -0.074939
C55   C     C_R   0.715171 0.338383 0.731517 -0.056064
C56   C     C_R   0.629817 0.271219 0.690709 0.331149
C57   C     C_R   0.561807 0.287702 0.664278 -0.186607
Cu1   Cu    Cu3+1 0.500390 0.438990 0.439360 1.040530
Cu2   Cu    Cu3+1 0.499610 0.561010 0.560640 1.149172
Cu3   Cu    Cu3+1 0.935830 0.439030 0.996840 1.081388
Cu4   Cu    Cu3+1 0.057850 0.561040 0.996790 1.139473
Cu5   Cu    Cu3+1 0.061410 0.000010 0.561410 1.112247
Cu6   Cu    Cu3+1 0.938590 0.999990 0.438590 1.115630
H1    H     H_    0.394474 0.132019 0.645691 0.352665
H2    H     H_    0.844544 0.883325 0.723907 0.363470
H3    H     H_    0.614476 0.813252 0.491853 0.348262
H4    H     H_    0.741728 0.572010 0.595069 0.308323
H5    H     H_    0.737169 0.614506 0.481616 0.360604
H6    H     H_    0.763845 0.045714 0.533696 0.351820
H7    H     H_    0.138536 0.232426 0.755453 0.383056
H8    H     H_    0.080079 0.503560 0.763043 0.341376
H9    H     H_    0.927358 0.113425 0.794846 0.357571
H10   H     H_    0.158160 0.799348 0.408204 0.339895
H11   H     H_    0.986604 0.856611 0.134516 0.376877
H12   H     H_    0.127309 0.307741 0.408628 0.356024
H13   H     H_    0.197500 0.827012 0.305384 0.351436
H14   H     H_    0.878345 0.609573 0.141075 0.371495
H15   H     H_    0.926519 0.841039 0.816851 0.327513
H16   H     H_    0.023040 0.836288 0.908747 0.347756
H17   H     H_    0.805749 0.607203 0.951220 0.305584
H18   H     H_    0.820749 0.229567 0.745607 0.336676
H19   H     H_    0.556566 0.145932 0.624901 0.347798
H20   H     H_    0.477876 0.363464 0.666859 0.368513
H21   H     H_    0.389145 0.288658 0.772773 0.357254
H22   H     H_    0.335554 0.417387 0.685167 0.345936
H23   H     H_    0.301496 0.223402 0.401502 0.359108
H24   H     H_    0.062597 0.485654 0.229554 0.334697
H25   H     H_    0.392087 0.686410 0.320584 0.352047
H26   H     H_    0.212255 0.550785 0.407679 0.357473
H27   H     H_    0.327866 0.430129 0.223327 0.361533
H28   H     H_    0.639539 0.773417 0.366134 0.339360
O1    O     O_R   0.411310 0.359450 0.448800 -0.595727
O2    O     O_R   0.947570 0.089010 0.536620 -0.587655
O3    O     O_R   0.140880 0.089030 0.551840 -0.555861
O4    O     O_R   0.410660 0.462490 0.551220 -0.513432
O5    O     O_R   0.037150 0.089020 0.448130 -0.575581
O6    O     O_R   0.052430 0.910990 0.463380 -0.512684
O7    O     O_R   0.948700 0.910980 0.359670 -0.562966
O8    O     O_R   0.962850 0.910980 0.551870 -0.561352
O9    O     O_R   0.859120 0.910970 0.448160 -0.505568
O10   O     O_R   0.589930 0.448490 0.538390 -0.592000
O11   O     O_R   0.589280 0.551530 0.640800 -0.548682
O12   O     O_R   0.048900 0.462510 0.908320 -0.521164
O13   O     O_R   0.589340 0.537510 0.448780 -0.613567
O14   O     O_R   0.588690 0.640550 0.551200 -0.525351
O15   O     O_R   0.410720 0.448470 0.359200 -0.603455
O16   O     O_R   0.410070 0.551510 0.461610 -0.520277
O17   O     O_R   0.945860 0.359480 0.908360 -0.574645
O18   O     O_2   0.413496 0.204190 0.565053 -0.530270
O19   O     O_R   0.457466 0.175979 0.674619 -0.709507
O20   O     O_2   0.098722 0.163163 0.366045 -0.526613
O21   O     O_R   0.154348 0.303336 0.461997 -0.748270
O22   O     O_3   0.357719 0.416276 0.644806 -0.684804
O23   O     O_R   0.855710 0.448510 0.907250 -0.589091
O24   O     O_3   0.294443 0.227778 0.451874 -0.700007
O25   O     O_3   0.092515 0.455236 0.245673 -0.680999
O26   O     O_2   0.296701 0.577190 0.171061 -0.512850
O27   O     O_R   0.333886 0.649931 0.311647 -0.758744
O28   O     O_3   0.256377 0.534697 0.408379 -0.698371
O29   O     O_3   0.278612 0.434841 0.225059 -0.722495
O30   O     O_3   0.702986 0.809904 0.398949 -0.679423
O31   O     O_2   0.919206 0.852372 0.649297 -0.489788
O32   O     O_R   0.813293 0.872309 0.662953 -0.731071
O33   O     O_3   0.607065 0.759967 0.493902 -0.717674
O34   O     O_R   0.958760 0.551540 0.907200 -0.575059
O35   O     O_3   0.760052 0.630925 0.637528 -0.701965
O36   O     O_3   0.739690 0.665310 0.476479 -0.726761
O37   O     O_2   0.824549 0.195159 0.574927 -0.518481
O38   O     O_R   0.827208 0.078096 0.578243 -0.723660
O39   O     O_3   0.101376 0.257869 0.755037 -0.688680
O40   O     O_2   0.952709 0.368005 0.653398 -0.514671
O41   O     O_R   0.075328 0.459952 0.783389 -0.706845
O42   O     O_2   0.036749 0.257370 0.908813 -0.528812
O43   O     O_R   0.925407 0.155353 0.773324 -0.752017
O44   O     O_3   0.126134 0.830494 0.411398 -0.682998
O45   O     O_R   0.944780 0.537560 0.085320 -0.611751
O46   O     O_2   0.898599 0.811299 0.193280 -0.505130
O47   O     O_R   0.022508 0.859642 0.190067 -0.702687
O48   O     O_3   0.151479 0.770069 0.253972 -0.709642
O49   O     O_3   0.928646 0.660046 0.196390 -0.730649
O50   O     O_3   0.895575 0.784702 0.763512 -0.652950
O51   O     O_3   0.990695 0.809976 0.933020 -0.667915
O52   O     O_2   0.998592 0.735842 0.027993 -0.453939
O53   O     O_R   0.867993 0.644862 0.999191 -0.772243
O54   O     O_2   0.839344 0.352534 0.726996 -0.621351
O55   O     O_R   0.777562 0.245923 0.752406 -0.656822
O56   O     O_R   0.047820 0.640590 0.085270 -0.512744
O57   O     O_3   0.614881 0.189779 0.674948 -0.628562
O58   O     O_3   0.516365 0.388607 0.647194 -0.722773
O59   O     O_2   0.239190 0.239457 0.693108 -0.588479
O60   O     O_R   0.374887 0.290229 0.716854 -0.752318
O61   O     O_R   0.034920 0.448530 0.086440 -0.557905
O62   O     O_R   0.137970 0.551560 0.086390 -0.551019
O63   O     O_R   0.051300 0.089020 0.640330 -0.580196

loop_
_geom_bond_atom_site_label_1
_geom_bond_atom_site_label_2
_ccdc_geom_bond_type
C55   C56   A    
C52   O54   D    
C22   C29   S    
C27   C29   D    
Cu3   O23   S    
C35   C36   D    
H14   O49   S    
C49   O43   S    
C3    C6    S    
C2    C57   A    
C47   O37   D    
C14   C46   S    
C51   O53   S    
H11   O47   S    
H12   O21   S    
C37   C38   A    
C43   O20   D    
C47   O38   S    
C11   C28   S    
C30   C48   S    
Cu4   O12   S    
C42   O18   D    
Cu6   O7    S    
C24   O5    A    
C30   C31   D    
H16   O51   S    
C28   O16   A    
H7    O39   S    
C56   C57   A    
Cu3   O61   S    
C21   O61   A    
C7    O24   S    
C12   C37   A    
C10   O28   S    
C35   O48   S    
H8    O41   S    
H1    O19   S    
C16   O13   A    
H10   O44   S    
C28   O15   A    
C8    C9    D    
H17   O53   S    
C4    O11   A    
C48   O40   D    
Cu3   O45   S    
Cu3   O17   S    
C52   C55   S    
C26   O8    A    
C2    O58   S    
H2    O32   S    
C5    C43   S    
C34   C55   A    
C13   C14   D    
C27   C30   S    
Cu2   O4    S    
C31   C49   S    
C11   O29   S    
C42   C57   S    
C48   O41   S    
C2    C45   A    
C50   O46   D    
C15   O33   S    
Cu4   O56   S    
C32   C35   S    
H26   O28   S    
H15   O50   S    
C39   C40   A    
Cu1   O10   S    
C16   C17   S    
C19   O23   A    
C33   C50   S    
Cu6   O5    S    
C19   O34   A    
Cu2   O16   S    
Cu5   O63   S    
H23   O24   S    
Cu1   O15   S    
H27   O29   S    
C56   O57   S    
C19   C23   S    
C6    O22   S    
Cu6   O9    S    
C24   O3    A    
Cu5   O6    S    
C13   O30   S    
H9    O43   S    
C29   O39   S    
C39   O51   S    
C44   O27   S    
C1    O4    A    
C23   C34   A    
C4    O10   A    
Cu5   Cu6   S    
C20   O56   A    
C46   O31   D    
C34   C45   A    
Cu2   O14   S    
C14   C26   S    
C20   O45   A    
H5    O36   S    
H24   O25   S    
C16   O14   A    
C25   O6    A    
C40   C41   A    
C45   C54   A    
C1    O1    A    
C13   C15   S    
C53   O59   D    
C22   O2    A    
H3    O33   S    
C46   O32   S    
H4    O35   S    
Cu1   O13   S    
C43   O21   S    
H25   O27   S    
C12   C41   A    
C37   O35   S    
C22   O63   A    
H13   O48   S    
C27   C47   S    
C15   C17   D    
C49   O42   D    
C9    C44   S    
C52   O55   S    
C4    C54   S    
C1    C7    S    
Cu2   O11   S    
C17   O36   S    
C3    C5    D    
Cu4   O62   S    
C32   O44   S    
H19   O57   S    
C50   O47   S    
C6    C7    D    
C51   O52   D    
C40   C51   S    
Cu6   O2    S    
C23   C41   A    
C32   C33   D    
Cu5   O3    S    
Cu1   Cu2   S    
C3    C53   S    
C9    C21   S    
C38   C39   A    
C5    C24   S    
C44   O26   D    
H6    O38   S    
H22   O22   S    
C38   O50   S    
C18   O12   A    
C36   O49   S    
C42   O19   S    
C18   O17   A    
C10   C11   D    
C8    O25   S    
Cu5   O8    S    
C20   C36   S    
H21   O60   S    
C25   O7    A    
C8    C10   S    
H18   O55   S    
H28   O30   S    
C25   C33   S    
C53   O60   S    
C21   O62   A    
Cu3   Cu4   S    
Cu4   O34   S    
C18   C31   S    
Cu1   O1    S    
C12   C54   A    
C26   O9    A    
H20   O58   S    
