data_mof_unit_7888.cif
_audit_creation_date              2012-12-10T18:33:32-0500
_audit_creation_method            fapswitch 2.2
_symmetry_space_group_name_H-M    P1
_symmetry_Int_Tables_number       1
_space_group_crystal_system       triclinic
_cell_length_a                    8.704565
_cell_length_b                    15.097268
_cell_length_c                    13.965011
_cell_angle_alpha                 88.890958
_cell_angle_beta                  96.727116
_cell_angle_gamma                 91.923456
_cell_volume                      1821.33231715

loop_
_atom_site_label
_atom_site_type_symbol
_atom_type_description
_atom_site_fract_x
_atom_site_fract_y
_atom_site_fract_z
_atom_type_partial_charge
C1    C     C_R   0.499580 0.330443 0.500663 0.778868
C2    C     C_R   0.498246 0.670030 0.499330 0.787206
C3    C     C_R   0.605944 0.549952 0.112648 -0.310935
C4    C     C_R   0.429485 0.431689 0.889943 -0.309872
C5    C     C_R   0.606186 0.550892 0.213340 0.184820
C6    C     C_R   0.429322 0.431653 0.789189 0.186174
C7    C     C_R   0.390396 0.450780 0.203150 0.059936
C8    C     C_R   0.567306 0.569324 0.793846 0.060223
C9    C     C_R   0.383979 0.451400 0.101476 -0.283020
C10   C     C_R   0.564154 0.572521 0.894652 -0.283461
C11   C     C_R   0.493907 0.501345 0.053982 0.124761
C12   C     C_R   0.495151 0.502455 0.945162 0.125652
C13   C     C_R   0.204337 0.496520 0.476126 0.876186
C14   C     C_R   0.795755 0.501405 0.524138 0.884679
C15   C     C_2   0.039351 0.486642 0.464882 -0.359234
C16   C     C_2   0.961002 0.507972 0.536657 -0.364633
C17   C     C_R   0.613186 0.097194 0.556060 -0.184093
C18   C     C_R   0.437507 0.905897 0.416262 -0.181344
C19   C     C_R   0.614056 0.189263 0.557200 -0.203516
C20   C     C_R   0.436993 0.813757 0.416061 -0.215285
C21   C     C_R   0.497109 0.234648 0.501618 0.018358
C22   C     C_R   0.494796 0.766713 0.499153 -0.011791
C23   C     C_R   0.378005 0.188310 0.445980 -0.181018
C24   C     C_R   0.546388 0.812592 0.583816 -0.182813
C25   C     C_R   0.374478 0.096213 0.446838 -0.177214
C26   C     C_R   0.543498 0.904460 0.584795 -0.178646
C27   C     C_R   0.492824 0.049727 0.501232 0.100243
C28   C     C_R   0.491168 0.952140 0.500673 0.110129
Cu1   Cu    Cu3+1 0.500000 0.499990 0.596430 0.938786
Cu2   Cu    Cu3+1 0.500000 0.500010 0.403570 0.934443
H1    H     H_    0.981974 0.460235 0.397900 0.160746
H2    H     H_    0.018226 0.533187 0.604426 0.160710
H3    H     H_    0.707649 0.063407 0.597132 0.124848
H4    H     H_    0.397096 0.940731 0.350100 0.124755
H5    H     H_    0.706996 0.225127 0.599935 0.122115
H6    H     H_    0.389890 0.779462 0.351377 0.132781
H7    H     H_    0.286460 0.223461 0.403471 0.123915
H8    H     H_    0.589498 0.777506 0.649365 0.136579
H9    H     H_    0.278473 0.061590 0.405693 0.123193
H10   H     H_    0.581404 0.937986 0.651664 0.119938
H11   H     H_    0.694842 0.588304 0.080888 0.133899
H12   H     H_    0.377477 0.375309 0.924480 0.132910
H13   H     H_    0.305393 0.411505 0.237380 0.122407
H14   H     H_    0.622684 0.623481 0.757810 0.121104
H15   H     H_    0.291591 0.413509 0.061045 0.128766
H16   H     H_    0.614505 0.630569 0.931795 0.127472
N1    N     N_R   0.500000 0.500020 0.258690 -0.188525
N2    N     N_R   0.500000 0.499980 0.741310 -0.187315
O1    O     O_R   0.500010 0.371450 0.581430 -0.576252
O2    O     O_R   0.499990 0.628550 0.418570 -0.587829
O3    O     O_R   0.500010 0.371460 0.418560 -0.589510
O4    O     O_R   0.499990 0.628540 0.581440 -0.597903
O5    O     O_R   0.274840 0.499990 0.562640 -0.575766
O6    O     O_R   0.725160 0.500010 0.437360 -0.567938
O7    O     O_R   0.274840 0.500000 0.399770 -0.608530
O8    O     O_R   0.725160 0.500000 0.600230 -0.594165
C29   C     C_R   0.720641 0.612735 0.264654 0.155899
C30   C     C_R   0.678886 0.699527 0.281221 -0.117369
C31   C     C_R   0.790017 0.762328 0.319389 -0.150459
C32   C     C_R   0.945587 0.740351 0.335752 -0.132626
C33   C     C_R   0.990076 0.656344 0.311777 -0.135071
C34   C     C_R   0.878278 0.593175 0.275007 -0.156391
H17   H     H_    0.560548 0.718684 0.262554 0.118190
H18   H     H_    0.756012 0.828547 0.334126 0.142287
H19   H     H_    0.032093 0.789160 0.364209 0.130496
H20   H     H_    0.111340 0.640699 0.320319 0.149010
H21   H     H_    0.914475 0.529719 0.252411 0.115157
C35   C     C_R   0.345309 0.356310 0.739265 0.147266
C36   C     C_R   0.411427 0.272425 0.743409 -0.152259
C37   C     C_R   0.326546 0.199144 0.703139 -0.121333
C38   C     C_R   0.174816 0.208848 0.659845 -0.124392
C39   C     C_R   0.106340 0.291297 0.659157 -0.163382
C40   C     C_R   0.190308 0.364271 0.700619 -0.110229
H22   H     H_    0.528707 0.264105 0.777108 0.119264
H23   H     H_    0.378584 0.134924 0.705173 0.137704
H24   H     H_    0.109635 0.152244 0.628137 0.127463
H25   H     H_    0.987524 0.298403 0.627912 0.127794
H26   H     H_    0.134060 0.426547 0.704513 0.126990

loop_
_geom_bond_atom_site_label_1
_geom_bond_atom_site_label_2
_ccdc_geom_bond_type
C14   O8    A    
Cu2   O3    S    
C9    H15   S    
C29   C34   A    
Cu1   O1    S    
C1    C21   S    
Cu2   O6    S    
C31   H18   S    
C39   H25   S    
C4    H12   S    
C34   H21   S    
C19   C21   A    
C24   C26   A    
C38   H24   S    
C15   C16   D    
C2    O2    A    
C17   C19   A    
C33   H20   S    
C35   C36   A    
C2    C22   S    
C24   H8    S    
C40   H26   S    
C37   C38   A    
C7    H13   S    
C4    C12   A    
C18   C20   A    
C9    C11   A    
C6    C35   S    
Cu2   O2    S    
C31   C32   A    
C36   C37   A    
C17   H3    S    
C10   C12   A    
C13   O5    A    
Cu1   N2    S    
C17   C27   A    
Cu2   N1    S    
C18   C28   A    
C4    C6    A    
C30   C31   A    
C23   H7    S    
C32   C33   A    
C7    N1    A    
C8    N2    A    
C10   H16   S    
Cu1   Cu2   S    
C1    O3    A    
C36   H22   S    
C18   H4    S    
C6    N2    A    
C2    O4    A    
C14   O6    A    
C20   C22   A    
C32   H19   S    
C13   C15   S    
C14   C16   S    
C16   H2    S    
C37   H23   S    
C30   H17   S    
C7    C9    A    
C3    H11   S    
C8    H14   S    
C39   C40   A    
C3    C5    A    
C11   C12   S    
C15   H1    S    
Cu1   O8    S    
C25   C27   A    
Cu2   O7    S    
C26   C28   A    
C5    C29   S    
C21   C23   A    
C35   C40   A    
C38   C39   A    
C19   H5    S    
C25   H9    S    
C26   H10   S    
C29   C30   A    
Cu1   O5    S    
C5    N1    A    
C22   C24   A    
C23   C25   A    
C33   C34   A    
C3    C11   A    
C20   H6    S    
C8    C10   A    
C27   C28   S    
C1    O1    A    
C13   O7    A    
Cu1   O4    S    
