data_mof_unit_14082.cif
_audit_creation_date              2013-03-05T15:59:57-0500
_audit_creation_method            fapswitch 2.2
_symmetry_space_group_name_H-M    P1
_symmetry_Int_Tables_number       1
_space_group_crystal_system       triclinic
_cell_length_a                    12.610484
_cell_length_b                    12.990945
_cell_length_c                    19.308284
_cell_angle_alpha                 91.240647
_cell_angle_beta                  102.540297
_cell_angle_gamma                 83.085272
_cell_volume                      3065.17155688

loop_
_atom_site_label
_atom_site_type_symbol
_atom_site_description
_atom_site_fract_x
_atom_site_fract_y
_atom_site_fract_z
_atom_type_partial_charge
O1    O     O_R   0.366740 0.627160 0.482470 -0.606491
O2    O     O_R   0.544830 0.662520 0.505920 -0.579774
C1    C     C_R   0.439040 0.691946 0.489911 0.922543
O3    O     O_R   0.410920 0.482320 0.590130 -0.618123
O4    O     O_R   0.589010 0.517690 0.613590 -0.577706
C2    C     C_R   0.501458 0.497771 0.634790 0.860800
Zn1   Zn    Zn3+2 0.381090 0.476390 0.484340 0.937481
Zn2   Zn    Zn3+2 0.618910 0.523610 0.515660 0.969019
O5    O     O_R   0.455170 0.337480 0.494080 -0.621310
O6    O     O_R   0.633260 0.372840 0.517530 -0.653786
O7    O     O_R   0.410990 0.482310 0.386410 -0.671043
O8    O     O_R   0.589080 0.517680 0.409870 -0.644347
C3    C     C_R   0.561545 0.307350 0.509636 0.830035
C4    C     C_R   0.496643 0.508181 0.365275 0.854175
C5    C     C_R   0.409055 0.520339 0.738518 -0.033589
C6    C     C_R   0.414733 0.521809 0.812123 -0.074466
C7    C     C_R   0.514953 0.488820 0.858550 -0.053859
C8    C     C_R   0.609729 0.453876 0.833423 -0.014365
C9    C     C_R   0.605746 0.456449 0.759910 -0.129645
C10   C     C_R   0.505369 0.491211 0.712070 -0.232584
N1    N     N_R   0.514129 0.399445 0.967832 -0.175983
N2    N     N_R   0.511636 0.400707 0.036242 -0.166610
C11   C     C_R   0.513625 0.491183 0.072403 0.384028
N3    N     N_R   0.518529 0.580210 0.038633 -0.098242
N4    N     N_R   0.520653 0.579050 0.970262 -0.104233
C12   C     C_R   0.518875 0.488639 0.934193 0.308376
C13   C     C_R   0.415934 0.471735 0.167262 0.476796
C14   C     C_R   0.401219 0.497455 0.236026 -0.159234
C15   C     C_R   0.493087 0.521054 0.288330 -0.355433
C16   C     C_R   0.585952 0.550560 0.266047 -0.094841
C17   C     C_R   0.595417 0.534434 0.195541 0.467094
C18   C     C_R   0.510926 0.493822 0.147063 -0.228267
C19   C     C_R   0.662254 0.086918 0.631314 0.509945
C20   C     C_R   0.603125 0.196989 0.526068 -0.331891
C21   C     C_R   0.323061 0.835909 0.414871 -0.172211
C22   C     C_R   0.296101 0.943056 0.400322 -0.113437
C23   C     C_R   0.353231 0.013684 0.445245 0.549225
C24   C     C_R   0.442413 0.976951 0.500066 -0.011126
C25   C     C_R   0.447712 0.876864 0.526023 -0.025940
C26   C     C_R   0.520884 0.041188 0.531893 -0.045350
C27   C     C_R   0.584523 0.018418 0.601148 -0.145111
C28   C     C_R   0.568708 0.927161 0.636016 -0.039362
C29   C     C_R   0.500358 0.856123 0.597964 -0.029062
C30   C     C_R   0.543738 0.120296 0.490699 0.553099
C31   C     C_R   0.678145 0.170998 0.590684 -0.192998
C32   C     C_R   0.398407 0.802636 0.478873 -0.145527
C33   C     C_R   0.081821 0.351402 0.393718 -0.104107
N5    N     N_R   0.222200 0.444680 0.463280 -0.176503
C34   C     C_R   0.802319 0.630339 0.585111 0.598193
C35   C     C_R   0.900653 0.673228 0.590809 -0.397641
C36   C     C_R   0.976880 0.631787 0.552339 0.477906
C37   C     C_R   0.958344 0.540445 0.511833 -0.098709
C38   C     C_R   0.852701 0.507624 0.501690 0.072728
C39   C     C_R   0.037503 0.482837 0.479031 0.013400
C40   C     C_R   0.003432 0.407060 0.426770 0.042871
C41   C     C_R   0.892395 0.387337 0.411220 -0.046260
C42   C     C_R   0.823862 0.429775 0.453643 -0.221617
C43   C     C_R   0.150181 0.494266 0.498883 -0.070637
C44   C     C_R   0.188611 0.379776 0.407690 0.023097
N6    N     N_R   0.776960 0.554780 0.536340 -0.161175
H1    H     H_    0.183212 0.541414 0.542712 0.222844
H2    H     H_    0.916839 0.740811 0.623385 0.206167
H3    H     H_    0.744403 0.405459 0.444434 0.201382
C45   C     C_2   0.300329 0.540099 0.689829 0.569771
H4    H     H_    0.262284 0.475554 0.662674 0.002394
O9    O     O_2   0.253162 0.627870 0.679807 -0.419079
C46   C     C_2   0.622988 0.903538 0.711113 0.394601
H5    H     H_    0.711272 0.895983 0.727698 0.135300
O10   O     O_2   0.568809 0.893217 0.755252 -0.553756
O11   O     O_3   0.724290 0.071856 0.699477 -0.579616
C47   C     C_3   0.671286 0.133440 0.746056 -0.206560
H6    H     H_    0.587614 0.112669 0.744135 0.158110
H7    H     H_    0.666337 0.217167 0.734188 0.132727
H8    H     H_    0.719488 0.119906 0.801053 0.206231
O12   O     O_3   0.560498 0.087944 0.424185 -0.605717
C48   C     C_3   0.520516 0.163540 0.370876 -0.233264
H9    H     H_    0.550562 0.239659 0.384446 0.112899
H10   H     H_    0.430343 0.169058 0.355527 0.221951
H11   H     H_    0.550789 0.136702 0.322980 0.191294
C49   C     C_2   0.274678 0.759814 0.362451 0.330091
H12   H     H_    0.238414 0.695768 0.379139 0.102704
O13   O     O_2   0.274954 0.768580 0.299654 -0.558803
O14   O     O_3   0.313838 0.118070 0.441442 -0.622707
C50   C     C_3   0.259356 0.140520 0.497797 -0.373761
H13   H     H_    0.314178 0.122840 0.550651 0.178792
H14   H     H_    0.186161 0.098214 0.491278 0.163145
H15   H     H_    0.231429 0.224301 0.498018 0.183967
C51   C     C_2   0.208824 0.981519 0.338642 0.533566
H16   H     H_    0.141851 0.936513 0.317945 0.074550
O15   O     O_2   0.212658 0.062557 0.308989 -0.481683
C52   C     C_2   0.472520 0.768583 0.636330 0.518943
H17   H     H_    0.532579 0.727396 0.678256 0.093581
O16   O     O_2   0.379545 0.744971 0.623263 -0.525855
C53   C     C_2   0.265784 0.334558 0.364391 0.507447
H18   H     H_    0.350376 0.316423 0.386962 0.108626
O17   O     O_2   0.235429 0.318327 0.301186 -0.521469
C54   C     C_2   0.838593 0.330756 0.348388 0.393477
H19   H     H_    0.780141 0.278077 0.353678 0.039294
O18   O     O_2   0.852420 0.348813 0.289482 -0.525646
C55   C     C_2   0.060308 0.251134 0.357933 0.614265
H20   H     H_    0.042442 0.188274 0.388025 -0.031616
O19   O     O_2   0.055352 0.240290 0.294409 -0.411159
C56   C     C_2   0.315244 0.551105 0.842005 0.436638
H21   H     H_    0.305576 0.511835 0.888895 0.081560
O20   O     O_2   0.245585 0.621616 0.816724 -0.475361
O21   O     O_3   0.726558 0.668670 0.624305 -0.605381
C57   C     C_3   0.777165 0.669285 0.697259 -0.276428
H22   H     H_    0.817150 0.740756 0.710780 0.158548
H23   H     H_    0.838326 0.600207 0.713648 0.220165
H24   H     H_    0.713920 0.668401 0.729030 0.203130
O22   O     O_3   0.066267 0.684387 0.553866 -0.561866
C58   C     C_3   0.044776 0.748354 0.493126 -0.233070
H25   H     H_    0.972975 0.807505 0.492689 0.162780
H26   H     H_    0.031998 0.702113 0.443413 0.158009
H27   H     H_    0.116906 0.790137 0.494325 0.196940
C59   C     C_2   0.711456 0.409037 0.883644 0.505076
H28   H     H_    0.759918 0.340678 0.868875 0.093483
O23   O     O_2   0.743121 0.448906 0.941101 -0.546952
C60   C     C_2   0.705267 0.418339 0.732697 0.397022
H29   H     H_    0.697103 0.377498 0.682926 0.093448
O24   O     O_2   0.796711 0.433377 0.764747 -0.558790
O25   O     O_3   0.332165 0.437756 0.116469 -0.556272
C61   C     C_3   0.335934 0.329584 0.124639 -0.124936
H30   H     H_    0.270311 0.301508 0.083216 0.209355
H31   H     H_    0.321116 0.309403 0.177163 0.199366
H32   H     H_    0.415343 0.288074 0.117540 0.129310
C62   C     C_2   0.287965 0.515705 0.249157 0.617854
H33   H     H_    0.272016 0.556590 0.295797 0.072767
O26   O     O_2   0.209085 0.490633 0.206243 -0.470390
C63   C     C_2   0.668176 0.608104 0.313647 0.565297
H34   H     H_    0.643132 0.661341 0.352800 0.060491
O27   O     O_2   0.764242 0.596965 0.309736 -0.520765
O28   O     O_3   0.682329 0.569190 0.172926 -0.577252
C64   C     C_3   0.750673 0.485049 0.152101 -0.040132
H35   H     H_    0.745052 0.489670 0.094075 0.187067
H36   H     H_    0.732020 0.406753 0.164927 0.145230
H37   H     H_    0.836631 0.492274 0.178936 0.239113
C65   C     C_2   0.778375 0.224764 0.611543 0.457368
H38   H     H_    0.799594 0.276215 0.574648 0.081871
O29   O     O_2   0.841805 0.209090 0.668809 -0.499935

loop_
_geom_bond_atom_site_label_1
_geom_bond_atom_site_label_2
_geom_bond_distance
_ccdc_geom_bond_type
C40   C41   1.420197 A    
C19   C31   1.416607 A    
C27   C28   1.431172 A    
O22   C58   1.410453 S    
C50   H15   1.103086 S    
N1    C12   1.354339 A    
C64   H37   1.109402 S    
C58   H26   1.113261 S    
C54   H19   1.085951 S    
C5    C45   1.481740 S    
C61   H30   1.109134 S    
C41   C42   1.376576 A    
Zn1   O7    2.011546 S    
C15   C16   1.427403 A    
C34   N6    1.362844 A    
C7    C12   1.450641 S    
C14   C15   1.421284 A    
C50   H14   1.112915 S    
C16   C17   1.401278 A    
O7    C4    1.315637 A    
C61   H31   1.112531 S    
O21   C57   1.414882 S    
C5    C6    1.407202 A    
C21   C49   1.485815 S    
C59   H28   1.085111 S    
C8    C9    1.410347 A    
O5    C3    1.321587 A    
C55   H20   1.084852 S    
C47   H8    1.109091 S    
C50   H13   1.112513 S    
C13   O25   1.384276 S    
C17   C18   1.403784 A    
C6    C7    1.406683 A    
C57   H22   1.108842 S    
C48   H11   1.108980 S    
O11   C47   1.413084 S    
C44   C53   1.478337 S    
C14   C62   1.494427 S    
C17   O28   1.389688 S    
C43   H1    1.072710 S    
C9    C60   1.490544 S    
N1    N2    1.327757 A    
C57   H23   1.113533 S    
C41   C54   1.482030 S    
O3    Zn1   1.996560 S    
C58   H25   1.113474 S    
C54   O18   1.219240 D    
C38   N6    1.361626 A    
C37   C39   1.425421 A    
C42   H3    1.063876 S    
C60   O24   1.220645 D    
C5    C10   1.424590 A    
C36   C37   1.421825 A    
C20   C30   1.395690 A    
N3    N4    1.325921 A    
C49   O13   1.221102 D    
C8    C59   1.493176 S    
C52   H17   1.081741 S    
C47   H7    1.108024 S    
C38   C42   1.384595 A    
C61   H32   1.112989 S    
C25   C29   1.419679 A    
C35   C36   1.390579 A    
N4    C12   1.352478 A    
C16   C63   1.490547 S    
C29   C52   1.486877 S    
C33   C55   1.487418 S    
C46   H5    1.082528 S    
O1    C1    1.297270 A    
C21   C22   1.411918 A    
C45   O9    1.219677 D    
C30   O12   1.394195 S    
C63   O27   1.221174 D    
O12   C48   1.406165 S    
C62   O26   1.220877 D    
C23   C24   1.410188 A    
C52   O16   1.219504 D    
O28   C64   1.415591 S    
C6    C56   1.497208 S    
O14   C50   1.415536 S    
Zn2   O8    1.996560 S    
C55   O19   1.220443 D    
C7    C8    1.407657 A    
C56   O20   1.220003 D    
C20   C31   1.412217 A    
C48   H9    1.107227 S    
C53   O17   1.218926 D    
C64   H35   1.109629 S    
C65   O29   1.220790 D    
C19   O11   1.381882 S    
C25   C32   1.416257 A    
O3    C2    1.306737 A    
C26   C27   1.419000 A    
C51   O15   1.220173 D    
C28   C46   1.484224 S    
C35   H2    1.082408 S    
C57   H24   1.107914 S    
C28   C29   1.421808 A    
C4    C15   1.489046 S    
C62   H33   1.079697 S    
C56   H21   1.085225 S    
C37   C38   1.419429 A    
N5    C44   1.375422 A    
C33   C40   1.410371 A    
C39   C43   1.414156 A    
Zn1   O5    1.922770 S    
C39   C40   1.429143 A    
C22   C23   1.402352 A    
C36   O22   1.381508 S    
C13   C18   1.399952 A    
O1    Zn1   1.945565 S    
O2    Zn2   1.922769 S    
C48   H10   1.104965 S    
C49   H12   1.082781 S    
O6    C3    1.297957 A    
O4    Zn2   2.011546 S    
C64   H36   1.115815 S    
C60   H29   1.078765 S    
N5    C43   1.350343 A    
C34   O21   1.384387 S    
C2    C10   1.486174 S    
C1    C32   1.471112 S    
C19   C27   1.425359 A    
C11   C18   1.448898 S    
C9    C10   1.425518 A    
C63   H34   1.085359 S    
O8    C4    1.307520 A    
C3    C20   1.482404 S    
C22   C51   1.484414 S    
Zn1   N5    2.046328 S    
C24   C26   1.402073 A    
O4    C2    1.312679 A    
C24   C25   1.392489 A    
C45   H4    1.084792 S    
C31   C65   1.492304 S    
C59   O23   1.221071 D    
O2    C1    1.313257 A    
C53   H18   1.060861 S    
C65   H38   1.082733 S    
C11   N3    1.354250 A    
C33   C44   1.406992 A    
C26   C30   1.406454 A    
C47   H6    1.112953 S    
C51   H16   1.084910 S    
Zn2   O6    1.945565 S    
C34   C35   1.401675 A    
C13   C14   1.407752 A    
N2    C11   1.354095 A    
C23   O14   1.384686 S    
C46   O10   1.221049 D    
O25   C61   1.411436 S    
C21   C32   1.425170 A    
C58   H27   1.109831 S    
Zn2   N6    2.034094 S    
