data_mof_unit_65077.cif
_audit_creation_date              2013-03-05T15:58:27-0500
_audit_creation_method            fapswitch 2.2
_symmetry_space_group_name_H-M    P1
_symmetry_Int_Tables_number       1
_space_group_crystal_system       triclinic
_cell_length_a                    18.670199
_cell_length_b                    18.582756
_cell_length_c                    18.722001
_cell_angle_alpha                 109.1694
_cell_angle_beta                  109.81171
_cell_angle_gamma                 109.068593
_cell_volume                      5022.37091141

loop_
_atom_site_label
_atom_site_type_symbol
_atom_site_description
_atom_site_fract_x
_atom_site_fract_y
_atom_site_fract_z
_atom_type_partial_charge
O1    O     O_R   0.592040 0.539900 0.448690 -0.638617
O2    O     O_R   0.591220 0.643330 0.551330 -0.614932
C1    C     C_R   0.620434 0.620180 0.500299 0.887081
O3    O     O_R   0.408100 0.448290 0.356370 -0.636694
O4    O     O_R   0.407270 0.551710 0.459000 -0.594823
C2    C     C_R   0.379813 0.500513 0.379440 0.953089
Zn1   Zn    Zn3+2 0.500550 0.430940 0.431470 0.998043
Zn2   Zn    Zn3+2 0.499450 0.569060 0.568530 1.099366
O5    O     O_R   0.408780 0.356670 0.448670 -0.631807
O6    O     O_R   0.407960 0.460100 0.551310 -0.572628
O7    O     O_R   0.592730 0.448290 0.541000 -0.626840
O8    O     O_R   0.591900 0.551710 0.643630 -0.595511
C3    C     C_R   0.378063 0.379737 0.498138 0.990646
C4    C     C_R   0.620559 0.499589 0.620928 1.013934
C5    C     C_3   0.331270 0.562829 0.276303 -0.197856
C6    C     C_3   0.257131 0.577300 0.283728 0.296278
H1    H     H_    0.397038 0.614394 0.297648 0.168464
C7    C     C_3   0.190713 0.499988 0.191899 -0.199407
C8    C     C_3   0.263667 0.483360 0.183035 -0.241400
C9    C     C_3   0.246972 0.420874 0.221135 -0.166460
C10   C     C_3   0.175431 0.439438 0.230327 0.309224
C11   C     C_3   0.240419 0.517292 0.323261 -0.217260
C12   C     C_3   0.312691 0.500415 0.313028 -0.095065
H2    H     H_    0.271673 0.469552 0.124702 0.176947
H3    H     H_    0.243312 0.355922 0.197045 0.187305
H4    H     H_    0.231900 0.532227 0.381325 0.230599
C13   C     C_R   0.758180 0.756552 0.581590 -0.194828
H5    H     H_    0.762539 0.759792 0.641917 0.197324
C14   C     C_R   0.822885 0.822807 0.584180 0.318169
C15   C     C_R   0.814203 0.816944 0.504158 -0.126946
C16   C     C_R   0.742735 0.746177 0.424199 -0.205792
H6    H     H_    0.736627 0.741247 0.362868 0.168478
C17   C     C_R   0.679743 0.680278 0.422825 -0.177168
H7    H     H_    0.624440 0.625526 0.360795 0.157431
C18   C     C_R   0.687373 0.686373 0.501468 -0.072129
C19   C     C_R   0.667767 0.472677 0.744684 0.252215
C20   C     C_R   0.733620 0.473827 0.808834 -0.189805
H8    H     H_    0.720405 0.453342 0.853040 0.204550
C21   C     C_R   0.816058 0.500824 0.816106 -0.121784
C22   C     C_R   0.834491 0.528557 0.760454 -0.243606
H9    H     H_    0.899412 0.552059 0.768244 0.175448
C23   C     C_R   0.768885 0.525808 0.694211 0.436353
C24   C     C_R   0.686148 0.498546 0.687236 -0.246494
C25   C     C_R   0.233771 0.317642 0.488386 0.308098
C26   C     C_R   0.171857 0.253631 0.490795 -0.217565
H10   H     H_    0.112575 0.255144 0.484673 0.190977
C27   C     C_R   0.185559 0.186915 0.499869 -0.081425
C28   C     C_R   0.260550 0.182658 0.506516 -0.152160
H11   H     H_    0.270558 0.130290 0.512776 0.169856
C29   C     C_R   0.322153 0.245263 0.503208 -0.132872
H12   H     H_    0.380380 0.241787 0.508281 0.188996
C30   C     C_R   0.309672 0.313144 0.495545 -0.139221
O9    O     O_R   0.951430 0.539890 0.094630 -0.629463
O10   O     O_R   0.054890 0.643310 0.094620 -0.567852
C31   C     C_R   0.001975 0.620150 0.121891 0.966910
O11   O     O_R   0.044450 0.448260 0.096050 -0.586751
O12   O     O_R   0.147910 0.551670 0.096030 -0.601493
C32   C     C_R   0.124302 0.499874 0.124518 0.942180
Zn3   Zn    Zn3+2 0.934780 0.430920 0.003740 1.069264
Zn4   Zn    Zn3+2 0.072940 0.569020 0.003710 1.063655
O13   O     O_R   0.952840 0.356630 0.912840 -0.603571
O14   O     O_R   0.056290 0.460040 0.912820 -0.637783
O15   O     O_R   0.859820 0.448260 0.911420 -0.636288
O16   O     O_R   0.963280 0.551670 0.911400 -0.602340
C33   C     C_R   0.004355 0.379707 0.884103 0.860635
C34   C     C_R   0.882752 0.499993 0.882305 0.952954
O17   O     O_R   0.052810 0.908290 0.461080 -0.622458
O18   O     O_R   0.948580 0.908330 0.356880 -0.623902
C35   C     C_R   0.001258 0.879966 0.380598 0.868235
O19   O     O_R   0.960490 0.908280 0.552000 -0.599630
O20   O     O_R   0.856260 0.908310 0.447800 -0.595378
C36   C     C_R   0.880007 0.881262 0.501677 0.945687
Zn5   Zn    Zn3+2 0.069600 0.999890 0.569480 1.050042
Zn6   Zn    Zn3+2 0.930400 0.999940 0.430340 1.055963
O21   O     O_R   0.051420 0.091500 0.642940 -0.594976
O22   O     O_R   0.947190 0.091540 0.538750 -0.597194
O23   O     O_R   0.143740 0.091510 0.552020 -0.621871
O24   O     O_R   0.039510 0.091550 0.447830 -0.618901
C37   C     C_R   0.997759 0.118842 0.619162 0.948311
C38   C     C_R   0.120039 0.120314 0.499983 0.871096
C39   C     C_R   0.985304 0.751281 0.170985 0.301323
C40   C     C_R   0.987045 0.815608 0.236715 -0.218682
H13   H     H_    0.975417 0.865927 0.226808 0.195870
C41   C     C_R   0.002494 0.814595 0.314694 -0.083462
C42   C     C_R   0.017220 0.750245 0.328710 -0.154474
H14   H     H_    0.028901 0.749338 0.389109 0.167787
C43   C     C_R   0.015000 0.685495 0.263682 -0.156871
H15   H     H_    0.026517 0.635520 0.274591 0.178975
C44   C     C_R   0.999645 0.686207 0.185586 -0.134285
C45   C     C_R   0.079861 0.319698 0.820762 -0.152342
H16   H     H_    0.142553 0.374160 0.875365 0.156467
C46   C     C_R   0.077092 0.254313 0.755927 -0.201801
H17   H     H_    0.138033 0.259189 0.760198 0.169599
C47   C     C_R   0.996294 0.183831 0.685298 -0.128548
C48   C     C_R   0.916793 0.177910 0.679096 0.329517
C49   C     C_R   0.920804 0.243645 0.745692 -0.226464
H18   H     H_    0.860893 0.240342 0.743248 0.185873
C50   C     C_R   0.001794 0.313444 0.815827 -0.062850
N1    N     N_R   0.263981 0.663310 0.319597 0.219625
O25   O     O_R   0.325646 0.723701 0.398838 -0.344868
O26   O     O_R   0.207289 0.679430 0.274521 -0.397765
N2    N     N_R   0.583175 0.444234 0.738229 0.221882
O27   O     O_R   0.576618 0.457283 0.807874 -0.352009
O28   O     O_R   0.512209 0.395606 0.662355 -0.436353
O29   O     O_3   0.787354 0.559180 0.642545 -0.602781
C51   C     C_3   0.800942 0.501949 0.584125 0.104587
H19   H     H_    0.745455 0.433521 0.547025 0.152311
H20   H     H_    0.863057 0.503145 0.619613 0.147353
C52   C     C_3   0.807446 0.531758 0.518888 -0.750113
H21   H     H_    0.862571 0.599698 0.553690 0.263680
H22   H     H_    0.818902 0.487777 0.472856 0.212512
H23   H     H_    0.745729 0.529861 0.481205 0.261321
N3    N     N_R   0.217010 0.383631 0.474851 0.219932
O30   O     O_R   0.171687 0.410865 0.504487 -0.353758
O31   O     O_R   0.235072 0.406692 0.421931 -0.411021
N4    N     N_R   0.966228 0.751334 0.089805 0.214009
O32   O     O_R   0.989756 0.824937 0.088809 -0.341048
O33   O     O_R   0.914998 0.678323 0.015930 -0.398649
N5    N     N_R   0.832573 0.105796 0.608002 0.217533
O34   O     O_R   0.819025 0.025966 0.577549 -0.345937
O35   O     O_R   0.765952 0.118353 0.581726 -0.368395
N6    N     N_R   0.090261 0.371185 0.204086 0.237625
O36   O     O_R   0.062893 0.375456 0.259848 -0.319349
O37   O     O_R   0.043072 0.303600 0.125923 -0.345769
N7    N     N_R   0.894760 0.895379 0.667603 0.217512
O38   O     O_R   0.923075 0.975120 0.681061 -0.345489
O39   O     O_R   0.923874 0.883165 0.733852 -0.345069

loop_
_geom_bond_atom_site_label_1
_geom_bond_atom_site_label_2
_geom_bond_distance
_ccdc_geom_bond_type
C43   H15   1.084273 S    
C14   N7    1.439585 S    
C13   C14   1.388110 A    
C7    C10   1.525129 S    
C8    C9    1.553196 S    
O22   C37   1.279513 A    
C39   C40   1.387739 A    
O9    Zn3   2.014920 S    
O10   Zn4   2.016420 S    
C26   H10   1.084153 S    
Zn1   O7    2.020366 S    
C20   H8    1.083827 S    
Zn6   O22   2.016524 S    
C19   N2    1.439281 S    
C19   C20   1.385479 A    
C33   C50   1.427896 S    
C52   H22   1.110404 S    
C15   C16   1.399069 A    
O7    C4    1.276904 A    
O24   C38   1.279305 A    
C9    H3    1.110228 S    
O18   Zn6   2.015231 S    
C5    C6    1.535164 S    
N4    O32   1.301440 A    
Zn4   O14   2.015048 S    
C7    C8    1.540402 S    
C26   C27   1.395496 A    
C10   N6    1.456719 S    
O5    C3    1.276833 A    
C7    C32   1.437026 S    
C27   C28   1.393819 A    
O11   C32   1.271997 A    
O18   C35   1.280107 A    
C49   C50   1.395384 A    
C29   C30   1.397961 A    
C16   C17   1.378838 A    
O17   Zn5   2.016398 S    
Zn6   O24   2.017648 S    
C45   H16   1.083872 S    
C39   C44   1.409877 A    
C25   C30   1.410344 A    
C5    C12   1.536482 S    
O15   C34   1.279855 A    
C10   C11   1.536695 S    
Zn5   O21   2.015231 S    
C47   C48   1.413089 A    
C27   C38   1.429133 S    
O3    Zn1   2.019001 S    
C17   H7    1.083859 S    
O9    C31   1.276498 A    
Zn3   O13   2.016420 S    
C42   C43   1.379445 A    
C41   C42   1.395139 A    
C37   C47   1.433475 S    
O3    C2    1.273378 A    
C52   H23   1.110317 S    
C21   C22   1.396224 A    
O12   Zn4   2.017782 S    
C48   N5    1.439785 S    
C42   H14   1.083640 S    
O1    C1    1.276546 A    
O16   C34   1.279555 A    
C5    C8    1.554873 S    
C14   C15   1.413961 A    
O20   Zn6   2.013560 S    
C3    C30   1.431862 S    
C45   C46   1.378497 A    
N1    O25   1.300172 A    
C9    C12   1.537598 S    
C1    C18   1.426444 S    
Zn2   O8    2.018999 S    
C49   H18   1.084258 S    
O19   Zn5   2.017732 S    
C46   C47   1.399667 A    
C29   H12   1.083937 S    
N2    O28   1.299548 A    
C28   C29   1.378933 A    
N5    O35   1.301474 A    
Zn2   O6    2.014836 S    
C22   H9    1.083329 S    
N1    O26   1.299976 A    
O8    C4    1.275712 A    
C25   N3    1.437669 S    
C40   C41   1.396805 A    
C43   C44   1.396844 A    
C11   H4    1.109929 S    
N7    O38   1.300531 A    
C21   C34   1.437293 S    
C23   C24   1.402964 A    
N6    O37   1.300421 A    
C13   H5    1.084308 S    
C25   C26   1.387561 A    
N3    O30   1.301408 A    
O23   C38   1.279233 A    
Zn1   O5    2.016156 S    
O10   C31   1.276839 A    
C28   H11   1.083754 S    
C6    C11   1.536193 S    
O14   C33   1.277294 A    
O1    Zn1   2.014835 S    
C16   H6    1.084055 S    
O2    Zn2   2.016158 S    
O6    C3    1.278704 A    
O4    Zn2   2.020367 S    
C15   C36   1.433789 S    
N5    O34   1.300522 A    
C6    N1    1.457810 S    
C5    H1    1.110282 S    
O29   C51   1.411441 S    
Zn3   O15   2.017571 S    
O11   Zn3   2.021779 S    
Zn4   O16   2.021567 S    
C13   C18   1.393938 A    
O2    C1    1.277490 A    
O20   C36   1.281432 A    
C20   C21   1.395610 A    
C35   C41   1.432437 S    
C52   H21   1.110812 S    
O12   C32   1.274544 A    
O4    C2    1.272671 A    
C51   H20   1.112639 S    
C2    C12   1.434287 S    
C39   N4    1.439122 S    
C22   C23   1.388812 A    
C46   H17   1.084145 S    
C17   C18   1.392385 A    
N4    O33   1.300590 A    
C8    H2    1.110219 S    
N2    O27   1.301490 A    
C31   C44   1.428099 S    
C23   O29   1.385437 S    
O13   C33   1.277191 A    
C9    C10   1.533166 S    
C6    C7    1.525179 S    
C40   H13   1.084033 S    
C51   H19   1.115373 S    
C48   C49   1.388889 A    
N7    O39   1.301472 A    
Zn5   O23   2.013438 S    
C11   C12   1.538855 S    
C19   C24   1.409834 A    
O19   C36   1.278436 A    
O17   C35   1.280191 A    
N6    O36   1.300354 A    
O21   C37   1.280192 A    
C45   C50   1.391894 A    
C4    C24   1.428955 S    
N3    O31   1.299962 A    
C51   C52   1.521253 S    
