data_mof_unit_28699.cif
_audit_creation_date              2012-12-10T17:46:26-0500
_audit_creation_method            fapswitch 2.2
_symmetry_space_group_name_H-M    P1
_symmetry_Int_Tables_number       1
_space_group_crystal_system       triclinic
_cell_length_a                    20.795824
_cell_length_b                    21.19805
_cell_length_c                    14.731431
_cell_angle_alpha                 89.976409
_cell_angle_beta                  127.790213
_cell_angle_gamma                 90.005917
_cell_volume                      5132.0014361

loop_
_atom_site_label
_atom_site_type_symbol
_atom_type_description
_atom_site_fract_x
_atom_site_fract_y
_atom_site_fract_z
_atom_type_partial_charge
C1    C     C_R   0.602179 0.913222 0.630738 0.803609
C2    C     C_R   0.707662 0.199306 0.118810 -0.221319
C3    C     C_R   0.700535 0.758224 0.939390 0.068638
C4    C     C_R   0.244166 0.709310 0.990214 0.067014
C5    C     C_R   0.797916 0.259503 0.058667 0.067464
C6    C     C_R   0.754390 0.708092 0.007985 0.062924
C7    C     C_R   0.200487 0.258153 0.939287 0.068658
C8    C     C_R   0.350140 0.783294 0.035423 -0.218741
C9    C     C_R   0.702078 0.178409 0.024975 -0.215720
C10   C     C_R   0.647987 0.781750 0.962208 -0.213380
C11   C     C_R   0.296641 0.177264 0.973352 -0.214532
C12   C     C_R   0.850148 0.283291 0.035427 -0.218733
C13   C     C_R   0.652811 0.760292 0.055160 -0.213224
C14   C     C_R   0.202035 0.678436 0.024934 -0.215723
C15   C     C_R   0.147852 0.281605 0.961993 -0.213392
C16   C     C_R   0.796532 0.677231 0.973290 -0.214551
C17   C     C_2   0.230796 0.007160 0.594287 0.319790
C18   C     C_2   0.769231 0.998054 0.405407 0.322388
C19   C     C_2   0.730798 0.507187 0.594288 0.319769
C20   C     C_2   0.269229 0.498047 0.405403 0.322397
C21   C     C_R   0.291183 0.198330 0.879647 -0.192311
C22   C     C_R   0.845383 0.261815 0.942562 -0.225833
C23   C     C_R   0.207621 0.699330 0.118772 -0.221322
C24   C     C_R   0.152651 0.260127 0.054916 -0.213263
C25   C     C_R   0.791044 0.698272 0.879549 -0.192295
C26   C     C_R   0.320552 0.002031 0.663354 -0.105924
C27   C     C_R   0.679328 0.001156 0.336371 -0.106130
C28   C     C_R   0.820552 0.502046 0.663354 -0.105929
C29   C     C_R   0.396100 0.085369 0.367127 0.806659
C30   C     C_R   0.179327 0.501156 0.336369 -0.106116
C31   C     C_R   0.352019 0.000546 0.602359 -0.019429
C32   C     C_R   0.647948 0.000929 0.397502 -0.019151
C33   C     C_R   0.852020 0.500554 0.602359 -0.019440
C34   C     C_R   0.147948 0.500927 0.397501 -0.019153
C35   C     C_R   0.487260 0.001229 0.774885 0.001396
C36   C     C_R   0.512669 0.999043 0.225128 0.000932
C37   C     C_R   0.987260 0.501228 0.774885 0.001386
C38   C     C_R   0.012669 0.499045 0.225128 0.000957
C39   C     C_R   0.460509 0.002006 0.843852 -0.050682
C40   C     C_R   0.397721 0.913319 0.369156 0.802012
C41   C     C_R   0.539257 0.000010 0.155958 -0.050307
C42   C     C_R   0.960509 0.502013 0.843851 -0.050675
C43   C     C_R   0.039256 0.500016 0.155957 -0.050308
C44   C     C_R   0.375176 0.000266 0.785597 0.127089
C45   C     C_R   0.624559 0.002937 0.214106 0.128472
C46   C     C_R   0.875176 0.500278 0.785597 0.127096
C47   C     C_R   0.124558 0.502943 0.214104 0.128478
C48   C     C_R   0.515290 0.003443 0.967809 0.090883
C49   C     C_R   0.484358 0.999208 0.031941 0.089143
C50   C     C_R   0.015289 0.503452 0.967808 0.090883
C51   C     C_R   0.603796 0.085449 0.632719 0.806318
C52   C     C_R   0.984357 0.499216 0.031941 0.089163
C53   C     C_R   0.399570 0.993537 0.969846 -0.272718
C54   C     C_R   0.599904 0.010265 0.029738 -0.267060
C55   C     C_R   0.899569 0.493547 0.969845 -0.272720
C56   C     C_R   0.099902 0.510281 0.029737 -0.267026
C57   C     C_R   0.346724 0.994352 0.850490 -0.151684
C58   C     C_R   0.652771 0.010099 0.149087 -0.151414
C59   C     C_R   0.846723 0.494365 0.850489 -0.151735
C60   C     C_R   0.152769 0.510113 0.149086 -0.151373
C61   C     C_R   0.666755 0.131282 0.711937 -0.053297
C62   C     C_R   0.102178 0.413222 0.630736 0.803616
C63   C     C_R   0.344448 0.859923 0.301631 -0.053108
C64   C     C_R   0.332738 0.130854 0.287358 -0.056588
C65   C     C_R   0.655078 0.859526 0.697829 -0.057157
C66   C     C_R   0.166749 0.631287 0.711931 -0.053291
C67   C     C_R   0.844451 0.359921 0.301632 -0.053109
C68   C     C_R   0.832765 0.630882 0.287399 -0.056589
C69   C     C_R   0.155082 0.359526 0.697827 -0.057173
C70   C     C_R   0.780236 0.198629 0.770954 -0.193358
C71   C     C_R   0.255806 0.774661 0.271060 -0.191998
C72   C     C_R   0.218522 0.197539 0.227428 -0.181016
C73   C     C_R   0.896104 0.585373 0.367133 0.806654
C74   C     C_R   0.743397 0.774078 0.727924 -0.176417
C75   C     C_R   0.280227 0.698637 0.770945 -0.193350
C76   C     C_R   0.755828 0.274650 0.271078 -0.191996
C77   C     C_R   0.718657 0.697668 0.227622 -0.181012
C78   C     C_R   0.243518 0.274144 0.728026 -0.176433
C79   C     C_R   0.720636 0.155560 0.693666 -0.190856
C80   C     C_R   0.301479 0.827863 0.332402 -0.188914
C81   C     C_R   0.278647 0.154934 0.305366 -0.186105
C82   C     C_R   0.698092 0.827545 0.667065 -0.186033
C83   C     C_R   0.220629 0.655567 0.693656 -0.190859
C84   C     C_R   0.897722 0.413319 0.369157 0.802012
C85   C     C_R   0.801492 0.327858 0.332412 -0.188924
C86   C     C_R   0.778739 0.655019 0.305492 -0.186105
C87   C     C_R   0.198176 0.327597 0.667144 -0.186007
C88   C     C_R   0.674025 0.149492 0.808962 -0.251361
C89   C     C_R   0.340946 0.838581 0.209054 -0.246379
C90   C     C_R   0.325134 0.148771 0.189908 -0.250045
C91   C     C_R   0.658073 0.837764 0.789815 -0.244876
C92   C     C_R   0.174016 0.649497 0.808955 -0.251337
C93   C     C_R   0.840945 0.338579 0.209051 -0.246373
C94   C     C_R   0.825131 0.648780 0.189922 -0.250051
C95   C     C_R   0.103794 0.585450 0.632717 0.806320
C96   C     C_R   0.158020 0.337719 0.789740 -0.244900
C97   C     C_R   0.735321 0.191120 0.890201 0.091310
C98   C     C_R   0.298574 0.783463 0.149360 0.091922
C99   C     C_R   0.263399 0.189991 0.108139 0.091627
C100  C     C_R   0.700136 0.782429 0.849049 0.089779
C101  C     C_R   0.235305 0.691129 0.890188 0.091306
C102  C     C_R   0.798584 0.283457 0.149366 0.091915
C103  C     C_R   0.763427 0.690041 0.108212 0.091637
C104  C     C_R   0.200125 0.282396 0.848999 0.089790
C105  C     C_R   0.787312 0.217179 0.868098 0.166526
C106  C     C_R   0.345373 0.761821 0.942555 -0.225814
C107  C     C_R   0.253830 0.752340 0.179737 0.164307
C108  C     C_R   0.211180 0.215865 0.129960 0.164444
C109  C     C_R   0.745012 0.751436 0.818806 0.157112
C110  C     C_R   0.287301 0.717188 0.868087 0.166525
C111  C     C_R   0.753852 0.252328 0.179755 0.164302
C112  C     C_R   0.711287 0.715979 0.130130 0.164431
C113  C     C_R   0.245092 0.251464 0.818853 0.157133
C114  C     C_R   0.744189 0.209297 0.990234 0.067012
C115  C     C_R   0.297903 0.759510 0.058658 0.067464
C116  C     C_R   0.254401 0.208063 0.007947 0.062940
Cu1   Cu    Cu3+1 0.526640 0.000000 0.436960 0.938287
Cu2   Cu    Cu3+1 0.473360 0.000000 0.563040 0.938353
Cu3   Cu    Cu3+1 0.026640 0.500000 0.436960 0.938296
Cu4   Cu    Cu3+1 0.973360 0.500000 0.563040 0.938344
H1    H     H_    0.386443 0.781269 0.927709 0.144240
H2    H     H_    0.627635 0.017095 0.988223 0.133100
H3    H     H_    0.871514 0.487670 0.011078 0.136262
H4    H     H_    0.127630 0.517120 0.988219 0.133107
H5    H     H_    0.370770 0.866570 0.183760 0.147974
H6    H     H_    0.629489 0.131935 0.817667 0.151924
H7    H     H_    0.628179 0.865614 0.815138 0.150568
H8    H     H_    0.369745 0.131345 0.181255 0.151974
H9    H     H_    0.870764 0.366566 0.183753 0.147973
H10   H     H_    0.129485 0.631932 0.817669 0.151908
H11   H     H_    0.128060 0.365530 0.815004 0.150606
H12   H     H_    0.674558 0.174277 0.142703 0.147928
H13   H     H_    0.869699 0.631313 0.181204 0.151959
H14   H     H_    0.303606 0.843565 0.404152 0.154224
H15   H     H_    0.716303 0.141757 0.619306 0.152259
H16   H     H_    0.696304 0.843526 0.595707 0.160492
H17   H     H_    0.283190 0.141313 0.379989 0.158558
H18   H     H_    0.803623 0.343560 0.404167 0.154225
H19   H     H_    0.216298 0.641765 0.619295 0.152260
H20   H     H_    0.196433 0.343613 0.595841 0.160493
H21   H     H_    0.783310 0.641416 0.380141 0.158569
H22   H     H_    0.320473 0.717796 0.754388 0.134535
H23   H     H_    0.611554 0.779572 0.069771 0.145895
H24   H     H_    0.722444 0.250687 0.295473 0.134222
H25   H     H_    0.678304 0.716727 0.244043 0.139891
H26   H     H_    0.277049 0.250320 0.703758 0.142964
H27   H     H_    0.820480 0.217788 0.754397 0.134529
H28   H     H_    0.222412 0.750702 0.295445 0.134222
H29   H     H_    0.178111 0.216549 0.243776 0.139895
H30   H     H_    0.776859 0.750209 0.703584 0.142984
H31   H     H_    0.397352 0.817324 0.089551 0.146235
H32   H     H_    0.666104 0.136534 0.983493 0.140643
H33   H     H_    0.600535 0.815573 0.907672 0.144351
H34   H     H_    0.324411 0.173418 0.855861 0.159055
H35   H     H_    0.332621 0.135349 0.014880 0.145541
H36   H     H_    0.897356 0.317327 0.089552 0.146236
H37   H     H_    0.166035 0.636576 0.983428 0.140641
H38   H     H_    0.100350 0.315379 0.907387 0.144346
H39   H     H_    0.832447 0.635284 0.014767 0.145544
H40   H     H_    0.282897 0.988119 0.810075 0.199159
H41   H     H_    0.716370 0.017610 0.189333 0.198396
H42   H     H_    0.782897 0.488133 0.810072 0.199152
H43   H     H_    0.216367 0.517631 0.189332 0.198382
H44   H     H_    0.449245 0.998707 0.188184 0.124234
H45   H     H_    0.886449 0.281264 0.927714 0.144229
H46   H     H_    0.550751 0.000395 0.812118 0.125248
H47   H     H_    0.949244 0.498708 0.188183 0.124222
H48   H     H_    0.050751 0.500386 0.812120 0.125265
H49   H     H_    0.688676 0.000468 0.490531 0.122576
H50   H     H_    0.311370 0.001180 0.509334 0.122374
H51   H     H_    0.188676 0.500463 0.490530 0.122565
H52   H     H_    0.811370 0.501191 0.509334 0.122387
H53   H     H_    0.192105 0.986716 0.508839 0.074033
H54   H     H_    0.807207 0.018691 0.490739 0.071087
H55   H     H_    0.692101 0.486747 0.508834 0.074038
H56   H     H_    0.174500 0.674311 0.142648 0.147929
H57   H     H_    0.307211 0.518675 0.490745 0.071076
H58   H     H_    0.111329 0.279353 0.069445 0.145865
H59   H     H_    0.824196 0.673311 0.855684 0.159125
H60   H     H_    0.371515 0.987659 0.011079 0.136275
N1    N     N_R   0.433280 0.000000 0.657760 -0.173225
N2    N     N_R   0.566720 0.000000 0.342240 -0.173035
N3    N     N_R   0.933280 0.500000 0.657760 -0.173230
N4    N     N_R   0.066720 0.500000 0.342240 -0.173033
O1    O     O_R   0.600040 0.935040 0.546740 -0.583861
O2    O     O_R   0.444990 0.064930 0.346780 -0.587054
O3    O     O_R   0.444990 0.935070 0.346780 -0.587550
O4    O     O_R   0.555010 0.064930 0.653220 -0.586264
O5    O     O_R   0.055010 0.435070 0.653220 -0.588033
O6    O     O_R   0.944990 0.564930 0.346780 -0.587050
O7    O     O_R   0.944990 0.435070 0.346780 -0.587543
O8    O     O_R   0.055010 0.564930 0.653220 -0.586263
O9    O     O_2   0.199216 0.037530 0.627889 -0.536077
O10   O     O_2   0.801863 0.969141 0.371945 -0.530334
O11   O     O_2   0.699226 0.537565 0.627898 -0.536112
O12   O     O_R   0.399960 0.064960 0.453260 -0.583329
O13   O     O_2   0.301855 0.469135 0.371930 -0.530324
O14   O     O_R   0.399960 0.935040 0.453260 -0.586737
O15   O     O_R   0.600040 0.064960 0.546740 -0.585840
O16   O     O_R   0.100040 0.435040 0.546740 -0.583861
O17   O     O_R   0.899960 0.564960 0.453260 -0.583335
O18   O     O_R   0.899960 0.435040 0.453260 -0.586738
O19   O     O_R   0.100040 0.564960 0.546740 -0.585840
O20   O     O_R   0.555010 0.935070 0.653220 -0.588021

loop_
_geom_bond_atom_site_label_1
_geom_bond_atom_site_label_2
_ccdc_geom_bond_type
C78   C87   A    
C7    C116  A    
C32   H49   S    
C9    H32   S    
C19   O11   D    
C55   C59   A    
C5    C114  A    
C18   O10   D    
Cu4   O18   S    
C41   C45   A    
C4    C115  A    
C17   O9    D    
C51   C61   S    
Cu3   O6    S    
C64   C90   A    
C87   H20   S    
C3    C6    A    
C35   H46   S    
C74   C109  A    
C83   H19   S    
C69   C87   A    
C65   C82   A    
C26   C44   A    
C40   O3    A    
C20   C30   S    
C81   H17   S    
C99   C108  A    
C28   C46   A    
C40   C63   S    
C91   H7    S    
C17   C26   S    
C56   H4    S    
C32   N2    A    
C75   H22   S    
C74   C82   A    
C13   C112  A    
C71   C107  A    
Cu1   O2    S    
Cu4   O8    S    
C54   C58   A    
C35   C39   A    
C46   C59   A    
C43   C52   A    
C95   O19   A    
C37   N3    A    
C12   C22   A    
C60   H43   S    
C38   N4    A    
C29   O2    A    
C84   O7    A    
C42   C46   A    
C37   C42   A    
C33   H52   S    
C88   H6    S    
C51   O4    A    
C8    C115  A    
C66   C83   A    
C22   H45   S    
C3    C100  A    
C72   C108  A    
C33   N3    A    
C50   C52   A    
C21   H34   S    
C34   N4    A    
C24   C108  A    
C91   C100  A    
C62   O5    A    
Cu2   O12   S    
C72   C81   A    
Cu1   O15   S    
C52   C55   A    
C11   H35   S    
C97   C105  A    
C27   C45   A    
C7    C15   A    
C71   H28   S    
C54   H2    S    
C29   C64   S    
C100  C109  A    
C31   N1    A    
C16   H39   S    
C82   H16   S    
Cu4   O17   S    
C102  C111  A    
C12   H36   S    
C93   H9    S    
C10   H33   S    
C41   C49   A    
C71   C80   A    
C67   C84   S    
C17   H53   S    
C37   H48   S    
C19   H55   S    
C63   C80   A    
C38   H47   S    
C2    C111  A    
C55   H3    S    
C45   C58   A    
C67   C85   A    
C30   C34   A    
C14   H37   S    
Cu3   O16   S    
C30   C47   A    
C8    H31   S    
Cu3   O19   S    
C15   H38   S    
C21   C113  A    
Cu1   O3    S    
C99   C116  A    
Cu2   O4    S    
Cu1   N2    S    
C66   C92   A    
C23   H56   S    
C101  C110  A    
C73   O17   A    
C10   C13   A    
C68   C94   A    
C98   C107  A    
C56   C60   A    
C62   C69   S    
C103  C112  A    
C14   C23   A    
C48   C54   A    
C77   C112  A    
C92   H10   S    
C11   C116  A    
C61   C88   A    
C80   H14   S    
C2    H12   S    
C44   C57   A    
C23   C107  A    
C4    C101  A    
C63   C89   A    
C69   C96   A    
C6    C103  A    
C19   C28   S    
C20   H57   S    
C51   O15   A    
C95   O8    A    
C42   C50   A    
C96   H11   S    
C92   C101  A    
C68   C86   A    
C18   H54   S    
C15   C24   A    
C57   H40   S    
C28   C33   A    
C1    O1    A    
C7    C104  A    
C96   C104  A    
C24   H58   S    
C1    C65   S    
C78   C113  A    
C36   N2    A    
C9    C114  A    
C1    O20   A    
Cu2   O14   S    
C53   H60   S    
C76   H24   S    
C90   C99   A    
C47   C60   A    
C20   O13   D    
C66   C95   S    
C36   H44   S    
C106  C110  A    
Cu2   N1    S    
C84   O18   A    
C16   C25   A    
C65   C91   A    
C5    C102  A    
C48   C49   A    
C75   C110  A    
C53   C57   A    
C27   C32   A    
Cu2   O20   S    
C18   C27   S    
C73   O6    A    
Cu3   O7    S    
C70   C105  A    
C8    C106  A    
C93   C102  A    
C77   C86   A    
Cu3   Cu4   S    
C25   H59   S    
C59   H42   S    
C39   C44   A    
C31   H50   S    
C25   C109  A    
C35   N1    A    
C29   O12   A    
C79   H15   S    
C94   C103  A    
C89   C98   A    
C89   H5    S    
C68   C73   S    
C88   C97   A    
C62   O16   A    
C38   C43   A    
C3    C10   A    
Cu1   O1    S    
Cu1   Cu2   S    
C58   H41   S    
C75   C83   A    
C98   C115  A    
C70   C79   A    
C77   H25   S    
C40   O14   A    
C94   H13   S    
C61   C79   A    
C76   C111  A    
C49   C53   A    
C85   H18   S    
C106  H1    S    
C11   C21   A    
Cu3   N4    S    
C13   H23   S    
C22   C105  A    
C4    C14   A    
Cu4   N3    S    
C50   C56   A    
C64   C81   A    
C5    C12   A    
C78   H26   S    
C6    C16   A    
C104  C113  A    
C26   C31   A    
C72   H29   S    
C36   C41   A    
C67   C93   A    
C90   H8    S    
C74   H30   S    
C70   H27   S    
C97   C114  A    
Cu4   O5    S    
C2    C9    A    
C43   C47   A    
C76   C85   A    
C34   H51   S    
C86   H21   S    
C39   C48   A    
