data_mof_unit_16446.cif
_audit_creation_date              2013-03-05T15:55:20-0500
_audit_creation_method            fapswitch 2.2
_symmetry_space_group_name_H-M    P1
_symmetry_Int_Tables_number       1
_space_group_crystal_system       triclinic
_cell_length_a                    14.952454
_cell_length_b                    14.739464
_cell_length_c                    33.774405
_cell_angle_alpha                 96.166825
_cell_angle_beta                  96.178104
_cell_angle_gamma                 61.089957
_cell_volume                      6464.97926751

loop_
_atom_site_label
_atom_site_type_symbol
_atom_site_description
_atom_site_fract_x
_atom_site_fract_y
_atom_site_fract_z
_atom_type_partial_charge
O1    O     O_R   0.679450 0.499830 0.463150 -0.492786
O2    O     O_R   0.480650 0.664000 0.464630 -0.524356
C1    C     C_R   0.393458 0.694793 0.445070 0.848422
O3    O     O_R   0.323930 0.675950 0.455370 -0.502143
O4    O     O_R   0.354700 0.475360 0.451930 -0.505080
C2    C     C_R   0.406810 0.387165 0.433605 0.877107
O5    O     O_R   0.494470 0.320860 0.448390 -0.482465
O6    O     O_R   0.662580 0.357570 0.460050 -0.508117
C3    C     C_R   0.692350 0.414524 0.444889 0.894060
O7    O     O_R   0.680900 0.502040 0.551870 -0.494220
O8    O     O_R   0.481990 0.666040 0.546870 -0.521427
C4    C     C_R   0.397870 0.692217 0.562887 0.847594
O9    O     O_R   0.325370 0.678160 0.544080 -0.499771
O10   O     O_R   0.356040 0.477400 0.534170 -0.509116
C5    C     C_R   0.406598 0.388400 0.548751 0.885325
O11   O     O_R   0.495910 0.323070 0.537100 -0.505004
O12   O     O_R   0.663920 0.359620 0.542290 -0.504217
C6    C     C_R   0.699224 0.415992 0.563473 0.901968
Cr1   Cr    Cr6+3 0.576280 0.580550 0.506370 1.127493
Cr2   Cr    Cr6+3 0.346780 0.572400 0.496520 1.141649
Cr3   Cr    Cr6+3 0.576960 0.347070 0.497150 1.152739
O13   O     O_3   0.500010 0.500010 0.500010 -0.417479
H1    H     H_    0.440095 0.167961 0.185230 0.211576
H2    H     H_    0.472428 0.205347 0.308717 0.226716
C7    C     C_R   0.373546 0.369890 0.391082 -0.345301
C8    C     C_R   0.284829 0.450819 0.370651 0.206038
C9    C     C_R   0.272848 0.442959 0.328642 0.306091
C10   C     C_R   0.341831 0.354236 0.307031 -0.155267
C11   C     C_R   0.423072 0.274019 0.326442 -0.201469
C12   C     C_R   0.438528 0.277176 0.368060 0.341079
C13   C     C_R   0.376264 0.224657 0.167594 -0.192018
C14   C     C_R   0.376734 0.213436 0.126223 0.283959
C15   C     C_R   0.222218 0.378995 0.121555 0.213826
C16   C     C_R   0.220084 0.389714 0.163505 0.327743
C17   C     C_R   0.298653 0.311454 0.186373 -0.142394
C18   C     C_1   0.311408 0.325898 0.229044 0.160200
C19   C     C_1   0.325128 0.339178 0.264561 0.166663
C20   C     C_R   0.293324 0.286045 0.102561 -0.279061
N1    N     N_R   0.707625 0.412948 0.210421 -0.232613
N2    N     N_R   0.685007 0.430905 0.248339 -0.224733
C21   C     C_R   0.719022 0.395633 0.401747 -0.376912
C22   C     C_R   0.728088 0.474158 0.383173 0.273361
C23   C     C_R   0.726948 0.470157 0.341174 0.177844
C24   C     C_R   0.729130 0.384586 0.318082 -0.286658
C25   C     C_R   0.723929 0.303784 0.335228 0.253231
C26   C     C_R   0.720811 0.308584 0.377362 0.216523
N3    N     N_R   0.848201 0.296717 0.266028 -0.181307
N4    N     N_R   0.870027 0.277799 0.228110 -0.203521
C27   C     C_R   0.799362 0.333788 0.199628 0.601545
C28   C     C_R   0.754737 0.372018 0.276582 0.687323
C29   C     C_R   0.833796 0.397906 0.143363 -0.181201
C30   C     C_R   0.884814 0.382533 0.109222 0.340874
C31   C     C_R   0.899593 0.206816 0.099492 0.193663
C32   C     C_R   0.863483 0.220663 0.137577 0.272265
C33   C     C_R   0.828374 0.317514 0.158766 -0.177346
C34   C     C_R   0.915390 0.285471 0.085011 -0.312166
H3    H     H_    0.805296 0.471658 0.160950 0.223597
N5    N     N_R   0.313333 0.782801 0.217989 -0.185790
N6    N     N_R   0.326986 0.759686 0.255974 -0.184243
C35   C     C_R   0.378699 0.738153 0.406049 -0.258768
C36   C     C_R   0.296880 0.743418 0.380514 -0.208072
C37   C     C_R   0.277419 0.779573 0.342499 0.336866
C38   C     C_R   0.351394 0.798353 0.327241 -0.247672
C39   C     C_R   0.434865 0.794274 0.352940 0.233185
C40   C     C_R   0.446264 0.768140 0.392791 0.245283
N7    N     N_R   0.348915 0.904767 0.275430 -0.205193
N8    N     N_R   0.336840 0.927108 0.237303 -0.220618
C41   C     C_R   0.316418 0.867776 0.208322 0.624458
C42   C     C_R   0.342100 0.821735 0.285194 0.615620
C43   C     C_R   0.219387 0.889049 0.142323 0.218784
C44   C     C_R   0.214115 0.895053 0.101001 0.240854
C45   C     C_R   0.369676 0.911153 0.107353 0.214110
C46   C     C_R   0.377851 0.900428 0.148501 0.220382
C47   C     C_R   0.301507 0.891667 0.166201 -0.242107
C48   C     C_R   0.283273 0.917543 0.083926 -0.302937
H4    H     H_    0.243886 0.722676 0.390310 0.262764
N9    N     N_R   0.287231 0.415145 0.770147 -0.181187
N10   N     N_R   0.301370 0.423534 0.732681 -0.202966
C49   C     C_R   0.370879 0.367938 0.584758 -0.279855
C50   C     C_R   0.274111 0.434576 0.601171 0.310428
C51   C     C_R   0.262635 0.422248 0.641418 0.197009
C52   C     C_R   0.347237 0.349293 0.664643 -0.254271
C53   C     C_R   0.438082 0.278359 0.646363 0.322655
C54   C     C_R   0.443326 0.283531 0.606130 -0.173734
N11   N     N_R   0.354280 0.245999 0.718335 -0.185357
N12   N     N_R   0.339936 0.237636 0.755818 -0.203688
C55   C     C_R   0.306110 0.322137 0.782156 0.615316
C56   C     C_R   0.335620 0.339027 0.706245 0.631266
C57   C     C_R   0.213225 0.378301 0.844748 0.272197
C58   C     C_R   0.207597 0.365296 0.884442 -0.203130
C59   C     C_R   0.383628 0.220655 0.886003 0.216845
C60   C     C_R   0.388868 0.231296 0.845227 0.271024
C61   C     C_R   0.302282 0.310224 0.824659 -0.227572
C62   C     C_R   0.290109 0.286206 0.905507 -0.221310
H5    H     H_    0.507392 0.221991 0.591352 0.264448
H6    H     H_    0.135757 0.415136 0.898369 0.213154
C63   C     C_R   0.745467 0.393475 0.605642 -0.380862
C64   C     C_R   0.767724 0.466638 0.631381 0.263248
C65   C     C_R   0.780552 0.455558 0.673457 0.202117
C66   C     C_R   0.791641 0.365767 0.688661 -0.229228
C67   C     C_R   0.784164 0.288467 0.663161 0.280605
C68   C     C_R   0.756047 0.304377 0.622540 0.234062
C69   C     C_R   0.871012 0.226748 0.824828 0.283788
C70   C     C_R   0.890355 0.218981 0.866887 0.201174
C71   C     C_R   0.885933 0.388901 0.873815 0.220530
C72   C     C_R   0.857828 0.401336 0.833333 0.235063
C73   C     C_R   0.857125 0.318738 0.808314 -0.227059
C74   C     C_1   0.834669 0.334577 0.766119 0.220429
C75   C     C_1   0.814788 0.349794 0.730942 0.227025
C76   C     C_R   0.909432 0.293505 0.890546 -0.321780
H7    H     H_    0.421871 0.932668 0.895816 0.231720
C77   C     C_R   0.390943 0.728098 0.606105 -0.261165
C78   C     C_R   0.312783 0.732672 0.627976 0.235646
C79   C     C_R   0.311202 0.756606 0.668860 -0.145641
C80   C     C_R   0.384796 0.778441 0.689415 -0.115683
C81   C     C_R   0.464221 0.773243 0.669155 0.272439
C82   C     C_R   0.467380 0.749331 0.627504 0.175300
C83   C     C_R   0.399632 0.883667 0.835233 0.346396
C84   C     C_R   0.372855 0.913598 0.874767 -0.247406
C85   C     C_R   0.221788 0.892176 0.860462 0.284166
C86   C     C_R   0.242791 0.866625 0.819463 0.242131
C87   C     C_R   0.332256 0.864257 0.807044 -0.216417
C88   C     C_1   0.356654 0.837075 0.765747 0.227569
C89   C     C_1   0.372776 0.811251 0.731064 0.181488
C90   C     C_R   0.284810 0.919728 0.887766 -0.276547
H8    H     H_    0.249023 0.761834 0.684400 0.240096
O14   O     O_R   0.170070 0.978950 0.027680 -0.505214
O15   O     O_R   0.001760 0.175230 0.026640 -0.514616
C91   C     C_R   0.966426 0.264473 0.046613 0.861266
O16   O     O_R   0.984760 0.333570 0.037150 -0.498427
O17   O     O_R   0.183410 0.309240 0.041890 -0.508325
C92   C     C_R   0.273106 0.258514 0.060079 0.866478
O18   O     O_R   0.340240 0.172500 0.045430 -0.507944
O19   O     O_R   0.309670 0.000990 0.032050 -0.517218
C93   C     C_R   0.256596 0.962463 0.044382 0.870337
O20   O     O_R   0.168330 0.982130 0.939200 -0.489190
O21   O     O_R   0.000140 0.178170 0.944610 -0.513648
C94   C     C_R   0.962433 0.269066 0.930887 0.870257
O22   O     O_R   0.983010 0.336750 0.948660 -0.519697
O23   O     O_R   0.181800 0.312190 0.959860 -0.534470
C95   C     C_R   0.270617 0.261161 0.944315 0.839039
O24   O     O_R   0.338500 0.175680 0.956950 -0.515728
O25   O     O_R   0.308050 0.003930 0.950020 -0.541423
C96   C     C_R   0.253878 0.967739 0.928523 0.855880
Cr4   Cr    Cr6+3 0.087320 0.083240 0.984860 1.121671
Cr5   Cr    Cr6+3 0.087720 0.316210 0.996740 1.094876
Cr6   Cr    Cr6+3 0.317350 0.090340 0.995890 1.074350
O26   O     O_3   0.164130 0.163270 0.992500 -0.397672
Br1   Br    Br    0.505143 0.113320 0.105362 -0.261836
N13   N     N_R   0.739059 0.216292 0.395535 0.195662
O27   O     O_R   0.670728 0.214561 0.415258 -0.287160
O28   O     O_R   0.817392 0.128011 0.385961 -0.237522
N14   N     N_R   0.901334 0.468286 0.100884 0.176853
O29   O     O_R   0.844282 0.560952 0.116654 -0.271874
O30   O     O_R   0.988041 0.452578 0.089643 -0.300195
Br2   Br    Br    0.734814 0.574914 0.313085 -0.207766
N15   N     N_R   0.721712 0.217506 0.309766 0.175826
O31   O     O_R   0.733143 0.206483 0.271534 -0.317183
O32   O     O_R   0.695262 0.155381 0.323344 -0.245366
Br3   Br    Br    0.915839 0.083331 0.067611 -0.262979
Br4   Br    Br    0.856965 0.109248 0.160436 -0.200751
Br5   Br    Br    0.544172 0.788173 0.429897 -0.193346
Br6   Br    Br    0.130933 0.844513 0.068264 -0.216846
N16   N     N_R   0.177328 0.806912 0.322931 0.195354
O33   O     O_R   0.100443 0.832879 0.344826 -0.244758
O34   O     O_R   0.160519 0.802883 0.284402 -0.262447
Br7   Br    Br    0.532882 0.827198 0.334344 -0.179311
Br8   Br    Br    0.113826 0.876047 0.165789 -0.178457
Br9   Br    Br    0.488402 0.890652 0.082161 -0.255157
Br10  Br    Br    0.499521 0.887105 0.179676 -0.266042
N17   N     N_R   0.187227 0.505383 0.576488 0.181790
O35   O     O_R   0.105416 0.580067 0.591701 -0.233706
O36   O     O_R   0.182836 0.487116 0.537716 -0.304086
Br11  Br    Br    0.129699 0.492178 0.664535 -0.191093
N18   N     N_R   0.525680 0.200583 0.668333 0.187863
O37   O     O_R   0.587492 0.113135 0.649880 -0.241401
O38   O     O_R   0.551483 0.221275 0.704750 -0.279317
Br12  Br    Br    0.092763 0.487158 0.818451 -0.258605
Br13  Br    Br    0.508644 0.120237 0.914006 -0.228532
N19   N     N_R   0.483589 0.167699 0.825427 0.185686
O39   O     O_R   0.516107 0.210580 0.802838 -0.285717
O40   O     O_R   0.536192 0.066887 0.828573 -0.228200
Br14  Br    Br    0.863182 0.126456 0.894643 -0.162562
N20   N     N_R   0.860307 0.145558 0.799573 0.208760
O41   O     O_R   0.879713 0.058670 0.813418 -0.201514
O42   O     O_R   0.820250 0.161229 0.763285 -0.270407
N21   N     N_R   0.817351 0.188712 0.678060 0.214499
O43   O     O_R   0.765833 0.138061 0.669716 -0.195753
O44   O     O_R   0.907289 0.142669 0.696490 -0.294688
N22   N     N_R   0.737772 0.228832 0.598439 0.174025
O45   O     O_R   0.810668 0.133898 0.592851 -0.252258
O46   O     O_R   0.643755 0.248702 0.590873 -0.361093
N23   N     N_R   0.780940 0.548068 0.615760 0.202427
O47   O     O_R   0.813940 0.537092 0.580565 -0.268454
O48   O     O_R   0.783360 0.623026 0.639070 -0.233668
Br15  Br    Br    0.815930 0.535605 0.812167 -0.203564
Br16  Br    Br    0.883489 0.509906 0.905134 -0.269713
N24   N     N_R   0.516278 0.182363 0.385420 0.212937
O49   O     O_R   0.587376 0.111635 0.363751 -0.236635
O50   O     O_R   0.504439 0.154571 0.419043 -0.284621
Br17  Br    Br    0.782403 0.561084 0.712489 -0.192287
N25   N     N_R   0.497163 0.870715 0.825246 0.183803
O51   O     O_R   0.556887 0.886085 0.852992 -0.260018
O52   O     O_R   0.536023 0.825440 0.791467 -0.293883
Br18  Br    Br    0.564618 0.805322 0.698276 -0.142533
Br19  Br    Br    0.568537 0.762150 0.600808 -0.210606
Br20  Br    Br    0.195788 0.721235 0.605060 -0.242811
N26   N     N_R   0.175667 0.840329 0.791450 0.180052
O53   O     O_R   0.104634 0.824967 0.803598 -0.213295
O54   O     O_R   0.187517 0.825128 0.753360 -0.354133
N27   N     N_R   0.133181 0.895148 0.873930 0.195426
O55   O     O_R   0.043636 0.963966 0.860986 -0.271046
O56   O     O_R   0.140971 0.832698 0.900148 -0.284331
N28   N     N_R   0.199036 0.532166 0.391701 0.181389
O57   O     O_R   0.208806 0.603193 0.414823 -0.322358
O58   O     O_R   0.105997 0.550410 0.380243 -0.235172
N29   N     N_R   0.141572 0.482019 0.182499 0.182559
O59   O     O_R   0.047348 0.523671 0.167265 -0.243122
O60   O     O_R   0.164460 0.528278 0.213621 -0.275010
Br21  Br    Br    0.156865 0.501618 0.091773 -0.200196
N30   N     N_R   0.185389 0.521615 0.307909 0.204088
O61   O     O_R   0.162541 0.619039 0.314080 -0.251255
O62   O     O_R   0.120600 0.497556 0.287039 -0.264950
N31   N     N_R   0.750033 0.550311 0.406803 0.197531
O63   O     O_R   0.726880 0.638625 0.392985 -0.247866
O64   O     O_R   0.815325 0.522265 0.437474 -0.271367

loop_
_geom_bond_atom_site_label_1
_geom_bond_atom_site_label_2
_geom_bond_distance
_ccdc_geom_bond_type
C44   C48   1.418703 A    
C71   C76   1.438810 A    
C12   N24   1.451475 S    
O22   Cr5   2.068824 S    
N22   O45   1.301736 A    
C53   N18   1.449879 S    
O16   Cr5   2.072350 S    
C21   C22   1.441383 A    
C32   C33   1.400853 A    
N12   C55   1.359452 A    
Cr6   O26   2.001553 S    
C4    C77   1.494881 S    
N17   O35   1.297677 A    
N31   O63   1.300812 A    
C63   C64   1.453510 A    
C16   N29   1.439105 S    
C88   C89   1.204741 T    
N18   O38   1.298331 A    
O4    Cr2   1.933830 S    
N9    N10   1.333280 A    
C74   C75   1.211192 T    
O25   Cr6   1.934566 S    
O19   Cr6   1.939359 S    
N17   O36   1.309358 A    
O8    Cr1   1.942588 S    
C8    C9    1.410195 A    
C67   C68   1.401284 A    
N25   O52   1.299515 A    
C78   Br20  1.911388 S    
O21   Cr4   1.941341 S    
N16   O33   1.308337 A    
O14   C93   1.272601 A    
C91   O16   1.254308 A    
C39   Br7   1.931099 S    
C38   C42   1.473493 S    
O4    C2    1.277353 A    
C79   H8    1.082999 S    
C48   C93   1.483631 S    
O15   Cr4   1.940785 S    
C15   Br21  1.924775 S    
N7    C42   1.353309 A    
C72   C73   1.409182 A    
C90   C96   1.490228 S    
C41   C47   1.470049 S    
C5    O11   1.286017 A    
C81   C82   1.413165 A    
O17   Cr5   1.950649 S    
H7    C84   1.079669 S    
C16   C17   1.411780 A    
C83   C87   1.420193 A    
C83   C84   1.398416 A    
C66   C67   1.394292 A    
C24   C28   1.461754 S    
C60   N19   1.455117 S    
H2    C11   1.081751 S    
N15   O31   1.303281 A    
C5    C49   1.493168 S    
C14   Br1   1.920643 S    
C53   C54   1.381838 A    
N26   O53   1.301549 A    
N23   O48   1.299024 A    
C59   Br13  1.955646 S    
C40   Br5   1.935069 S    
C43   C47   1.409097 A    
C18   C19   1.206121 T    
C21   C26   1.438668 A    
N24   O49   1.297903 A    
O18   Cr6   2.055568 S    
C6    C63   1.511416 S    
C14   C20   1.420623 A    
N14   O30   1.294390 A    
C63   C68   1.419912 A    
C52   C56   1.466609 S    
C45   C46   1.401167 A    
C9    C10   1.399863 A    
C1    C35   1.475134 S    
C36   C37   1.390615 A    
C85   N27   1.425993 S    
C71   Br16  1.959920 S    
N7    N8    1.335239 A    
C66   C75   1.449663 S    
N15   O32   1.297945 A    
N30   O62   1.300984 A    
Cr3   O13   1.970835 S    
O15   C91   1.295600 A    
C49   C54   1.401373 A    
C83   N25   1.449060 S    
C45   C48   1.407966 A    
C22   N31   1.453202 S    
C77   C78   1.419495 A    
N19   O40   1.312926 A    
C58   C62   1.409245 A    
N3    C28   1.354425 A    
Cr5   O26   1.970576 S    
C36   H4    1.069207 S    
N24   O50   1.304627 A    
C37   N16   1.449218 S    
O1    Cr1   2.064724 S    
C9    N30   1.433895 S    
N25   O51   1.302624 A    
C29   C30   1.388882 A    
N3    N4    1.322731 A    
O10   Cr2   1.937536 S    
C76   C94   1.486999 S    
Cr1   O13   1.989324 S    
O1    C3    1.273989 A    
O23   C95   1.305551 A    
C82   Br19  1.934684 S    
C79   C80   1.387977 A    
O23   Cr5   1.953100 S    
C59   C60   1.417361 A    
C85   C90   1.416275 A    
O6    C3    1.291421 A    
C72   Br15  1.956784 S    
C30   N14   1.459864 S    
C31   C32   1.405076 A    
C52   C53   1.410001 A    
C51   C52   1.422773 A    
N8    C41   1.351304 A    
C64   N23   1.464835 S    
N31   O64   1.296590 A    
C35   C36   1.393538 A    
C17   C18   1.439757 S    
C20   C92   1.488269 S    
C69   N20   1.456625 S    
N27   O55   1.291852 A    
C11   C12   1.399209 A    
N13   O28   1.298890 A    
C43   Br8   1.936646 S    
N30   O61   1.303422 A    
C65   C66   1.399383 A    
O7    Cr1   2.064495 S    
C73   C74   1.445973 S    
C37   C38   1.419516 A    
C15   C16   1.410740 A    
C86   C87   1.427977 A    
C25   N15   1.468835 S    
C57   Br12  1.942971 S    
N11   N12   1.334678 A    
O19   C93   1.297469 A    
C44   Br6   1.935786 S    
O14   Cr4   2.058867 S    
C29   H3    1.088119 S    
C84   C90   1.391009 A    
N5    C41   1.350713 A    
N4    C27   1.353346 A    
C26   N13   1.444360 S    
Cr2   O13   2.001755 S    
C35   C40   1.410012 A    
N23   O47   1.300140 A    
N6    C42   1.348833 A    
C23   C24   1.398027 A    
C13   C17   1.390810 A    
C49   C50   1.430787 A    
N5    N6    1.331911 A    
C22   C23   1.411971 A    
C81   Br18  1.926933 S    
C1    O3    1.287148 A    
C46   C47   1.408239 A    
N1    N2    1.326044 A    
Cr4   O26   1.989419 S    
C85   C86   1.423080 A    
N11   C56   1.360368 A    
C78   C79   1.387798 A    
C71   C72   1.391124 A    
C31   C34   1.431977 A    
N10   C56   1.361498 A    
C7    C12   1.437587 A    
C23   Br2   1.952514 S    
C10   C11   1.381966 A    
C31   Br3   1.933638 S    
N22   O46   1.291498 A    
C80   C89   1.438437 S    
O9    Cr2   2.050100 S    
N27   O56   1.301606 A    
O2    Cr1   1.945009 S    
N28   O57   1.294165 A    
C62   C95   1.493133 S    
O24   Cr6   2.059484 S    
C13   C14   1.389640 A    
C24   C25   1.416764 A    
C34   C91   1.502795 S    
C50   C51   1.429556 A    
O6    Cr3   1.952318 S    
C69   C73   1.434552 A    
O8    C4    1.286847 A    
N1    C27   1.358161 A    
O11   Cr3   2.069639 S    
C58   H6    1.089188 S    
C2    O5    1.283702 A    
O3    Cr2   2.056011 S    
N29   O60   1.296563 A    
O21   C94   1.294009 A    
O20   Cr4   2.056532 S    
C3    C21   1.513352 S    
C15   C20   1.403043 A    
C86   N26   1.464804 S    
O12   C6    1.302300 A    
C8    N28   1.454199 S    
C51   Br11  1.950194 S    
N16   O34   1.299019 A    
O2    C1    1.284161 A    
C7    C8    1.452098 A    
N28   O58   1.304683 A    
N21   O43   1.301650 A    
O20   C96   1.277425 A    
N18   O37   1.305209 A    
C27   C33   1.451716 S    
C95   O24   1.259213 A    
C45   Br9   1.928185 S    
C59   C62   1.441533 A    
C70   C76   1.411290 A    
C80   C81   1.400054 A    
C77   C82   1.430392 A    
C30   C34   1.456404 A    
C10   C19   1.441267 S    
O7    C6    1.258941 A    
N2    C28   1.356167 A    
O5    Cr3   2.066276 S    
C55   C61   1.475252 S    
C39   C40   1.409805 A    
C60   C61   1.426844 A    
C68   N22   1.424334 S    
N20   O42   1.297409 A    
C92   O18   1.265464 A    
C29   C33   1.384078 A    
C32   Br4   1.935382 S    
C57   C61   1.413049 A    
O17   C92   1.298834 A    
O12   Cr3   1.947955 S    
N21   O44   1.297944 A    
C43   C44   1.399247 A    
N29   O59   1.304653 A    
C94   O22   1.256435 A    
C38   C39   1.421346 A    
C2    C7    1.505013 S    
C25   C26   1.421869 A    
C70   Br14  1.948368 S    
C4    O9    1.289297 A    
N9    C55   1.358005 A    
N26   O54   1.298187 A    
C64   C65   1.429654 A    
C54   H5    1.074731 S    
C69   C70   1.424499 A    
C87   C88   1.444712 S    
O10   C5    1.278541 A    
N20   O41   1.297371 A    
C50   N17   1.454252 S    
C57   C58   1.391472 A    
C67   N21   1.435661 S    
C46   Br10  1.934848 S    
C65   Br17  1.936781 S    
N19   O39   1.303286 A    
O25   C96   1.294519 A    
H1    C13   1.085124 S    
N13   O27   1.289819 A    
N14   O29   1.300721 A    
