data_mof_unit_38522.cif
_audit_creation_date              2012-12-11T15:53:46-0500
_audit_creation_method            fapswitch 2.2
_symmetry_space_group_name_H-M    P1
_symmetry_Int_Tables_number       1
_space_group_crystal_system       triclinic
_cell_length_a                    10.769348
_cell_length_b                    10.900831
_cell_length_c                    17.020864
_cell_angle_alpha                 80.898704
_cell_angle_beta                  99.488882
_cell_angle_gamma                 119.192871
_cell_volume                      1713.46118659

loop_
_atom_site_label
_atom_site_type_symbol
_atom_type_description
_atom_site_fract_x
_atom_site_fract_y
_atom_site_fract_z
_atom_type_partial_charge
C1    C     C_R   0.361761 0.231185 0.627602 0.549681
C2    C     C_R   0.515734 0.719788 0.731869 -0.148153
C3    C     C_R   0.495731 0.740496 0.807414 0.103477
C4    C     C_3   0.106014 0.438904 0.787382 0.001951
C5    C     C_3   0.128327 0.420417 0.703684 -0.008570
C6    C     C_R   0.402595 0.618954 0.685604 -0.026104
C7    C     C_1   0.819717 0.655479 0.706412 -0.058846
C8    C     C_1   0.847851 0.683284 0.774349 -0.050449
C9    C     C_1   0.345539 0.188882 0.709936 -0.052764
C10   C     C_1   0.321034 0.160086 0.778399 -0.053486
C11   C     C_1   0.317015 0.680767 0.280536 -0.048571
C12   C     C_R   0.414268 0.620760 0.601305 0.571863
C13   C     C_1   0.295818 0.704202 0.209879 -0.069581
C14   C     C_R   0.876946 0.696675 0.169864 -0.016033
C15   C     C_R   0.893370 0.594428 0.221423 -0.030063
C16   C     C_R   0.887192 0.583339 0.301666 0.008188
C17   C     C_R   0.881167 0.803084 0.287764 0.109450
C18   C     C_R   0.882904 0.811713 0.203375 0.116452
C19   C     C_3   0.817274 0.441553 0.213425 0.056191
C20   C     C_3   0.811109 0.425654 0.303763 -0.004982
C21   C     C_R   0.859286 0.675959 0.333821 0.005206
C22   C     C_R   0.334027 0.161581 0.162967 0.059922
C23   C     C_R   0.774948 0.617898 0.626961 0.544523
C24   C     C_R   0.245740 0.204124 0.185922 -0.000476
C25   C     C_R   0.244199 0.210866 0.264914 -0.057357
C26   C     C_R   0.402883 0.111787 0.304426 0.056082
C27   C     C_R   0.422861 0.123335 0.222616 0.113356
C28   C     C_3   0.247697 0.343213 0.162076 -0.010229
C29   C     C_3   0.243878 0.348793 0.249895 0.015856
C30   C     C_R   0.322087 0.167807 0.325170 0.024919
C31   C     C_R   0.891436 0.701556 0.856410 0.549197
C32   C     C_R   0.317255 0.706320 0.899011 0.574546
C33   C     C_R   0.284232 0.113619 0.857889 0.549224
C34   C     C_R   0.349341 0.224034 0.401048 0.580703
C35   C     C_R   0.897985 0.697434 0.087379 0.545602
C36   C     C_R   0.284888 0.737449 0.125674 0.552224
C37   C     C_R   0.288253 0.107696 0.085160 0.550294
C38   C     C_R   0.362132 0.656183 0.361907 0.562913
C39   C     C_R   0.777170 0.624793 0.402513 0.563247
C40   C     C_R   0.359447 0.656145 0.837784 0.029132
C41   C     C_R   0.264112 0.535043 0.799145 -0.023878
C42   C     C_R   0.284143 0.518375 0.724673 -0.012486
Cr1   Cr    Cr6+3 0.608440 0.389080 0.519680 1.017521
Cr2   Cr    Cr6+3 0.288640 0.400090 0.490760 0.995380
Cr3   Cr    Cr6+3 0.602940 0.710800 0.489510 0.995487
Cr4   Cr    Cr6+3 0.052530 0.947560 0.964210 1.008611
Cr5   Cr    Cr6+3 0.059970 0.626800 0.992920 0.990854
Cr6   Cr    Cr6+3 0.373320 0.938440 0.995370 0.978565
H1    H     H_    0.616379 0.789558 0.707225 0.141280
H2    H     H_    0.712767 0.411521 0.176745 0.147753
H3    H     H_    0.700263 0.376031 0.320688 0.131550
H4    H     H_    0.152102 0.335928 0.121914 0.156256
H5    H     H_    0.339785 0.436445 0.278461 0.175346
H6    H     H_    0.070904 0.340973 0.828855 0.135074
H7    H     H_    0.105856 0.311249 0.697202 0.143118
O1    O     O_R   0.754020 0.497590 0.609930 -0.494608
O2    O     O_R   0.295080 0.533620 0.397890 -0.491639
O3    O     O_R   0.485280 0.746620 0.388440 -0.546068
O4    O     O_R   0.720550 0.696220 0.420010 -0.484584
O5    O     O_3   0.500010 0.499990 0.499980 -0.285678
O6    O     O_R   0.163320 0.092900 0.874450 -0.518822
O7    O     O_R   0.934650 0.822080 0.882840 -0.511626
O8    O     O_R   0.915520 0.604140 0.893670 -0.491008
O9    O     O_R   0.191760 0.638110 0.923230 -0.475839
O10   O     O_R   0.406180 0.826930 0.920660 -0.487290
O11   O     O_R   0.358620 0.062870 0.901950 -0.504044
O12   O     O_R   0.481420 0.271390 0.600630 -0.491811
O13   O     O_R   0.163910 0.085460 0.050210 -0.508079
O14   O     O_R   0.935200 0.815170 0.045770 -0.472293
O15   O     O_R   0.916120 0.596690 0.069430 -0.535888
O16   O     O_R   0.192310 0.631200 0.086170 -0.519389
O17   O     O_R   0.406770 0.819480 0.096420 -0.567956
O18   O     O_R   0.359170 0.055960 0.064880 -0.516971
O19   O     O_3   0.161940 0.837600 0.984160 -0.271467
O20   O     O_R   0.263810 0.254550 0.589590 -0.526506
O21   O     O_R   0.300820 0.531200 0.560890 -0.506755
O22   O     O_R   0.491480 0.744020 0.564270 -0.506177
O23   O     O_R   0.726290 0.693800 0.583010 -0.521716
O24   O     O_R   0.747830 0.500190 0.434090 -0.537613
O25   O     O_R   0.475680 0.273800 0.437630 -0.481328
O26   O     O_R   0.257620 0.257160 0.413750 -0.543936
N1    N     N_3   0.898393 0.365828 0.350501 -0.592791
H8    H     H_    0.839982 0.256443 0.349899 0.203514
H9    H     H_    0.910609 0.386247 0.410046 0.242149
N2    N     N_3   0.476423 0.058636 0.366630 -0.608012
H10   H     H_    0.583638 0.133996 0.375596 0.218194
H11   H     H_    0.471298 0.969325 0.348384 0.253225
N3    N     N_2   0.560211 0.153155 0.205307 -0.537493
H12   H     H_    0.635228 0.194692 0.252030 0.251895
C43   C     C_3   0.579431 0.043361 0.182923 -0.278363
H13   H     H_    0.690484 0.064565 0.199821 0.099158
H14   H     H_    0.569469 0.047703 0.117262 0.213724
H15   H     H_    0.513014 0.942375 0.215690 0.161464
N4    N     N_3   0.383787 0.449871 0.132903 -0.657663
H16   H     H_    0.392850 0.549191 0.134406 0.259054
H17   H     H_    0.379017 0.436895 0.072720 0.232612
N5    N     N_3   0.108876 0.332838 0.267288 -0.623350
H18   H     H_    0.024865 0.238247 0.247891 0.229685
H19   H     H_    0.106837 0.326821 0.328611 0.305295
N6    N     N_2   0.610687 0.850054 0.850273 -0.494103
H20   H     H_    0.698796 0.834266 0.864749 0.260110
C44   C     C_3   0.648145 0.992023 0.814731 -0.262678
H21   H     H_    0.697887 0.013455 0.758492 0.127167
H22   H     H_    0.726150 0.068890 0.857110 0.131747
H23   H     H_    0.551895 0.007539 0.801849 0.182299
N7    N     N_3   0.021386 0.510605 0.787205 -0.561890
H24   H     H_    0.917763 0.446852 0.761948 0.260439
H25   H     H_    0.064349 0.607527 0.752525 0.250368
N8    N     N_3   0.057656 0.476709 0.638120 -0.607887
H26   H     H_    0.042769 0.427774 0.586773 0.249999
H27   H     H_    0.121004 0.585359 0.625319 0.254129
N9    N     N_2   0.913500 0.922137 0.327656 -0.510379
H28   H     H_    0.010284 0.008410 0.317377 0.254453
C45   C     C_3   0.800138 0.955880 0.330058 -0.260125
H29   H     H_    0.783888 0.952472 0.393197 0.183697
H30   H     H_    0.832225 0.064900 0.303917 0.091484
H31   H     H_    0.698353 0.881594 0.297920 0.168884
N10   N     N_2   0.878364 0.927268 0.153023 -0.482633
H32   H     H_    0.921455 0.019886 0.179690 0.243410
C46   C     C_3   0.739857 0.892398 0.109154 -0.263095
H33   H     H_    0.657562 0.852069 0.151476 0.146313
H34   H     H_    0.708125 0.809631 0.068455 0.175928
H35   H     H_    0.743379 0.987376 0.072260 0.117856
N11   N     N_2   0.908331 0.395187 0.187227 -0.449865
H36   H     H_    0.014256 0.470585 0.188318 0.319502
C47   C     C_3   0.859351 0.318648 0.116225 -0.266123
H37   H     H_    0.929318 0.380700 0.067966 0.168109
H38   H     H_    0.747956 0.293437 0.092722 0.158829
H39   H     H_    0.868658 0.220765 0.129839 0.101887

loop_
_geom_bond_atom_site_label_1
_geom_bond_atom_site_label_2
_ccdc_geom_bond_type
C5    C42   S    
Cr3   O5    S    
C16   C21   A    
C20   N1    S    
C11   C38   S    
C11   C13   T    
C41   C42   A    
C14   C18   A    
C19   C20   S    
N9    C45   S    
C45   H29   S    
C7    C8    T    
N2    H10   S    
C15   C19   S    
C26   C27   A    
C47   H37   S    
C29   H5    S    
C27   N3    S    
Cr4   O7    S    
C28   C29   S    
C20   H3    S    
N8    H27   S    
Cr5   O8    S    
C4    C41   S    
Cr1   O24   S    
C15   C16   A    
C37   O13   A    
C44   H23   S    
C28   N4    S    
Cr2   O21   S    
N10   H32   S    
Cr4   O14   S    
C34   O25   A    
C38   O3    A    
C3    N6    S    
C35   O15   A    
Cr3   O23   S    
C34   O26   A    
Cr6   O10   S    
C9    C10   T    
C18   N10   S    
C36   O16   A    
C31   O7    A    
C2    C6    A    
Cr6   O17   S    
N9    H28   S    
N5    H19   S    
C46   H34   S    
C33   O11   A    
N5    H18   S    
N2    H11   S    
C25   C29   S    
Cr3   O3    S    
C19   N11   S    
C30   C34   S    
Cr4   O6    S    
C1    O20   A    
C31   O8    A    
C23   O1    A    
C1    C9    S    
C24   C25   A    
C32   O9    A    
C13   C36   S    
Cr2   O26   S    
C14   C35   S    
C47   H39   S    
Cr1   O25   S    
C22   C37   S    
C4    N7    S    
C17   C21   A    
C46   H35   S    
C39   O24   A    
Cr2   O20   S    
N4    H17   S    
Cr5   O15   S    
Cr4   O13   S    
C2    H1    S    
Cr6   O19   S    
C38   O2    A    
C43   H14   S    
C21   C39   S    
Cr2   O2    S    
C16   C20   S    
C39   O4    A    
C12   O22   A    
N6    C44   S    
C17   C18   A    
N4    H16   S    
N7    H24   S    
C44   H22   S    
Cr5   O16   S    
Cr1   O5    S    
Cr1   O12   S    
C40   C41   A    
N3    C43   S    
C3    C40   A    
C26   C30   A    
N1    H9    S    
C22   C27   A    
C12   O21   A    
C22   C24   A    
C17   N9    S    
Cr4   O19   S    
C46   H33   S    
C43   H15   S    
N11   C47   S    
C25   C30   A    
C37   O18   A    
Cr3   O4    S    
C47   H38   S    
C4    H6    S    
C8    C31   S    
Cr6   O18   S    
C5    H7    S    
C24   C28   S    
Cr5   O19   S    
C4    C5    S    
C45   H30   S    
Cr5   O9    S    
C29   N5    S    
C2    C3    A    
N8    H26   S    
C6    C12   S    
C28   H4    S    
C19   H2    S    
C43   H13   S    
N7    H25   S    
Cr2   O5    S    
C26   N2    S    
C7    C23   S    
N6    H20   S    
C1    O12   A    
C10   C33   S    
C32   C40   S    
C23   O23   A    
C44   H21   S    
N10   C46   S    
C45   H31   S    
Cr1   O1    S    
N3    H12   S    
C35   O14   A    
C33   O6    A    
N1    H8    S    
C6    C42   A    
C14   C15   A    
C32   O10   A    
Cr3   O22   S    
C5    N8    S    
Cr6   O11   S    
C36   O17   A    
N11   H36   S    
