data_mof_unit_63593.cif
_audit_creation_date              2012-12-10T18:00:57-0500
_audit_creation_method            fapswitch 2.2
_symmetry_space_group_name_H-M    P1
_symmetry_Int_Tables_number       1
_space_group_crystal_system       triclinic
_cell_length_a                    30.745673
_cell_length_b                    30.694169
_cell_length_c                    24.646104
_cell_angle_alpha                 89.999343
_cell_angle_beta                  128.000443
_cell_angle_gamma                 89.999874
_cell_volume                      18328.1099369

loop_
_atom_site_label
_atom_site_type_symbol
_atom_type_description
_atom_site_fract_x
_atom_site_fract_y
_atom_site_fract_z
_atom_type_partial_charge
C1    C     C_R   0.809027 0.809454 0.499477 0.807240
C2    C     C_R   0.190957 0.809443 0.500492 0.808129
C3    C     C_R   0.309041 0.309444 0.499506 0.808125
C4    C     C_R   0.690973 0.309454 0.500523 0.807229
C5    C     C_R   0.645757 0.749422 0.291425 -0.025819
C6    C     C_R   0.354232 0.749442 0.708585 -0.026315
C7    C     C_R   0.145768 0.249446 0.291414 -0.026335
C8    C     C_R   0.854241 0.249423 0.708575 -0.025821
C9    C     C_R   0.465015 0.748714 0.930027 0.407502
C10   C     C_R   0.534998 0.748703 0.069988 0.407380
C11   C     C_R   0.964996 0.248706 0.930012 0.407381
C12   C     C_R   0.034981 0.248719 0.069972 0.407503
C13   C     C_R   0.899402 0.842967 0.549774 0.043898
C14   C     C_R   0.100677 0.843355 0.449538 0.045994
C15   C     C_R   0.399314 0.343373 0.550485 0.045860
C16   C     C_R   0.600595 0.342960 0.450240 0.043908
C17   C     C_R   0.842136 0.843429 0.500531 -0.101278
C18   C     C_R   0.157870 0.843381 0.499525 -0.099545
C19   C     C_R   0.342125 0.343385 0.500474 -0.099593
C20   C     C_R   0.657863 0.343428 0.499470 -0.101291
C21   C     C_R   0.816699 0.879534 0.456407 -0.181237
C22   C     C_R   0.183355 0.879035 0.544608 -0.186103
C23   C     C_R   0.316640 0.379038 0.455386 -0.185680
C24   C     C_R   0.683299 0.379537 0.543582 -0.181297
C25   C     C_R   0.848941 0.911510 0.455968 -0.158300
C26   C     C_R   0.151115 0.911003 0.545052 -0.156273
C27   C     C_R   0.348880 0.411010 0.454949 -0.156469
C28   C     C_R   0.651057 0.411511 0.544024 -0.158285
C29   C     C_R   0.906764 0.908429 0.501645 -0.084450
C30   C     C_R   0.093280 0.908415 0.498416 -0.083294
C31   C     C_R   0.406715 0.408423 0.501591 -0.083431
C32   C     C_R   0.593235 0.408427 0.498358 -0.084444
C33   C     C_R   0.931340 0.875389 0.551065 0.138511
C34   C     C_R   0.068779 0.875811 0.448276 0.139150
C35   C     C_R   0.431212 0.375829 0.551750 0.139211
C36   C     C_R   0.568657 0.375381 0.448949 0.138493
C37   C     C_3   0.975471 0.843813 0.568476 -0.327553
C38   C     C_3   0.024097 0.844425 0.429509 -0.327549
C39   C     C_3   0.475922 0.344449 0.570592 -0.327479
C40   C     C_3   0.524536 0.343802 0.431565 -0.327582
C41   C     C_3   0.940030 0.807953 0.567271 -0.277475
C42   C     C_3   0.059498 0.808512 0.430762 -0.279707
C43   C     C_3   0.440519 0.308537 0.569339 -0.279881
C44   C     C_3   0.559978 0.307943 0.432769 -0.277465
C45   C     C_R   0.683722 0.749814 0.367423 0.778315
C46   C     C_R   0.316272 0.749822 0.632581 0.778130
C47   C     C_R   0.183728 0.249824 0.367419 0.778103
C48   C     C_R   0.816278 0.249814 0.632577 0.778322
C49   C     C_R   0.831467 0.759554 0.743513 -0.241325
C50   C     C_R   0.164010 0.764748 0.254449 -0.240034
C51   C     C_R   0.336143 0.265059 0.745571 -0.239971
C52   C     C_R   0.668572 0.259497 0.256510 -0.241353
C53   C     C_R   0.864716 0.756772 0.815549 0.011496
C54   C     C_R   0.128330 0.764646 0.182089 0.015310
C55   C     C_R   0.371838 0.264973 0.817929 0.015233
C56   C     C_R   0.635331 0.256711 0.184478 0.011381
C57   C     C_R   0.921506 0.745640 0.853948 0.000211
C58   C     C_R   0.073099 0.750444 0.146389 0.011869
C59   C     C_R   0.426951 0.250467 0.853615 0.011976
C60   C     C_R   0.578523 0.245630 0.146061 0.000147
C61   C     C_R   0.941903 0.735228 0.817653 -0.169385
C62   C     C_R   0.055049 0.736840 0.183880 -0.166018
C63   C     C_R   0.444881 0.236568 0.816116 -0.166145
C64   C     C_R   0.558102 0.235273 0.182348 -0.169362
C65   C     C_R   0.907707 0.736447 0.745870 -0.149157
C66   C     C_R   0.091167 0.736367 0.255645 -0.141364
C67   C     C_R   0.408751 0.236099 0.744353 -0.141413
C68   C     C_R   0.592290 0.236493 0.254130 -0.149197
C69   C     C_R   0.852491 0.749173 0.708340 -0.047189
C70   C     C_R   0.145812 0.750507 0.291537 -0.050610
C71   C     C_R   0.354214 0.250522 0.708468 -0.050474
C72   C     C_R   0.647522 0.249168 0.291668 -0.047184
C73   C     C_R   0.033751 0.748753 0.070579 0.384213
C74   C     C_R   0.960726 0.746031 0.930771 0.396918
C75   C     C_R   0.539306 0.246019 0.069232 0.397000
C76   C     C_R   0.466293 0.248759 0.929423 0.384176
C77   C     C_R   0.677347 0.615638 0.525750 0.002218
C78   C     C_R   0.322063 0.616129 0.472243 0.001468
C79   C     C_R   0.177978 0.116168 0.527908 0.001386
C80   C     C_R   0.822657 0.115635 0.474264 0.002225
C81   C     C_R   0.657822 0.657747 0.502026 -0.105491
C82   C     C_R   0.342259 0.657776 0.498181 -0.104528
C83   C     C_R   0.157734 0.157778 0.501802 -0.104425
C84   C     C_R   0.842176 0.157747 0.497970 -0.105503
C85   C     C_R   0.603872 0.667477 0.478917 -0.179684
C86   C     C_R   0.396909 0.667070 0.523613 -0.180829
C87   C     C_R   0.103029 0.167035 0.476181 -0.180856
C88   C     C_R   0.896120 0.167480 0.521058 -0.179679
C89   C     C_R   0.690796 0.690613 0.500461 0.783122
C90   C     C_R   0.309226 0.690622 0.499600 0.783261
C91   C     C_R   0.190775 0.190623 0.500400 0.783316
C92   C     C_R   0.809203 0.190613 0.499539 0.783117
C93   C     C_R   0.571031 0.634917 0.477630 -0.219609
C94   C     C_R   0.429712 0.634478 0.524879 -0.219524
C95   C     C_R   0.070230 0.134440 0.474915 -0.219459
C96   C     C_R   0.928961 0.134921 0.522345 -0.219604
C97   C     C_R   0.591841 0.592435 0.499456 -0.027293
C98   C     C_R   0.408120 0.592422 0.500585 -0.028796
C99   C     C_R   0.091881 0.092419 0.499402 -0.028918
C100  C     C_R   0.908158 0.092435 0.500540 -0.027294
C101  C     C_R   0.644879 0.584177 0.522164 0.026745
C102  C     C_R   0.354390 0.584611 0.475645 0.027915
C103  C     C_R   0.145660 0.084644 0.524507 0.028054
C104  C     C_R   0.855126 0.084175 0.477850 0.026724
C105  C     C_3   0.685754 0.548546 0.544362 -0.284481
C106  C     C_3   0.312427 0.549443 0.450468 -0.282469
C107  C     C_3   0.187717 0.049519 0.549949 -0.282220
C108  C     C_3   0.814264 0.048539 0.455683 -0.284511
C109  C     C_3   0.723913 0.584658 0.548415 -0.056499
C110  C     C_3   0.274386 0.585657 0.446468 -0.057854
C111  C     C_3   0.225755 0.085747 0.553976 -0.057999
C112  C     C_3   0.776103 0.084650 0.451634 -0.056483
C113  C     C_R   0.440391 0.559004 0.500195 0.817990
C114  C     C_R   0.559577 0.559021 0.499809 0.816554
C115  C     C_R   0.940423 0.059021 0.500191 0.816567
C116  C     C_R   0.059611 0.059001 0.499803 0.818065
C117  C     C_R   0.940669 0.940453 0.500290 0.802413
C118  C     C_R   0.059337 0.940445 0.499718 0.804514
C119  C     C_R   0.440662 0.440447 0.500283 0.804364
C120  C     C_R   0.559330 0.440452 0.499711 0.802446
C121  C     C_R   0.816021 0.749972 0.632516 0.791190
C122  C     C_R   0.183775 0.750138 0.367449 0.791200
C123  C     C_R   0.316231 0.250142 0.632553 0.791299
C124  C     C_R   0.683981 0.249972 0.367487 0.791193
C125  C     C_R   0.612315 0.785710 0.254679 -0.182923
C126  C     C_R   0.387827 0.785668 0.745326 -0.182745
C127  C     C_R   0.112167 0.285669 0.254673 -0.182763
C128  C     C_R   0.887682 0.285710 0.745318 -0.182917
C129  C     C_R   0.576688 0.785573 0.182750 -0.153987
C130  C     C_R   0.423462 0.785532 0.817258 -0.154110
C131  C     C_R   0.076530 0.285534 0.182742 -0.154122
C132  C     C_R   0.923308 0.285575 0.817247 -0.153979
C133  C     C_R   0.573010 0.748818 0.146133 0.057021
C134  C     C_R   0.426992 0.748839 0.853883 0.056623
C135  C     C_R   0.073007 0.248844 0.146117 0.056605
C136  C     C_R   0.926985 0.248821 0.853867 0.057025
C137  C     C_R   0.606048 0.712316 0.182942 -0.153809
C138  C     C_R   0.393793 0.712405 0.817081 -0.152987
C139  C     C_R   0.106213 0.212413 0.182918 -0.152934
C140  C     C_R   0.893948 0.212319 0.817060 -0.153797
C141  C     C_R   0.642476 0.712773 0.254921 -0.178289
C142  C     C_R   0.357362 0.712864 0.745103 -0.177469
C143  C     C_R   0.142645 0.212871 0.254896 -0.177418
C144  C     C_R   0.857521 0.212776 0.745081 -0.178291
Cu1   Cu    Cu3+1 0.780910 0.719090 0.500000 0.983407
Cu2   Cu    Cu3+1 0.219090 0.719090 0.500000 0.982073
Cu3   Cu    Cu3+1 0.280910 0.219090 0.500000 0.982083
Cu4   Cu    Cu3+1 0.719090 0.219090 0.500000 0.983408
Cu5   Cu    Cu3+1 0.719070 0.780890 0.500010 0.955604
Cu6   Cu    Cu3+1 0.280930 0.780890 0.499990 0.957056
Cu7   Cu    Cu3+1 0.219070 0.280890 0.500010 0.956995
Cu8   Cu    Cu3+1 0.780930 0.280890 0.499990 0.955604
Cu9   Cu    Cu3+1 0.465760 0.500000 0.431570 1.011827
Cu10  Cu    Cu3+1 0.534240 0.500000 0.568430 1.010706
Cu11  Cu    Cu3+1 0.965760 0.000000 0.431570 1.010603
Cu12  Cu    Cu3+1 0.034240 0.000000 0.568430 1.011881
H1    H     H_    0.614165 0.814439 0.281551 0.149527
H2    H     H_    0.386098 0.814347 0.718451 0.149861
H3    H     H_    0.113890 0.314345 0.281548 0.149844
H4    H     H_    0.885833 0.314439 0.718445 0.149530
H5    H     H_    0.788199 0.767929 0.714555 0.154561
H6    H     H_    0.206198 0.775805 0.281856 0.156763
H7    H     H_    0.294047 0.276345 0.718178 0.156937
H8    H     H_    0.711851 0.267836 0.285478 0.154581
H9    H     H_    0.984746 0.726351 0.844753 0.166016
H10   H     H_    0.013021 0.725714 0.157413 0.152129
H11   H     H_    0.486818 0.225210 0.842574 0.152021
H12   H     H_    0.515249 0.226432 0.155248 0.166088
H13   H     H_    0.924687 0.728011 0.719677 0.161671
H14   H     H_    0.076239 0.725167 0.283134 0.160715
H15   H     H_    0.423587 0.224667 0.716864 0.160594
H16   H     H_    0.575291 0.228099 0.280315 0.161695
H17   H     H_    0.586674 0.699790 0.460668 0.163422
H18   H     H_    0.414632 0.699044 0.543678 0.162865
H19   H     H_    0.085267 0.198982 0.455975 0.162796
H20   H     H_    0.913312 0.199796 0.539292 0.163433
H21   H     H_    0.529762 0.642829 0.459702 0.136537
H22   H     H_    0.471537 0.642047 0.544632 0.137906
H23   H     H_    0.028363 0.141981 0.455021 0.138003
H24   H     H_    0.970225 0.142835 0.540258 0.136558
H25   H     H_    0.700332 0.535029 0.594926 0.131597
H26   H     H_    0.298667 0.536836 0.399788 0.132678
H27   H     H_    0.201390 0.036981 0.600625 0.132753
H28   H     H_    0.799676 0.035015 0.405119 0.131588
H29   H     H_    0.551565 0.814102 0.155807 0.150014
H30   H     H_    0.448708 0.814009 0.844196 0.149988
H31   H     H_    0.051279 0.314010 0.155803 0.149979
H32   H     H_    0.948431 0.314103 0.844189 0.150014
H33   H     H_    0.604234 0.683589 0.156105 0.150248
H34   H     H_    0.395484 0.683729 0.843923 0.150724
H35   H     H_    0.104527 0.183739 0.156076 0.150758
H36   H     H_    0.895760 0.183593 0.843899 0.150253
H37   H     H_    0.667598 0.684258 0.282029 0.149667
H38   H     H_    0.332116 0.684399 0.718008 0.149870
H39   H     H_    0.167897 0.184408 0.281991 0.149879
H40   H     H_    0.832399 0.184260 0.717975 0.149669
H41   H     H_    0.772129 0.881860 0.420150 0.157971
H42   H     H_    0.227916 0.880999 0.581538 0.158410
H43   H     H_    0.272078 0.380997 0.418447 0.158303
H44   H     H_    0.727869 0.381866 0.579830 0.158001
H45   H     H_    0.828859 0.938132 0.419491 0.154480
H46   H     H_    0.171201 0.937243 0.582255 0.156943
H47   H     H_    0.328795 0.437250 0.417745 0.156786
H48   H     H_    0.671139 0.438137 0.580493 0.154498
H49   H     H_    0.978324 0.840733 0.525836 0.116790
H50   H     H_    0.020580 0.841053 0.471560 0.116956
H51   H     H_    0.479473 0.341059 0.528571 0.116963
H52   H     H_    0.521695 0.340728 0.474215 0.116776
H53   H     H_    0.923616 0.784573 0.524162 0.172715
H54   H     H_    0.075266 0.784819 0.473330 0.172983
H55   H     H_    0.424786 0.284824 0.526806 0.173007
H56   H     H_    0.576405 0.284568 0.475888 0.172690
N1    N     N_R   0.517160 0.710640 0.034302 -0.236893
N2    N     N_R   0.482682 0.710646 0.965704 -0.236840
N3    N     N_R   0.017317 0.210651 0.034298 -0.236814
N4    N     N_R   0.982838 0.210644 0.965700 -0.236868
N5    N     N_R   0.483040 0.786752 0.965731 -0.238739
N6    N     N_R   0.517147 0.786747 0.034294 -0.238811
N7    N     N_R   0.982844 0.286751 0.965703 -0.238810
N8    N     N_R   0.016951 0.286757 0.034266 -0.238736
N9    N     N_R   0.012083 0.728622 0.965098 -0.241364
N10   N     N_R   0.982602 0.766113 0.036653 -0.223793
N11   N     N_R   0.517592 0.265812 0.963334 -0.223830
N12   N     N_R   0.487801 0.228910 0.034914 -0.241281
N13   N     N_R   0.047890 0.729953 0.033587 -0.223245
N14   N     N_R   0.947084 0.765076 0.968201 -0.216730
N15   N     N_R   0.553106 0.264766 0.031786 -0.216865
N16   N     N_R   0.452000 0.230250 0.966426 -0.223254
O1    O     O_R   0.821190 0.768980 0.500000 -0.578733
O2    O     O_R   0.178810 0.768980 0.500000 -0.579599
O3    O     O_R   0.321190 0.268980 0.500000 -0.579560
O4    O     O_R   0.678810 0.268980 0.500000 -0.578735
O5    O     O_R   0.483700 0.545120 0.557760 -0.563113
O6    O     O_R   0.516300 0.545120 0.442240 -0.561676
O7    O     O_R   0.983700 0.045120 0.557760 -0.561635
O8    O     O_R   0.016300 0.045120 0.442240 -0.563285
O9    O     O_R   0.925990 0.954920 0.442210 -0.600108
O10   O     O_R   0.074010 0.954920 0.557790 -0.600137
O11   O     O_R   0.425990 0.454920 0.442210 -0.600109
O12   O     O_R   0.574010 0.454920 0.557790 -0.600126
O13   O     O_R   0.983760 0.954940 0.557800 -0.532770
O14   O     O_R   0.016240 0.954940 0.442200 -0.533837
O15   O     O_R   0.483760 0.454940 0.557800 -0.533786
O16   O     O_R   0.516240 0.454940 0.442200 -0.532764
O17   O     O_R   0.768960 0.821170 0.500020 -0.578649
O18   O     O_R   0.231040 0.821170 0.499980 -0.578120
O19   O     O_R   0.268960 0.321170 0.500020 -0.578109
O20   O     O_R   0.731040 0.321170 0.499980 -0.578655
O21   O     O_R   0.726180 0.723900 0.400140 -0.579186
O22   O     O_R   0.273820 0.723900 0.599860 -0.579518
O23   O     O_R   0.226180 0.223900 0.400140 -0.579549
O24   O     O_R   0.773820 0.223900 0.599860 -0.579187
O25   O     O_R   0.673950 0.776090 0.400160 -0.589742
O26   O     O_R   0.326050 0.776090 0.599840 -0.589721
O27   O     O_R   0.173950 0.276090 0.400160 -0.589732
O28   O     O_R   0.826050 0.276090 0.599840 -0.589741
O29   O     O_R   0.731010 0.678810 0.499990 -0.579229
O30   O     O_R   0.268990 0.678810 0.500010 -0.578649
O31   O     O_R   0.231010 0.178810 0.499990 -0.578602
O32   O     O_R   0.768990 0.178810 0.500010 -0.579233
O33   O     O_R   0.678790 0.731000 0.500010 -0.591042
O34   O     O_R   0.321210 0.731000 0.499990 -0.590979
O35   O     O_R   0.178790 0.231000 0.500010 -0.590965
O36   O     O_R   0.821210 0.231000 0.499990 -0.591047
O37   O     O_R   0.826030 0.723890 0.599860 -0.578759
O38   O     O_R   0.173970 0.723890 0.400140 -0.580348
O39   O     O_R   0.326030 0.223890 0.599860 -0.580343
O40   O     O_R   0.673970 0.223890 0.400140 -0.578756
O41   O     O_R   0.773800 0.776080 0.599870 -0.583102
O42   O     O_R   0.226200 0.776080 0.400130 -0.582582
O43   O     O_R   0.273800 0.276080 0.599870 -0.582747
O44   O     O_R   0.726200 0.276080 0.400130 -0.583092
O45   O     O_R   0.425940 0.545090 0.442170 -0.603931
O46   O     O_R   0.574060 0.545090 0.557830 -0.603939
O47   O     O_R   0.925940 0.045090 0.442170 -0.603953
O48   O     O_R   0.074060 0.045090 0.557830 -0.603898
C145  C     C_2   0.962920 0.785573 0.634630 0.920191
O49   O     O_2   0.973727 0.806353 0.683967 -0.579998
O50   O     O_R   0.971313 0.740559 0.639836 -0.751824
H57   H     H_    0.987419 0.729004 0.687330 0.322448
C146  C     C_2   0.036829 0.786612 0.363150 0.920397
O51   O     O_2   0.027670 0.807580 0.314838 -0.575980
O52   O     O_R   0.026498 0.741852 0.356434 -0.752934
H58   H     H_    0.010348 0.730682 0.308735 0.321760
C147  C     C_2   0.463151 0.286671 0.636963 0.920590
O53   O     O_2   0.472294 0.307669 0.685242 -0.575769
O54   O     O_R   0.473458 0.241905 0.643727 -0.752975
H59   H     H_    0.489572 0.230759 0.691426 0.321802
C148  C     C_2   0.537081 0.285554 0.365415 0.920190
O55   O     O_2   0.526252 0.306329 0.316061 -0.580021
O56   O     O_R   0.528709 0.240538 0.360233 -0.751819
H60   H     H_    0.512600 0.228976 0.312742 0.322459
C149  C     C_R   0.837418 0.762951 0.847655 0.116271
C150  C     C_R   0.832304 0.727789 0.879873 -0.125012
C151  C     C_R   0.805820 0.733481 0.909433 -0.115323
C152  C     C_R   0.783909 0.774113 0.906480 -0.097180
C153  C     C_R   0.788294 0.809089 0.873770 -0.125575
C154  C     C_R   0.814771 0.803548 0.844163 -0.128282
H61   H     H_    0.848934 0.696126 0.882165 0.118101
H62   H     H_    0.802202 0.706382 0.934524 0.130952
H63   H     H_    0.763402 0.778464 0.929365 0.131162
H64   H     H_    0.771136 0.840487 0.871311 0.133241
H65   H     H_    0.817920 0.830852 0.818913 0.133966
C155  C     C_R   0.149507 0.780614 0.145562 0.111135
C156  C     C_R   0.196633 0.761553 0.158497 -0.144683
C157  C     C_R   0.216726 0.776555 0.124135 -0.122642
C158  C     C_R   0.190148 0.810775 0.076954 -0.100505
C159  C     C_R   0.143533 0.830162 0.064222 -0.117615
C160  C     C_R   0.123330 0.815300 0.098514 -0.111760
H66   H     H_    0.217465 0.734862 0.194687 0.123422
H67   H     H_    0.252880 0.761615 0.134035 0.132965
H68   H     H_    0.205741 0.822328 0.050375 0.133183
H69   H     H_    0.123110 0.856774 0.027873 0.139347
H70   H     H_    0.087429 0.830861 0.088550 0.135974
C161  C     C_R   0.350813 0.281290 0.854467 0.111156
C162  C     C_R   0.303521 0.262597 0.841541 -0.144721
C163  C     C_R   0.283565 0.277937 0.875902 -0.122605
C164  C     C_R   0.310448 0.312130 0.923073 -0.100443
C165  C     C_R   0.357233 0.331152 0.935797 -0.117609
C166  C     C_R   0.377299 0.315953 0.901505 -0.111673
H71   H     H_    0.282450 0.235931 0.805357 0.123392
H72   H     H_    0.247280 0.263281 0.866006 0.132959
H73   H     H_    0.294960 0.323946 0.949650 0.133171
H74   H     H_    0.377894 0.357744 0.972139 0.139306
H75   H     H_    0.413334 0.331235 0.911460 0.135984
C167  C     C_R   0.662658 0.262850 0.152406 0.116314
C168  C     C_R   0.667947 0.227628 0.120440 -0.124960
C169  C     C_R   0.694463 0.233284 0.090915 -0.115325
C170  C     C_R   0.716230 0.273940 0.093651 -0.097171
C171  C     C_R   0.711669 0.308978 0.126112 -0.125562
C172  C     C_R   0.685160 0.303474 0.155684 -0.128238
H76   H     H_    0.651427 0.195947 0.118316 0.118121
H77   H     H_    0.698218 0.206138 0.066018 0.130951
H78   H     H_    0.736762 0.278263 0.070793 0.131159
H79   H     H_    0.728716 0.340396 0.128404 0.133244
H80   H     H_    0.681875 0.330824 0.180743 0.133962
C173  C     C_2   0.666790 0.512889 0.491907 0.830740
O57   O     O_2   0.618091 0.509271 0.442184 -0.586055
O58   O     O_R   0.705611 0.483402 0.501514 -0.768369
H81   H     H_    0.688464 0.460766 0.463581 0.345331
C174  C     C_2   0.329468 0.512877 0.500981 0.829491
O59   O     O_2   0.377734 0.508241 0.551449 -0.587526
O60   O     O_R   0.289354 0.483788 0.488772 -0.769034
H82   H     H_    0.305225 0.460587 0.525737 0.345465
C175  C     C_2   0.170856 0.012886 0.499600 0.829288
O61   O     O_2   0.122633 0.008157 0.449069 -0.587706
O62   O     O_R   0.211090 0.983847 0.512028 -0.769134
H83   H     H_    0.195339 0.960605 0.475142 0.345419
C176  C     C_2   0.833247 0.012889 0.508155 0.830777
O63   O     O_2   0.881951 0.009281 0.557872 -0.586020
O64   O     O_R   0.794441 0.983395 0.498571 -0.768355
H84   H     H_    0.811602 0.960763 0.536512 0.345341
C177  C     C_R   0.775376 0.590815 0.623227 0.105249
C178  C     C_R   0.810820 0.555041 0.659001 -0.182462
C179  C     C_R   0.857583 0.559080 0.727712 -0.134528
C180  C     C_R   0.869437 0.598719 0.761956 -0.104864
C181  C     C_R   0.834653 0.634399 0.727461 -0.144798
C182  C     C_R   0.788131 0.630742 0.658455 -0.098660
H85   H     H_    0.802163 0.523967 0.633345 0.165019
H86   H     H_    0.884510 0.531375 0.754498 0.135336
H87   H     H_    0.905473 0.601765 0.815312 0.130650
H88   H     H_    0.843627 0.664857 0.754486 0.144343
H89   H     H_    0.762209 0.659046 0.633489 0.111422
C183  C     C_R   0.224160 0.593290 0.371348 0.106831
C184  C     C_R   0.188105 0.558262 0.333037 -0.181319
C185  C     C_R   0.142390 0.563688 0.264028 -0.137298
C186  C     C_R   0.132231 0.603988 0.232011 -0.099635
C187  C     C_R   0.167671 0.638938 0.269023 -0.143099
C188  C     C_R   0.213118 0.633894 0.338339 -0.105477
H90   H     H_    0.195445 0.526698 0.356949 0.164871
H91   H     H_    0.114959 0.536548 0.235288 0.135346
H92   H     H_    0.097008 0.608111 0.178435 0.132210
H93   H     H_    0.160046 0.669922 0.243729 0.144881
H94   H     H_    0.239563 0.661677 0.365296 0.109889
C189  C     C_R   0.275847 0.093501 0.629130 0.106853
C190  C     C_R   0.311964 0.058543 0.667650 -0.181242
C191  C     C_R   0.357547 0.064074 0.736702 -0.137332
C192  C     C_R   0.367503 0.104408 0.768557 -0.099610
C193  C     C_R   0.331994 0.139286 0.731339 -0.142987
C194  C     C_R   0.286687 0.134141 0.661976 -0.105777
H95   H     H_    0.304774 0.026953 0.643867 0.164847
H96   H     H_    0.385028 0.036989 0.765602 0.135358
H97   H     H_    0.402619 0.108611 0.822168 0.132245
H98   H     H_    0.339452 0.170293 0.756508 0.144870
H99   H     H_    0.260188 0.161873 0.634857 0.109848
C195  C     C_R   0.724626 0.090793 0.376827 0.105245
C196  C     C_R   0.689191 0.055011 0.341079 -0.182469
C197  C     C_R   0.642414 0.059039 0.272374 -0.134517
C198  C     C_R   0.630536 0.098674 0.238111 -0.104889
C199  C     C_R   0.665310 0.134361 0.272581 -0.144843
C200  C     C_R   0.711847 0.130716 0.341580 -0.098622
H100  H     H_    0.697866 0.023941 0.366749 0.165026
H101  H     H_    0.615494 0.031328 0.245607 0.135328
H102  H     H_    0.594488 0.101711 0.184759 0.130606
H103  H     H_    0.656316 0.164817 0.245542 0.144326
H104  H     H_    0.737762 0.159026 0.366526 0.111426
C201  C     C_R   0.734638 0.582240 0.494957 0.167742
C202  C     C_R   0.690044 0.582603 0.423604 -0.103022
C203  C     C_R   0.699241 0.582186 0.374721 -0.138025
C204  C     C_R   0.752950 0.581594 0.395744 -0.107642
C205  C     C_R   0.797589 0.581572 0.465725 -0.136127
C206  C     C_R   0.788733 0.582066 0.514969 -0.105571
H105  H     H_    0.647815 0.583624 0.405400 0.147488
H106  H     H_    0.664589 0.582546 0.320390 0.134427
H107  H     H_    0.759993 0.581380 0.357789 0.130151
H108  H     H_    0.839281 0.581460 0.481961 0.132392
H109  H     H_    0.824667 0.582865 0.568443 0.130298
C207  C     C_R   0.261737 0.582239 0.498021 0.168223
C208  C     C_R   0.305183 0.581157 0.569764 -0.101431
C209  C     C_R   0.294279 0.579704 0.617011 -0.136296
C210  C     C_R   0.239974 0.579519 0.593943 -0.107150
C211  C     C_R   0.196448 0.580955 0.523556 -0.136948
C212  C     C_R   0.207016 0.582480 0.475944 -0.105897
H110  H     H_    0.347843 0.581819 0.589563 0.147343
H111  H     H_    0.328075 0.578933 0.671675 0.134806
H112  H     H_    0.231610 0.578494 0.630639 0.130964
H113  H     H_    0.154299 0.581166 0.505748 0.132599
H114  H     H_    0.171908 0.584377 0.422117 0.130024
C213  C     C_R   0.238608 0.082259 0.502626 0.168283
C214  C     C_R   0.195287 0.081044 0.430849 -0.101261
C215  C     C_R   0.206370 0.079518 0.383777 -0.136196
C216  C     C_R   0.260734 0.079395 0.407056 -0.107180
C217  C     C_R   0.304139 0.080969 0.477479 -0.136988
C218  C     C_R   0.293391 0.082567 0.524916 -0.105921
H115  H     H_    0.152585 0.081657 0.410886 0.147299
H116  H     H_    0.172667 0.078642 0.329084 0.134811
H117  H     H_    0.269237 0.078314 0.370496 0.130991
H118  H     H_    0.346333 0.081232 0.495449 0.132619
H119  H     H_    0.328409 0.084572 0.578774 0.130006
C219  C     C_R   0.765402 0.082239 0.505113 0.167722
C220  C     C_R   0.810009 0.082615 0.576461 -0.103037
C221  C     C_R   0.800832 0.082207 0.625363 -0.138019
C222  C     C_R   0.747131 0.081609 0.604365 -0.107643
C223  C     C_R   0.702479 0.081572 0.534389 -0.136123
C224  C     C_R   0.711315 0.082059 0.485126 -0.105566
H120  H     H_    0.852233 0.083641 0.594645 0.147505
H121  H     H_    0.835494 0.082578 0.679689 0.134447
H122  H     H_    0.740104 0.081401 0.642334 0.130153
H123  H     H_    0.660793 0.081455 0.518172 0.132391
H124  H     H_    0.675371 0.082846 0.431657 0.130303
C225  C     C_2   0.030756 0.852682 0.636897 0.939429
O65   O     O_2   0.069024 0.827591 0.658040 -0.587422
O66   O     O_R   0.038486 0.889384 0.675607 -0.714201
H125  H     H_    0.077484 0.891524 0.720223 0.330448
C226  C     C_2   0.969281 0.853858 0.360789 0.939534
O67   O     O_2   0.930586 0.829039 0.338638 -0.587180
O68   O     O_R   0.962472 0.890756 0.322929 -0.713249
H126  H     H_    0.923707 0.893270 0.277992 0.331180
C227  C     C_2   0.530713 0.353909 0.639325 0.939570
O69   O     O_2   0.569426 0.329098 0.661535 -0.587189
O70   O     O_R   0.537481 0.390822 0.677133 -0.713205
H127  H     H_    0.576232 0.393354 0.722086 0.331183
C228  C     C_2   0.469243 0.352662 0.363149 0.939461
O71   O     O_2   0.430983 0.327568 0.342025 -0.587404
O72   O     O_R   0.461497 0.389360 0.324423 -0.714221
H128  H     H_    0.422494 0.391494 0.279812 0.330446

loop_
_geom_bond_atom_site_label_1
_geom_bond_atom_site_label_2
_ccdc_geom_bond_type
C99   C103  A    
C40   H52   S    
C133  C137  A    
C181  C182  A    
C129  H29   S    
C76   N16   A    
C77   C101  A    
O56   H60   S    
C136  C140  A    
C132  H32   S    
C173  O57   D    
C114  O6    A    
C135  C139  A    
C164  H73   S    
C4    O4    A    
C214  C215  A    
C55   C59   A    
C95   C99   A    
Cu6   O26   S    
Cu12  O7    S    
C156  H66   S    
C29   C33   A    
C100  C104  A    
C94   H22   S    
C53   C149  S    
C116  O48   A    
C46   O22   A    
Cu2   Cu6   S    
Cu3   O3    S    
C195  C200  A    
C227  O70   S    
C12   C135  S    
C153  H64   S    
C3    C19   S    
C186  H92   S    
C43   H55   S    
C16   C44   S    
C11   N7    A    
C11   N4    A    
C117  O9    A    
C198  H102  S    
C49   C69   A    
C72   C124  S    
C130  C134  A    
C100  C115  S    
C51   C71   A    
Cu4   O32   S    
N12   N16   A    
Cu5   O33   S    
C187  C188  A    
C223  C224  A    
C25   C29   A    
C218  H119  S    
Cu4   O24   S    
C171  C172  A    
Cu9   O11   S    
C27   C31   A    
C28   C32   A    
C121  O37   A    
C99   C116  S    
Cu8   O28   S    
C62   C66   A    
C112  C195  S    
C98   C102  A    
C124  O40   A    
C17   C21   A    
C162  C163  A    
C86   H18   S    
C48   O24   A    
C113  O5    A    
O68   H126  S    
C13   C33   A    
C169  H77   S    
C52   C72   A    
C78   C82   A    
C179  C180  A    
C16   C20   A    
C80   C112  S    
C157  C158  A    
C142  H38   S    
C89   O29   A    
C96   H24   S    
C220  H120  S    
C201  C206  A    
C129  C133  A    
C221  C222  A    
C110  C183  S    
C198  C199  A    
C89   O33   A    
C3    O3    A    
C196  C197  A    
C90   O30   A    
C91   O35   A    
C199  C200  A    
C215  H116  S    
Cu10  O15   S    
C59   C63   A    
C84   C88   A    
C21   H41   S    
C109  C201  S    
C189  C190  A    
C10   N1    A    
C57   C61   A    
C83   C91   S    
C56   C167  S    
C60   C64   A    
C75   N15   A    
C50   C70   A    
C191  H96   S    
C147  O54   S    
C123  O39   A    
C1    O17   A    
C11   C136  S    
C193  H98   S    
C66   C70   A    
C49   C53   A    
Cu9   O6    S    
C51   C55   A    
C226  O67   D    
C127  C131  A    
Cu12  O48   S    
C159  H69   S    
C188  H94   S    
C4    C20   S    
Cu11  O14   S    
C125  C129  A    
C168  C169  A    
C111  C213  S    
C24   H44   S    
Cu11  Cu12  S    
C126  C130  A    
Cu9   O45   S    
C192  C193  A    
C184  C185  A    
C185  H91   S    
C12   N8    A    
C131  H31   S    
C176  O63   D    
N9    N13   A    
C50   H6    S    
C213  C214  A    
C38   C226  S    
Cu6   O42   S    
C7    C143  A    
C205  C206  A    
C189  C194  A    
C74   N9    A    
C161  C166  A    
C27   H47   S    
C64   C68   A    
C71   C123  S    
C211  C212  A    
C25   H45   S    
N11   N15   A    
Cu5   O25   S    
C222  H122  S    
Cu10  O12   S    
C192  H97   S    
C183  C184  A    
C228  O72   S    
C158  H68   S    
C149  C154  A    
C45   O21   A    
C85   C93   A    
C163  H72   S    
C8    C128  A    
C197  C198  A    
C87   C95   A    
C172  H80   S    
C49   H5    S    
C132  C136  A    
C63   H11   S    
C216  H117  S    
C145  O49   D    
C79   C103  A    
C214  H115  S    
C105  C109  S    
C174  O60   S    
C44   C148  S    
C30   C34   A    
C105  C173  S    
C8    C144  A    
C113  O45   A    
C93   H21   S    
C30   C118  S    
N5    N6    A    
C206  H109  S    
C183  C188  A    
Cu3   Cu7   S    
C149  C150  A    
C61   C65   A    
C70   C122  S    
C220  C221  A    
C170  H78   S    
C54   C58   A    
C148  O55   D    
C141  H37   S    
C77   C109  S    
C209  C210  A    
C167  C168  A    
C62   H10   S    
C75   N12   A    
C26   C30   A    
C110  C207  S    
C171  H79   S    
C216  C217  A    
Cu2   O30   S    
C6    C142  A    
C121  O41   A    
C42   C146  S    
C122  O38   A    
C9    N5    A    
Cu6   O18   S    
Cu1   O1    S    
C207  C212  A    
C124  O44   A    
C210  H112  S    
C18   C22   A    
C107  C111  S    
Cu4   Cu8   S    
C169  C170  A    
C53   C57   A    
C14   C34   A    
C103  C107  S    
C144  H40   S    
C146  O52   S    
C87   H19   S    
C1    C17   S    
C157  H67   S    
C88   H20   S    
C13   C17   A    
N7    N8    A    
C208  C209  A    
C15   C43   S    
C150  H61   S    
C74   N14   A    
C201  C202  A    
C16   C36   A    
Cu8   O36   S    
Cu11  O8    S    
C96   C100  A    
C61   H9    S    
C154  H65   S    
C37   C41   S    
C90   O34   A    
C41   C145  S    
C2    O2    A    
O70   H127  S    
C40   C44   S    
C227  O69   D    
C5    C125  A    
O52   H58   S    
Cu1   O37   S    
C84   C92   S    
C7    C127  A    
C97   C114  S    
C219  C224  A    
C81   C85   A    
C118  O14   A    
C58   C62   A    
C83   C87   A    
C88   C96   A    
C93   C97   A    
C78   C102  A    
C10   C133  S    
C80   C84   A    
C13   C41   S    
C177  C178  A    
C193  C194  A    
N1    N2    A    
C190  C191  A    
C15   C19   A    
Cu3   O23   S    
C50   C54   A    
C80   C104  A    
C139  H35   S    
Cu7   O19   S    
C150  C151  A    
C125  H1    S    
C225  O66   S    
C94   C98   A    
C123  O43   A    
C153  C154  A    
C208  H110  S    
Cu10  O46   S    
C185  C186  A    
C21   C25   A    
O64   H84   S    
O50   H57   S    
C51   H7    S    
Cu4   O4    S    
C175  O62   S    
C6    C46   S    
C205  H108  S    
C42   H54   S    
Cu7   O35   S    
C81   C89   S    
C118  O10   A    
O72   H128  S    
C203  H106  S    
C3    O19   A    
C173  O58   S    
C76   N11   A    
C155  C160  A    
C158  C159  A    
C24   C28   A    
C37   H49   S    
C6    C126  A    
Cu11  O47   S    
C138  C142  A    
C151  C152  A    
C108  H28   S    
C190  H95   S    
C204  C205  A    
C98   C113  S    
Cu12  O10   S    
C197  H101  S    
C82   C86   A    
C109  C177  S    
C33   C37   S    
C56   C60   A    
C65   H13   S    
C7    C47   S    
C35   C39   S    
C8    C48   S    
C47   O27   A    
C147  O53   D    
C55   C161  S    
O58   H81   S    
C77   C81   A    
C143  H39   S    
C116  O8    A    
C180  H87   S    
C166  H75   S    
C31   C119  S    
Cu6   O34   S    
C162  H71   S    
C31   C35   A    
C40   C228  S    
C32   C36   A    
C104  C108  S    
C114  O46   A    
C111  C189  S    
C224  H124  S    
Cu1   O21   S    
C137  C141  A    
C165  H74   S    
Cu5   O17   S    
C202  H105  S    
C22   H42   S    
C37   C225  S    
C140  C144  A    
C160  H70   S    
C151  H62   S    
C9    N2    A    
C60   C75   S    
C82   C90   S    
Cu4   O40   S    
C195  C196  A    
C2    O18   A    
Cu5   O41   S    
C209  H111  S    
C64   H12   S    
C163  C164  A    
C79   C83   A    
C68   H16   S    
C187  H93   S    
C5    C45   S    
C65   C69   A    
Cu10  O5    S    
C67   C71   A    
C215  C216  A    
Cu8   O20   S    
Cu12  O13   S    
C122  O42   A    
C165  C166  A    
C108  C112  S    
C207  C208  A    
Cu11  O9    S    
C156  C157  A    
C22   C26   A    
C210  C211  A    
C106  C174  S    
C12   N3    A    
C107  C175  S    
C212  H114  S    
C46   O26   A    
Cu1   Cu5   S    
C203  C204  A    
O60   H82   S    
C115  O7    A    
C2    C18   S    
C170  C171  A    
C14   C18   A    
C19   C23   A    
C186  C187  A    
N3    N4    A    
C119  O11   A    
C120  O12   A    
C174  O59   D    
C221  H121  S    
C204  H107  S    
C73   N10   A    
Cu2   O22   S    
C26   H46   S    
C38   C42   S    
C131  C135  A    
C168  H76   S    
N10   N14   A    
C178  H85   S    
C23   H43   S    
C226  O68   S    
C120  O16   A    
Cu2   O38   S    
C10   N6    A    
C219  C220  A    
C4    O20   A    
C86   C94   A    
C106  H26   S    
O54   H59   S    
C39   H51   S    
C85   H17   S    
C23   C27   A    
C48   O28   A    
C223  H123  S    
C68   C72   A    
C14   C42   S    
C41   H53   S    
C9    C134  S    
C179  H86   S    
C176  O64   S    
Cu3   O31   S    
C138  H34   S    
C139  C143  A    
C32   C120  S    
C128  C132  A    
C15   C35   A    
C92   O32   A    
C126  H2    S    
C101  C105  S    
C200  H104  S    
C63   C67   A    
C28   H48   S    
C20   C24   A    
C36   C40   S    
C91   O31   A    
Cu3   O39   S    
C196  H100  S    
C54   C155  S    
C217  C218  A    
C39   C43   S    
C67   H15   S    
C146  O51   D    
C29   C117  S    
C107  H27   S    
C44   H56   S    
C57   C74   S    
C112  C219  S    
C164  C165  A    
C1    O1    A    
C5    C141  A    
C69   C121  S    
C182  H89   S    
C78   C110  S    
C92   O36   A    
C108  C176  S    
C39   C227  S    
C191  C192  A    
C184  H90   S    
C137  H33   S    
C95   H23   S    
C155  C156  A    
C52   H8    S    
C211  H113  S    
C178  C179  A    
C145  O50   S    
C140  H36   S    
C127  H3    S    
C159  C160  A    
C128  H4    S    
Cu7   O27   S    
Cu2   O2    S    
C181  H88   S    
C152  C153  A    
C38   H50   S    
C34   C38   S    
C47   O23   A    
C66   H14   S    
C177  C182  A    
Cu1   O29   S    
C134  C138  A    
C130  H30   S    
C217  H118  S    
C79   C111  S    
C105  H25   S    
C213  C218  A    
C175  O61   D    
C161  C162  A    
O66   H125  S    
O62   H83   S    
C73   N13   A    
C152  H63   S    
Cu7   O43   S    
C225  O65   D    
Cu8   O44   S    
C59   C76   S    
C180  C181  A    
C148  O56   S    
C194  H99   S    
C102  C106  S    
C228  O71   D    
C115  O47   A    
C106  C110  S    
C222  C223  A    
Cu9   O16   S    
C167  C172  A    
C199  H103  S    
C202  C203  A    
Cu9   Cu10  S    
C119  O15   A    
C97   C101  A    
C52   C56   A    
C58   C73   S    
C45   O25   A    
C43   C147  S    
C117  O13   A    
