data_mof_unit_54356.cif
_audit_creation_date              2012-12-10T18:58:42-0500
_audit_creation_method            fapswitch 2.2
_symmetry_space_group_name_H-M    P1
_symmetry_Int_Tables_number       1
_space_group_crystal_system       triclinic
_cell_length_a                    12.907792
_cell_length_b                    10.803986
_cell_length_c                    9.679577
_cell_angle_alpha                 89.702092
_cell_angle_beta                  97.475505
_cell_angle_gamma                 90.904492
_cell_volume                      1338.2246215

loop_
_atom_site_label
_atom_site_type_symbol
_atom_type_description
_atom_site_fract_x
_atom_site_fract_y
_atom_site_fract_z
_atom_type_partial_charge
C1    C     C_R   0.501427 0.263183 0.500480 0.793789
C2    C     C_R   0.027422 0.466045 0.555446 0.177128
C3    C     C_R   0.973569 0.543514 0.452993 0.177758
C4    C     C_R   0.866717 0.559191 0.450268 -0.274118
C5    C     C_R   0.866264 0.422353 0.649948 -0.207414
C6    C     C_R   0.973681 0.407382 0.654986 -0.214900
C7    C     C_R   0.433224 0.062982 0.571169 0.034237
C8    C     C_R   0.502346 0.129983 0.498920 -0.150067
C9    C     C_R   0.564538 0.065659 0.413905 0.233509
C10   C     C_R   0.561012 0.936173 0.412889 -0.249015
C11   C     C_R   0.498077 0.870472 0.496573 -0.125883
C12   C     C_R   0.300777 0.501764 0.472988 0.796311
C13   C     C_R   0.430554 0.935574 0.569514 0.047431
C14   C     C_3   0.407319 0.925182 0.716475 -0.475593
C15   C     C_3   0.410319 0.066699 0.719098 0.099571
C16   C     C_R   0.590992 0.498184 0.087853 0.175533
C17   C     C_R   0.408515 0.484302 0.053243 0.142326
C18   C     C_R   0.410599 0.488982 0.907097 -0.098544
C19   C     C_R   0.590974 0.493801 0.942084 0.187777
C20   C     C_3   0.684968 0.575533 0.944296 -0.461379
C21   C     C_3   0.682134 0.587390 0.100733 0.034183
C22   C     C_R   0.499823 0.737084 0.499619 0.810261
C23   C     C_R   0.699258 0.500056 0.527619 0.777007
C24   C     C_R   0.812558 0.496008 0.545503 -0.038576
C25   C     C_R   0.187700 0.509917 0.458709 -0.042399
C26   C     C_R   0.027280 0.603663 0.354635 -0.212775
C27   C     C_R   0.134299 0.587610 0.358200 -0.218886
C28   C     C_R   0.134195 0.449393 0.557091 -0.274716
Cu1   Cu    Cu3+1 0.499990 0.499980 0.640670 0.937312
Cu2   Cu    Cu3+1 0.500010 0.500020 0.359330 0.918781
H1    H     H_    0.825467 0.620125 0.373751 0.126339
H2    H     H_    0.470146 0.878805 0.785566 0.210315
H3    H     H_    0.332918 0.108156 0.726773 0.100135
H4    H     H_    0.339125 0.480176 0.836679 0.152049
H5    H     H_    0.753462 0.522771 0.919636 0.158452
H6    H     H_    0.671438 0.661266 0.881381 0.216222
H7    H     H_    0.753051 0.548611 0.161802 0.117867
H8    H     H_    0.824655 0.373199 0.724158 0.143686
H9    H     H_    0.986855 0.664214 0.276530 0.139966
H10   H     H_    0.014274 0.348582 0.734776 0.131003
H11   H     H_    0.175662 0.639541 0.286172 0.136235
H12   H     H_    0.176115 0.390578 0.635963 0.133268
H13   H     H_    0.613609 0.887549 0.355199 0.168664
H14   H     H_    0.327850 0.885858 0.721766 0.166219
N1    N     N_R   0.500660 0.500930 0.148010 -0.190653
N2    N     N_R   0.500660 0.500890 0.852110 -0.186876
O1    O     O_R   0.500000 0.319640 0.618810 -0.541969
O2    O     O_R   0.500010 0.319680 0.381230 -0.590748
O3    O     O_R   0.348990 0.499960 0.599490 -0.593892
O4    O     O_R   0.349000 0.500000 0.361910 -0.591917
O5    O     O_R   0.499990 0.680320 0.618770 -0.576852
O6    O     O_R   0.500000 0.680360 0.381190 -0.587895
O7    O     O_R   0.651000 0.500000 0.638090 -0.580493
O8    O     O_R   0.651010 0.500040 0.400510 -0.590898
N3    N     N_2   0.493411 0.122278 0.817305 -0.379773
H15   H     H_    0.469815 0.144028 0.911834 0.236121
C29   C     C_3   0.599441 0.076680 0.829320 -0.646653
H16   H     H_    0.654032 0.149561 0.877071 0.212912
H17   H     H_    0.622839 0.053559 0.726603 0.238275
H18   H     H_    0.607512 0.993716 0.897426 0.205535
C30   C     C_3   0.299290 0.455282 0.088686 -0.337989
C31   C     C_3   0.287506 0.320530 0.137173 -0.300994
C32   C     C_3   0.173900 0.286960 0.150705 -0.882903
H19   H     H_    0.143232 0.348617 0.226590 0.273147
H20   H     H_    0.124640 0.295166 0.048135 0.247620
H21   H     H_    0.168844 0.189914 0.187903 0.240914
H22   H     H_    0.315164 0.257248 0.059866 0.187980
H23   H     H_    0.334997 0.303394 0.238184 0.259663
H24   H     H_    0.270378 0.528008 0.151446 0.205573
H25   H     H_    0.240368 0.464121 0.994577 0.143788
N4    N     N_2   0.659316 0.711886 0.144638 -0.396457
H26   H     H_    0.675193 0.723687 0.250711 0.255792
C33   C     C_3   0.565226 0.773956 0.082917 -0.634340
H27   H     H_    0.574329 0.874491 0.102828 0.206317
H28   H     H_    0.496139 0.740235 0.129509 0.247320
H29   H     H_    0.550121 0.760765 0.969026 0.214044
N5    N     N_2   0.639621 0.128083 0.342031 -0.419457
H30   H     H_    0.674494 0.206630 0.388442 0.253104
C34   C     C_3   0.615228 0.135377 0.191999 -0.663115
H31   H     H_    0.680015 0.094683 0.143391 0.226004
H32   H     H_    0.606661 0.233595 0.158716 0.224603
H33   H     H_    0.541279 0.085156 0.153820 0.216096

loop_
_geom_bond_atom_site_label_1
_geom_bond_atom_site_label_2
_ccdc_geom_bond_type
C30   H25   S    
N3    H15   S    
C32   H20   S    
C16   C21   S    
C1    C8    S    
C33   H27   S    
Cu2   N1    S    
C19   C20   S    
C12   O3    A    
C19   N2    A    
C7    C8    A    
Cu1   O3    S    
N5    H30   S    
C25   C28   A    
Cu2   O8    S    
C26   C27   A    
Cu1   Cu2   S    
C31   H22   S    
Cu1   O1    S    
Cu2   O2    S    
C17   N1    A    
C5    C6    A    
C4    C24   A    
C26   H9    S    
C29   H17   S    
C17   C30   S    
C20   H5    S    
C8    C9    A    
C23   C24   S    
C9    C10   A    
C7    C15   S    
Cu2   O4    S    
C32   H21   S    
C13   C14   S    
C33   H28   S    
C2    C6    A    
C18   N2    A    
C23   O7    A    
N5    C34   S    
C34   H32   S    
C1    O1    A    
C29   H18   S    
C34   H31   S    
C15   N3    S    
C31   C32   S    
C27   H11   S    
C17   C18   A    
C9    N5    S    
C18   H4    S    
C21   N4    S    
N3    C29   S    
C33   H29   S    
C6    H10   S    
C3    C4    A    
C23   O8    A    
C22   O6    A    
Cu1   O5    S    
C30   H24   S    
Cu2   O6    S    
C10   H13   S    
C3    C26   A    
C14   H2    S    
C16   N1    A    
C34   H33   S    
C12   O4    A    
C1    O2    A    
C25   C27   A    
C12   C25   S    
C11   C22   S    
C31   H23   S    
Cu1   N2    S    
C2    C3    A    
N4    H26   S    
C11   C13   A    
C29   H16   S    
C5    C24   A    
Cu1   O7    S    
C16   C19   A    
C28   H12   S    
C14   H14   S    
C30   C31   S    
C4    H1    S    
C10   C11   A    
C32   H19   S    
C20   H6    S    
C7    C13   A    
C21   H7    S    
C20   C21   S    
N4    C33   S    
C14   C15   S    
C2    C28   A    
C5    H8    S    
C15   H3    S    
C22   O5    A    
