data_mof_unit_48639.cif
_audit_creation_date              2012-12-10T19:44:17-0500
_audit_creation_method            fapswitch 2.2
_symmetry_space_group_name_H-M    P1
_symmetry_Int_Tables_number       1
_space_group_crystal_system       triclinic
_cell_length_a                    18.319331
_cell_length_b                    18.308914
_cell_length_c                    34.242936
_cell_angle_alpha                 89.949153
_cell_angle_beta                  89.926477
_cell_angle_gamma                 90.004401
_cell_volume                      11485.3083325

loop_
_atom_site_label
_atom_site_type_symbol
_atom_type_description
_atom_site_fract_x
_atom_site_fract_y
_atom_site_fract_z
_atom_type_partial_charge
C1    C     C_R   0.999992 0.500258 0.894281 0.806780
C2    C     C_R   0.501056 0.067525 0.290619 0.043457
C3    C     C_R   0.309348 0.799252 0.003387 -0.180460
C4    C     C_R   0.699760 0.192131 0.503313 -0.174739
C5    C     C_R   0.807661 0.699501 0.503179 -0.172337
C6    C     C_R   0.300242 0.807776 0.503313 -0.173538
C7    C     C_R   0.192347 0.300519 0.503168 -0.172364
C8    C     C_R   0.299479 0.190943 0.503428 -0.180491
C9    C     C_R   0.190333 0.700993 0.503582 -0.181375
C10   C     C_R   0.700548 0.809066 0.503422 -0.181106
C11   C     C_R   0.809346 0.299238 0.503652 -0.182114
C12   C     C_R   0.220280 0.725184 0.039033 0.148965
C13   C     C_R   0.933172 0.511695 0.290861 0.021202
C14   C     C_R   0.272260 0.217794 0.038964 0.148539
C15   C     C_R   0.778930 0.275288 0.038857 0.149352
C16   C     C_R   0.727985 0.782516 0.038777 0.147872
C17   C     C_R   0.781711 0.726976 0.038964 0.118736
C18   C     C_R   0.722931 0.221934 0.038988 0.121190
C19   C     C_R   0.218615 0.273456 0.039150 0.118689
C20   C     C_R   0.276264 0.778587 0.039208 0.121240
C21   C     C_R   0.717973 0.227374 0.538931 0.148947
C22   C     C_R   0.772742 0.718294 0.538849 0.148261
C23   C     C_R   0.280400 0.773782 0.539106 0.148310
C24   C     C_R   0.499126 0.932571 0.290657 0.043574
C25   C     C_R   0.227276 0.281779 0.538817 0.148415
C26   C     C_R   0.280906 0.226118 0.539001 0.119196
C27   C     C_R   0.224299 0.720494 0.539304 0.121009
C28   C     C_R   0.719107 0.773950 0.539023 0.119342
C29   C     C_R   0.773624 0.281049 0.539162 0.120075
C30   C     C_3   0.277325 0.782761 0.929543 -0.468271
C31   C     C_3   0.222812 0.281945 0.929641 -0.478839
C32   C     C_3   0.726175 0.214543 0.929412 -0.469067
C33   C     C_3   0.777639 0.718276 0.929412 -0.470514
C34   C     C_3   0.719525 0.777482 0.929310 -0.469396
C35   C     C_R   0.499369 0.998764 0.770351 -0.081390
C36   C     C_3   0.785504 0.272554 0.929331 -0.482056
C37   C     C_3   0.280997 0.222840 0.929513 -0.465724
C38   C     C_3   0.218103 0.724689 0.929445 -0.485465
C39   C     C_3   0.782213 0.277947 0.429624 -0.465579
C40   C     C_3   0.721019 0.780248 0.429376 -0.468509
C41   C     C_3   0.220432 0.719939 0.429630 -0.467502
C42   C     C_3   0.279112 0.219696 0.429376 -0.472316
C43   C     C_3   0.221027 0.278934 0.429273 -0.471994
C44   C     C_3   0.279732 0.777913 0.429527 -0.484599
C45   C     C_3   0.779153 0.721051 0.429282 -0.477437
C46   C     C_R   0.988002 0.499899 0.770378 -0.104949
C47   C     C_3   0.722956 0.219938 0.429491 -0.482951
C48   C     C_R   0.435300 0.018412 0.831937 0.104471
C49   C     C_R   0.993887 0.433815 0.831836 0.121865
C50   C     C_R   0.564065 0.980896 0.831846 0.104603
C51   C     C_R   0.000640 0.567147 0.831663 0.118755
C52   C     C_R   0.934968 0.517357 0.332010 0.092576
C53   C     C_R   0.491793 0.933725 0.331716 0.123674
C54   C     C_R   0.064049 0.480808 0.331923 0.112503
C55   C     C_R   0.508530 0.066309 0.331663 0.123433
C56   C     C_R   0.499789 0.999932 0.851944 -0.105322
C57   C     C_R   0.999589 0.499629 0.270414 -0.092611
C58   C     C_R   0.998890 0.500503 0.851776 -0.132684
C59   C     C_R   0.999827 0.500011 0.351996 -0.119530
C60   C     C_R   0.500151 0.000007 0.351847 -0.150533
C61   C     C_3   0.123150 0.740362 0.087343 -0.699318
C62   C     C_3   0.253219 0.117783 0.085208 -0.689712
C63   C     C_3   0.874587 0.261390 0.087981 -0.699936
C64   C     C_3   0.747132 0.882471 0.084925 -0.687165
C65   C     C_3   0.876942 0.751443 0.087251 -0.710022
C66   C     C_3   0.740573 0.133900 0.091961 -0.716489
C67   C     C_3   0.123989 0.249457 0.088012 -0.710919
C68   C     C_R   0.500051 0.000064 0.270190 -0.112640
C69   C     C_3   0.257196 0.867557 0.091550 -0.716394
C70   C     C_3   0.618549 0.245721 0.585598 -0.694262
C71   C     C_3   0.754840 0.619210 0.585789 -0.692818
C72   C     C_3   0.378648 0.756915 0.586490 -0.697029
C73   C     C_3   0.245371 0.380930 0.585568 -0.691030
C74   C     C_3   0.374441 0.249110 0.588446 -0.711590
C75   C     C_3   0.244522 0.629905 0.590790 -0.713844
C76   C     C_3   0.625553 0.750979 0.588604 -0.712139
C77   C     C_3   0.749882 0.374959 0.588381 -0.713910
C78   C     C_3   0.338006 0.014970 0.882867 -0.791659
C79   C     C_R   0.632077 0.983608 0.769149 0.058005
C80   C     C_3   0.089571 0.353036 0.853549 -0.795379
C81   C     C_3   0.661861 0.987011 0.882245 -0.791220
C82   C     C_3   0.093273 0.652273 0.852759 -0.809856
C83   C     C_3   0.838886 0.507852 0.382948 -0.797603
C84   C     C_3   0.396429 0.849919 0.350780 -0.808505
C85   C     C_3   0.161773 0.484798 0.382502 -0.788857
C86   C     C_3   0.604005 0.149957 0.350585 -0.807599
C87   C     C_3   0.702059 0.018514 0.784762 -0.410348
C88   C     C_3   0.688985 0.097808 0.797968 -0.300052
C89   C     C_3   0.759109 0.132911 0.812840 -0.931196
C90   C     C_R   0.993106 0.633837 0.768806 0.083162
C91   C     C_3   0.957326 0.703577 0.784548 -0.400686
C92   C     C_3   0.880207 0.689374 0.800854 -0.323451
C93   C     C_3   0.844599 0.759954 0.815052 -0.910942
C94   C     C_3   0.296124 0.981171 0.785895 -0.410816
C95   C     C_3   0.307560 0.902434 0.800519 -0.304982
C96   C     C_3   0.237127 0.870291 0.817122 -0.913264
C97   C     C_3   0.922579 0.304756 0.793410 -0.367292
C98   C     C_3   0.975664 0.240018 0.799384 -0.297730
C99   C     C_3   0.957649 0.196502 0.836251 -0.900117
C100  C     C_3   0.203329 0.514694 0.285074 -0.410926
C101  C     C_R   0.366629 0.014076 0.769464 0.059421
C102  C     C_3   0.193199 0.594004 0.298998 -0.305643
C103  C     C_3   0.264329 0.625674 0.314867 -0.913202
C104  C     C_3   0.459087 0.202146 0.286610 -0.401650
C105  C     C_3   0.383845 0.185007 0.304573 -0.323901
C106  C     C_3   0.347078 0.254052 0.320038 -0.912928
C107  C     C_3   0.794715 0.489477 0.285267 -0.392792
C108  C     C_3   0.801218 0.408776 0.297455 -0.310667
C109  C     C_3   0.729811 0.380190 0.314704 -0.912429
C110  C     C_3   0.540904 0.797887 0.286583 -0.401654
C111  C     C_3   0.616261 0.814895 0.304318 -0.326543
C112  C     C_R   0.499908 0.000014 0.894319 0.904022
C113  C     C_R   0.956804 0.368715 0.770805 0.068849
C114  C     C_3   0.653007 0.745780 0.319721 -0.907437
C115  C     C_3   0.193182 0.424340 0.210002 -0.446081
C116  C     C_3   0.173388 0.346063 0.197630 -0.328944
C117  C     C_3   0.238797 0.307386 0.179233 -0.899107
C118  C     C_3   0.543392 0.202747 0.209458 -0.442454
C119  C     C_3   0.623162 0.193136 0.196214 -0.328477
C120  C     C_3   0.651451 0.261589 0.175681 -0.898615
C121  C     C_3   0.808158 0.579614 0.210144 -0.442550
C122  C     C_3   0.830610 0.657176 0.197668 -0.327374
C123  C     C_3   0.766113 0.698615 0.180121 -0.900209
C124  C     C_R   0.132174 0.482402 0.269229 0.059990
C125  C     C_3   0.456105 0.797557 0.209706 -0.442775
C126  C     C_3   0.376341 0.807474 0.196603 -0.328241
C127  C     C_3   0.347851 0.739281 0.176011 -0.898831
C128  C     C_3   0.694359 0.927204 0.709909 -0.445667
C129  C     C_3   0.676147 0.848715 0.697236 -0.328956
C130  C     C_3   0.742416 0.811470 0.678876 -0.898664
C131  C     C_3   0.050535 0.698570 0.710484 -0.443086
C132  C     C_3   0.131183 0.684681 0.700242 -0.327082
C133  C     C_3   0.165162 0.750848 0.680033 -0.899040
C134  C     C_3   0.304185 0.069438 0.709879 -0.444808
C135  C     C_R   0.495688 0.134151 0.269249 0.082430
C136  C     C_3   0.322056 0.148001 0.697051 -0.330211
C137  C     C_3   0.256459 0.183897 0.677351 -0.899861
C138  C     C_3   0.927193 0.302732 0.706356 -0.426716
C139  C     C_3   0.848935 0.314360 0.691491 -0.337169
C140  C     C_3   0.820151 0.246307 0.670908 -0.900294
C141  C     C_R   0.867108 0.518759 0.269267 0.081576
C142  C     C_R   0.504309 0.865968 0.269307 0.082693
C143  C     C_R   0.128609 0.462836 0.229426 0.056388
C144  C     C_R   0.514251 0.133602 0.229187 0.041868
C145  C     C_R   0.871375 0.538797 0.229492 0.044832
C146  C     C_R   0.485537 0.866601 0.229306 0.041800
C147  C     C_R   0.628939 0.964187 0.729341 0.056708
C148  C     C_R   0.500046 0.999999 0.394299 0.801936
C149  C     C_R   0.015547 0.631443 0.729446 0.041407
C150  C     C_R   0.369631 0.032855 0.729480 0.056126
C151  C     C_R   0.954361 0.369380 0.729133 0.052089
C152  C     C_R   0.063649 0.478734 0.208734 0.089664
C153  C     C_R   0.508671 0.066859 0.208548 0.090115
C154  C     C_R   0.936079 0.521741 0.208769 0.086299
C155  C     C_R   0.491156 0.933349 0.208615 0.090049
C156  C     C_R   0.563741 0.978992 0.708658 0.087812
C157  C     C_R   0.007297 0.564871 0.708908 0.090271
C158  C     C_R   0.434974 0.018343 0.708729 0.087774
C159  C     C_R   0.999974 0.500019 0.394334 0.897875
C160  C     C_R   0.974927 0.433941 0.708668 0.082154
C161  C     C_R   0.999743 0.499995 0.229320 0.018626
C162  C     C_R   0.499962 0.000092 0.229152 0.014828
C163  C     C_R   0.499329 0.998630 0.729258 0.019083
C164  C     C_R   0.989238 0.499546 0.729352 0.017171
C165  C     C_R   0.061966 0.477778 0.167815 -0.269888
C166  C     C_R   0.508601 0.065481 0.167619 -0.268316
C167  C     C_R   0.937805 0.522464 0.167840 -0.267348
C168  C     C_R   0.491165 0.934730 0.167692 -0.268097
C169  C     C_R   0.562297 0.978718 0.667748 -0.269136
C170  C     C_R   0.565800 0.987286 0.790715 0.001210
C171  C     C_R   0.012941 0.562859 0.668122 -0.266836
C172  C     C_R   0.436811 0.019498 0.667795 -0.270150
C173  C     C_R   0.979468 0.435505 0.667603 -0.262266
C174  C     C_R   0.999859 0.499959 0.147880 -0.016887
C175  C     C_R   0.499878 0.000099 0.147751 -0.014215
C176  C     C_R   0.499739 0.999615 0.647842 -0.015005
C177  C     C_R   0.999100 0.498887 0.647964 -0.016856
C178  C     C_R   0.999942 0.499978 0.105682 0.804736
C179  C     C_R   0.499959 0.000056 0.105632 0.804614
C180  C     C_R   0.499931 0.999933 0.605668 0.804893
C181  C     C_R   0.994082 0.567583 0.790578 0.042545
C182  C     C_R   0.999893 0.499605 0.605700 0.802841
C183  C     C_R   0.859281 0.639308 0.000605 0.821655
C184  C     C_R   0.360770 0.859220 0.000610 0.821610
C185  C     C_R   0.140818 0.360745 0.000649 0.824460
C186  C     C_R   0.639305 0.140703 0.000500 0.821398
C187  C     C_R   0.140614 0.639559 0.000539 0.850442
C188  C     C_R   0.639577 0.859464 0.000527 0.842104
C189  C     C_R   0.859520 0.360338 0.000490 0.847720
C190  C     C_R   0.360465 0.140620 0.000586 0.842713
C191  C     C_R   0.359281 0.139302 0.500591 0.821050
C192  C     C_R   0.433085 0.010734 0.790857 0.001036
C193  C     C_R   0.860784 0.359193 0.500672 0.822462
C194  C     C_R   0.640742 0.860679 0.500585 0.821932
C195  C     C_R   0.139119 0.640873 0.500658 0.823120
C196  C     C_R   0.640614 0.139557 0.500549 0.848630
C197  C     C_R   0.139585 0.359467 0.500517 0.842572
C198  C     C_R   0.359386 0.860427 0.500587 0.849049
C199  C     C_R   0.860398 0.640552 0.500524 0.845389
C200  C     C_R   0.241529 0.705812 0.969980 0.098588
C201  C     C_R   0.296693 0.243727 0.970812 0.094642
C202  C     C_R   0.760330 0.292726 0.969427 0.097737
C203  C     C_R   0.980159 0.433100 0.791112 0.022524
C204  C     C_R   0.703715 0.756592 0.970651 0.095041
C205  C     C_R   0.756208 0.703137 0.970756 0.109508
C206  C     C_R   0.706775 0.240301 0.969488 0.111153
C207  C     C_R   0.244203 0.297179 0.970908 0.112354
C208  C     C_R   0.294955 0.758335 0.970068 0.111989
C209  C     C_R   0.743755 0.203624 0.470734 0.098346
C210  C     C_R   0.795686 0.742750 0.470381 0.096421
C211  C     C_R   0.257467 0.795409 0.470425 0.099173
C212  C     C_R   0.204376 0.257251 0.470406 0.095574
C213  C     C_R   0.256859 0.203784 0.470506 0.110470
C214  C     C_R   0.065900 0.487197 0.290799 0.001292
C215  C     C_R   0.203951 0.742995 0.470515 0.110774
C216  C     C_R   0.743199 0.796202 0.470469 0.110016
C217  C     C_R   0.797207 0.256117 0.470873 0.110793
C218  C     C_R   0.199685 0.692245 0.003143 -0.173057
C219  C     C_R   0.307896 0.199718 0.003383 -0.173049
C220  C     C_R   0.800759 0.307328 0.002903 -0.171489
C221  C     C_R   0.692311 0.800503 0.003230 -0.172577
C222  C     C_R   0.799505 0.690978 0.003501 -0.180640
C223  C     C_R   0.690937 0.200489 0.003081 -0.179112
C224  C     C_R   0.200779 0.309292 0.003641 -0.181595
H1    H     H_    0.255621 0.839467 0.928450 0.191399
H2    H     H_    0.664474 0.758503 0.427211 0.191172
H3    H     H_    0.574269 0.783309 0.588146 0.250574
H4    H     H_    0.849641 0.321397 0.579252 0.220531
H5    H     H_    0.732502 0.364984 0.618945 0.218777
H6    H     H_    0.700532 0.382545 0.569934 0.235526
H7    H     H_    0.782106 0.426329 0.587829 0.250037
H8    H     H_    0.349143 0.094765 0.838136 0.220853
H9    H     H_    0.278724 0.014337 0.876325 0.219078
H10   H     H_    0.345793 0.043401 0.911167 0.236190
H11   H     H_    0.356952 0.957603 0.885757 0.235026
H12   H     H_    0.986912 0.362155 0.878813 0.209008
H13   H     H_    0.242010 0.663249 0.427836 0.191513
H14   H     H_    0.098348 0.297581 0.865775 0.230583
H15   H     H_    0.117947 0.393283 0.872395 0.257453
H16   H     H_    0.113725 0.354895 0.823774 0.242299
H17   H     H_    0.651190 0.905763 0.838360 0.222051
H18   H     H_    0.721077 0.987958 0.875449 0.219874
H19   H     H_    0.654616 0.959600 0.910909 0.235426
H20   H     H_    0.642429 0.044311 0.884532 0.235492
H21   H     H_    0.992266 0.637670 0.879415 0.214860
H22   H     H_    0.099821 0.706875 0.866343 0.229282
H23   H     H_    0.115164 0.655096 0.822516 0.248056
H24   H     H_    0.335678 0.241397 0.427133 0.191605
H25   H     H_    0.125024 0.611635 0.869829 0.258097
H26   H     H_    0.881585 0.604309 0.358719 0.231098
H27   H     H_    0.778917 0.512664 0.379433 0.230083
H28   H     H_    0.853297 0.530074 0.412114 0.224692
H29   H     H_    0.853904 0.449117 0.381886 0.241735
H30   H     H_    0.494821 0.863601 0.380127 0.215119
H31   H     H_    0.388074 0.795419 0.364237 0.230414
H32   H     H_    0.377571 0.847073 0.319988 0.246830
H33   H     H_    0.363449 0.891014 0.366860 0.255802
H34   H     H_    0.149444 0.403634 0.338610 0.221200
H35   H     H_    0.243795 0.335102 0.426999 0.192553
H36   H     H_    0.220975 0.485065 0.375677 0.219703
H37   H     H_    0.154203 0.456935 0.411017 0.236083
H38   H     H_    0.143053 0.542284 0.385113 0.234687
H39   H     H_    0.505535 0.136406 0.380020 0.215076
H40   H     H_    0.612442 0.204403 0.364030 0.229748
H41   H     H_    0.622903 0.152846 0.319773 0.246640
H42   H     H_    0.636902 0.108784 0.366653 0.255826
H43   H     H_    0.780648 0.101836 0.838204 0.263862
H44   H     H_    0.800881 0.134258 0.789298 0.262683
H45   H     H_    0.747835 0.189827 0.822277 0.254109
H46   H     H_    0.335831 0.754942 0.427777 0.190540
H47   H     H_    0.668206 0.130303 0.772880 0.215688
H48   H     H_    0.647617 0.100444 0.821553 0.233079
H49   H     H_    0.726772 0.985233 0.808148 0.206652
H50   H     H_    0.744279 0.022413 0.761633 0.189946
H51   H     H_    0.877825 0.784914 0.838650 0.263910
H52   H     H_    0.839049 0.799430 0.790575 0.256750
H53   H     H_    0.789369 0.747859 0.826809 0.253993
H54   H     H_    0.845599 0.665105 0.777577 0.217066
H55   H     H_    0.881650 0.650532 0.825687 0.229863
H56   H     H_    0.992533 0.730882 0.806381 0.229723
H57   H     H_    0.756465 0.664850 0.427073 0.193654
H58   H     H_    0.949279 0.743874 0.760739 0.185294
H59   H     H_    0.217696 0.903398 0.842228 0.261384
H60   H     H_    0.194072 0.868753 0.794322 0.258556
H61   H     H_    0.247308 0.813674 0.827434 0.254797
H62   H     H_    0.326264 0.867762 0.775807 0.215424
H63   H     H_    0.349973 0.900075 0.823510 0.233334
H64   H     H_    0.272111 0.016305 0.808719 0.205403
H65   H     H_    0.253749 0.976517 0.762966 0.188948
H66   H     H_    0.963417 0.230907 0.862705 0.266157
H67   H     H_    0.901017 0.175470 0.834869 0.265774
H68   H     H_    0.666929 0.242842 0.427051 0.190341
H69   H     H_    0.995585 0.149454 0.838838 0.242658
H70   H     H_    0.973105 0.201607 0.774469 0.187089
H71   H     H_    0.032896 0.259218 0.801007 0.242590
H72   H     H_    0.900451 0.324113 0.821750 0.207723
H73   H     H_    0.872356 0.285161 0.778657 0.174162
H74   H     H_    0.283756 0.593034 0.340151 0.261231
H75   H     H_    0.307005 0.625975 0.291791 0.258762
H76   H     H_    0.255075 0.682714 0.324713 0.254003
H77   H     H_    0.174568 0.628178 0.274066 0.215200
H78   H     H_    0.151190 0.597624 0.322209 0.232591
H79   H     H_    0.322419 0.771099 0.908710 0.209786
H80   H     H_    0.227122 0.479869 0.308098 0.206002
H81   H     H_    0.245527 0.518009 0.261915 0.189220
H82   H     H_    0.381250 0.279548 0.343079 0.263686
H83   H     H_    0.338390 0.293889 0.295997 0.257138
H84   H     H_    0.293201 0.239882 0.332879 0.255236
H85   H     H_    0.348217 0.160061 0.281950 0.218075
H86   H     H_    0.388502 0.145795 0.329113 0.230812
H87   H     H_    0.495274 0.229641 0.307919 0.229057
H88   H     H_    0.447701 0.243097 0.263552 0.185987
H89   H     H_    0.714681 0.411946 0.341111 0.262041
H90   H     H_    0.235715 0.328387 0.909874 0.210372
H91   H     H_    0.685183 0.384195 0.292875 0.258053
H92   H     H_    0.736439 0.321992 0.323161 0.253978
H93   H     H_    0.815416 0.375434 0.271398 0.213360
H94   H     H_    0.845167 0.400889 0.319235 0.233646
H95   H     H_    0.773687 0.524122 0.309190 0.227011
H96   H     H_    0.751487 0.489862 0.262688 0.180392
H97   H     H_    0.618903 0.720290 0.342864 0.263195
H98   H     H_    0.661538 0.705972 0.295676 0.257437
H99   H     H_    0.706956 0.759863 0.332415 0.255501
H100  H     H_    0.651808 0.839817 0.281579 0.218207
H101  H     H_    0.682014 0.225535 0.907963 0.209007
H102  H     H_    0.611780 0.854087 0.328847 0.230942
H103  H     H_    0.504803 0.770391 0.308008 0.229103
H104  H     H_    0.552085 0.756968 0.263501 0.185930
H105  H     H_    0.256267 0.336394 0.152292 0.264566
H106  H     H_    0.285130 0.305315 0.200108 0.257863
H107  H     H_    0.223601 0.250540 0.171466 0.249450
H108  H     H_    0.155543 0.314610 0.223748 0.220881
H109  H     H_    0.127865 0.345840 0.176300 0.228385
H110  H     H_    0.213384 0.456772 0.184789 0.195234
H111  H     H_    0.239667 0.418398 0.230447 0.199139
H112  H     H_    0.166354 0.260118 0.927191 0.189739
H113  H     H_    0.764609 0.671859 0.909712 0.210227
H114  H     H_    0.618855 0.272683 0.148993 0.261954
H115  H     H_    0.648328 0.309473 0.195514 0.258391
H116  H     H_    0.709314 0.253460 0.167025 0.251419
H117  H     H_    0.657876 0.182071 0.222173 0.219534
H118  H     H_    0.629118 0.146342 0.175913 0.229710
H119  H     H_    0.507762 0.218452 0.184621 0.196043
H120  H     H_    0.544092 0.249838 0.229741 0.199015
H121  H     H_    0.746715 0.670772 0.153258 0.265088
H122  H     H_    0.720547 0.702053 0.201483 0.258412
H123  H     H_    0.783150 0.755009 0.172446 0.248785
H124  H     H_    0.673024 0.765174 0.909557 0.213604
H125  H     H_    0.850616 0.687635 0.223619 0.222016
H126  H     H_    0.875302 0.655798 0.175794 0.228340
H127  H     H_    0.786752 0.547973 0.184988 0.194358
H128  H     H_    0.761985 0.587361 0.230645 0.200006
H129  H     H_    0.380517 0.728218 0.149309 0.261578
H130  H     H_    0.350682 0.691260 0.195803 0.258031
H131  H     H_    0.290067 0.747739 0.167357 0.251816
H132  H     H_    0.341677 0.818421 0.222632 0.219479
H133  H     H_    0.370475 0.854445 0.176376 0.229862
H134  H     H_    0.491632 0.781727 0.184816 0.196070
H135  H     H_    0.775524 0.316937 0.907819 0.207990
H136  H     H_    0.455283 0.750473 0.230044 0.198790
H137  H     H_    0.759576 0.841112 0.652075 0.264182
H138  H     H_    0.788591 0.809999 0.699865 0.258035
H139  H     H_    0.728332 0.754450 0.670874 0.249603
H140  H     H_    0.658664 0.816630 0.723204 0.221016
H141  H     H_    0.630824 0.847924 0.675787 0.228448
H142  H     H_    0.714086 0.960314 0.684841 0.194982
H143  H     H_    0.740791 0.921989 0.730460 0.199206
H144  H     H_    0.136442 0.762339 0.652143 0.263262
H145  H     H_    0.161949 0.799650 0.699213 0.258393
H146  H     H_    0.327530 0.235235 0.909723 0.214169
H147  H     H_    0.223486 0.739647 0.673513 0.250116
H148  H     H_    0.162030 0.673166 0.727512 0.219959
H149  H     H_    0.137391 0.636746 0.680737 0.228798
H150  H     H_    0.018912 0.715522 0.684359 0.195907
H151  H     H_    0.050909 0.746038 0.730541 0.198427
H152  H     H_    0.241663 0.153698 0.650376 0.264257
H153  H     H_    0.208849 0.184713 0.697468 0.257008
H154  H     H_    0.270087 0.241078 0.669382 0.250388
H155  H     H_    0.337396 0.180729 0.723121 0.219435
H156  H     H_    0.368717 0.149320 0.676391 0.229058
H157  H     H_    0.229093 0.679632 0.908520 0.211022
H158  H     H_    0.284946 0.036047 0.684865 0.195872
H159  H     H_    0.257422 0.074608 0.730246 0.198429
H160  H     H_    0.854426 0.233433 0.645035 0.262804
H161  H     H_    0.820196 0.198900 0.691180 0.257291
H162  H     H_    0.763252 0.255983 0.661087 0.253352
H163  H     H_    0.812442 0.327066 0.716541 0.216968
H164  H     H_    0.846716 0.361069 0.670833 0.230226
H165  H     H_    0.964950 0.289116 0.682099 0.187530
H166  H     H_    0.927783 0.252409 0.723814 0.201445
H167  H     H_    0.828604 0.264943 0.409862 0.209739
H168  H     H_    0.733675 0.826282 0.409288 0.209853
H169  H     H_    0.174802 0.732397 0.409320 0.209131
H170  H     H_    0.266451 0.173660 0.409353 0.210458
H171  H     H_    0.174924 0.267046 0.409183 0.213671
H172  H     H_    0.747837 0.157788 0.929152 0.191654
H173  H     H_    0.268189 0.823730 0.409146 0.211118
H174  H     H_    0.825297 0.732993 0.409153 0.207696
H175  H     H_    0.735192 0.173571 0.409611 0.211157
H176  H     H_    0.109460 0.463078 0.150758 0.138458
H177  H     H_    0.513215 0.114984 0.150532 0.137275
H178  H     H_    0.890369 0.537300 0.150818 0.137846
H179  H     H_    0.486542 0.885223 0.150661 0.137264
H180  H     H_    0.610233 0.965479 0.650698 0.137809
H181  H     H_    0.024723 0.611349 0.651196 0.138524
H182  H     H_    0.388999 0.032851 0.650730 0.138589
H183  H     H_    0.834147 0.739959 0.926731 0.190909
H184  H     H_    0.968156 0.388209 0.649836 0.134695
H185  H     H_    0.224905 0.692694 0.097247 0.229583
H186  H     H_    0.081149 0.700106 0.096448 0.255024
H187  H     H_    0.100148 0.774801 0.063567 0.234996
H188  H     H_    0.135520 0.775643 0.112831 0.206524
H189  H     H_    0.300629 0.218640 0.097798 0.228697
H190  H     H_    0.292564 0.074999 0.094356 0.253804
H191  H     H_    0.220457 0.096397 0.060383 0.233405
H192  H     H_    0.216229 0.128829 0.110204 0.204857
H193  H     H_    0.772430 0.309013 0.096799 0.229733
H194  H     H_    0.742207 0.833618 0.926591 0.192534
H195  H     H_    0.916235 0.301940 0.097082 0.255307
H196  H     H_    0.898362 0.226461 0.064631 0.235463
H197  H     H_    0.861519 0.226650 0.113633 0.206682
H198  H     H_    0.699539 0.781687 0.097639 0.228123
H199  H     H_    0.707851 0.925323 0.094077 0.253612
H200  H     H_    0.779964 0.903812 0.060051 0.232991
H201  H     H_    0.784057 0.871349 0.109897 0.204642
H202  H     H_    0.822525 0.651693 0.079421 0.219735
H203  H     H_    0.867839 0.769890 0.117673 0.219641
H204  H     H_    0.884416 0.800195 0.068260 0.234403
H205  H     H_    0.841707 0.249563 0.929017 0.189238
H206  H     H_    0.928065 0.718864 0.086728 0.250958
H207  H     H_    0.642046 0.185322 0.077485 0.217982
H208  H     H_    0.753926 0.147554 0.122677 0.219780
H209  H     H_    0.792201 0.124604 0.075582 0.236924
H210  H     H_    0.708670 0.082307 0.091935 0.250406
H211  H     H_    0.177922 0.349248 0.079349 0.219497
H212  H     H_    0.133517 0.231628 0.118517 0.219629
H213  H     H_    0.116500 0.200336 0.069356 0.234843
H214  H     H_    0.072738 0.281840 0.087482 0.251053
H215  H     H_    0.356095 0.815876 0.078001 0.218624
H216  H     H_    0.258404 0.166667 0.926862 0.191013
H217  H     H_    0.243081 0.854417 0.122268 0.219580
H218  H     H_    0.205998 0.876556 0.074806 0.236791
H219  H     H_    0.289089 0.919156 0.091407 0.250192
H220  H     H_    0.719310 0.197468 0.597561 0.228120
H221  H     H_    0.575803 0.206264 0.594710 0.253539
H222  H     H_    0.596964 0.279063 0.561009 0.233741
H223  H     H_    0.629992 0.282154 0.610736 0.205426
H224  H     H_    0.802310 0.720407 0.597506 0.229110
H225  H     H_    0.794456 0.576751 0.595029 0.253538
H226  H     H_    0.721723 0.597168 0.561266 0.233710
H227  H     H_    0.161933 0.747629 0.928396 0.190393
H228  H     H_    0.718236 0.630737 0.610885 0.205366
H229  H     H_    0.277206 0.804369 0.597622 0.230204
H230  H     H_    0.420905 0.796820 0.595604 0.254627
H231  H     H_    0.401054 0.723256 0.562238 0.234474
H232  H     H_    0.366836 0.720806 0.611770 0.206005
H233  H     H_    0.197724 0.279839 0.597517 0.229090
H234  H     H_    0.205841 0.423542 0.594728 0.253915
H235  H     H_    0.278625 0.402774 0.560980 0.233596
H236  H     H_    0.281865 0.369430 0.610674 0.205082
H237  H     H_    0.320734 0.149508 0.579018 0.219272
H238  H     H_    0.760681 0.334563 0.427096 0.191371
H239  H     H_    0.364248 0.266301 0.618993 0.219338
H240  H     H_    0.382342 0.298614 0.570072 0.234979
H241  H     H_    0.425692 0.216732 0.587998 0.250302
H242  H     H_    0.145360 0.682137 0.578474 0.218123
H243  H     H_    0.259541 0.642178 0.621453 0.220215
H244  H     H_    0.295213 0.621245 0.573499 0.236152
H245  H     H_    0.212514 0.578381 0.590616 0.250200
H246  H     H_    0.679209 0.850600 0.578985 0.219159
H247  H     H_    0.635715 0.733869 0.619169 0.219725
H248  H     H_    0.617734 0.701417 0.570323 0.235119
N1    N     N_2   0.188259 0.701714 0.074910 -0.288741
N2    N     N_2   0.794303 0.684683 0.574629 -0.286590
N3    N     N_2   0.313302 0.796037 0.574913 -0.288053
N4    N     N_2   0.205779 0.315502 0.574574 -0.286849
N5    N     N_2   0.313775 0.204915 0.575021 -0.299706
N6    N     N_2   0.200916 0.689397 0.575434 -0.300791
N7    N     N_2   0.686205 0.795192 0.575054 -0.299617
N8    N     N_2   0.794327 0.314269 0.575155 -0.298150
N9    N     N_2   0.377292 0.054074 0.852501 -0.295997
N10   N     N_2   0.012051 0.368240 0.852041 -0.297598
N11   N     N_2   0.622603 0.946406 0.852521 -0.296236
N12   N     N_2   0.293031 0.183403 0.074666 -0.286691
N13   N     N_2   0.016750 0.632731 0.852417 -0.309391
N14   N     N_2   0.875009 0.549628 0.352463 -0.307678
N15   N     N_2   0.472998 0.868824 0.352532 -0.308069
N16   N     N_2   0.121987 0.445279 0.352573 -0.295352
N17   N     N_2   0.527398 0.131173 0.352410 -0.308125
N18   N     N_2   0.809777 0.299607 0.074801 -0.289750
N19   N     N_2   0.707215 0.816928 0.074473 -0.286305
N20   N     N_2   0.815672 0.706970 0.074890 -0.299740
N21   N     N_2   0.697722 0.192600 0.075188 -0.300235
N22   N     N_2   0.184947 0.293924 0.075106 -0.299917
N23   N     N_2   0.300483 0.808587 0.075382 -0.300122
N24   N     N_2   0.683887 0.205945 0.574622 -0.286313
O1    O     O_3   1.000000 0.500000 0.999990 -0.476578
O2    O     O_R   1.000000 0.560740 0.412560 -0.656471
O3    O     O_R   0.439260 0.000000 0.412560 -0.642858
O4    O     O_R   1.000000 0.439260 0.412560 -0.632735
O5    O     O_R   1.000000 0.560680 0.087420 -0.654744
O6    O     O_R   0.439320 0.000000 0.087420 -0.653758
O7    O     O_R   1.000000 0.439320 0.087420 -0.655106
O8    O     O_R   0.560680 0.000000 0.087420 -0.653525
O9    O     O_R   0.500000 0.060680 0.587420 -0.653980
O10   O     O_R   0.939320 0.500000 0.587420 -0.653197
O11   O     O_R   0.500000 0.939320 0.587420 -0.654742
O12   O     O_3   0.500000 0.000000 0.999990 -0.481038
O13   O     O_R   0.060680 0.500000 0.587420 -0.653490
O14   O     O_R   0.853840 0.585430 0.977070 -0.638956
O15   O     O_R   0.414570 0.853840 0.977070 -0.640331
O16   O     O_R   0.146160 0.414570 0.977070 -0.640111
O17   O     O_R   0.585430 0.146160 0.977070 -0.640454
O18   O     O_R   0.146160 0.585430 0.977070 -0.644461
O19   O     O_R   0.585430 0.853840 0.977070 -0.642598
O20   O     O_R   0.853840 0.414570 0.977070 -0.644284
O21   O     O_R   0.414570 0.146160 0.977070 -0.642947
O22   O     O_R   0.353840 0.085430 0.477070 -0.639657
O23   O     O_3   0.500000 0.000000 0.499990 -0.477629
O24   O     O_R   0.914570 0.353840 0.477070 -0.639822
O25   O     O_R   0.646160 0.914570 0.477070 -0.639915
O26   O     O_R   0.085430 0.646160 0.477070 -0.639891
O27   O     O_R   0.646160 0.085430 0.477070 -0.643592
O28   O     O_R   0.085430 0.353840 0.477070 -0.642903
O29   O     O_R   0.353840 0.914570 0.477070 -0.643169
O30   O     O_R   0.914570 0.646160 0.477070 -0.645725
O31   O     O_R   0.085450 0.353820 0.022910 -0.643431
O32   O     O_R   0.646180 0.085450 0.022910 -0.641838
O33   O     O_R   0.914550 0.646180 0.022910 -0.643712
O34   O     O_3   1.000000 0.500000 0.499990 -0.479481
O35   O     O_R   0.353820 0.914550 0.022910 -0.642146
O36   O     O_R   0.914550 0.353820 0.022910 -0.629456
O37   O     O_R   0.353820 0.085450 0.022910 -0.627675
O38   O     O_R   0.085450 0.646180 0.022910 -0.629070
O39   O     O_R   0.646180 0.914550 0.022910 -0.627502
O40   O     O_R   0.585450 0.853820 0.522910 -0.643309
O41   O     O_R   0.146180 0.585450 0.522910 -0.641749
O42   O     O_R   0.414550 0.146180 0.522910 -0.643505
O43   O     O_R   0.853820 0.414550 0.522910 -0.643612
O44   O     O_R   0.414550 0.853820 0.522910 -0.628945
O45   O     O_R   0.060740 0.500000 0.912560 -0.639336
O46   O     O_R   0.853820 0.585450 0.522910 -0.627723
O47   O     O_R   0.585450 0.146180 0.522910 -0.627743
O48   O     O_R   0.146180 0.414550 0.522910 -0.627692
O49   O     O_R   0.500000 0.060740 0.912560 -0.640294
O50   O     O_R   0.939260 0.500000 0.912560 -0.655536
O51   O     O_R   0.500000 0.939260 0.912560 -0.640146
O52   O     O_R   0.560740 0.000000 0.412560 -0.643313
Zn1   Zn    Zn3+2 1.000000 0.586730 0.032740 0.935180
Zn2   Zn    Zn3+2 0.500000 0.913250 0.967240 0.955204
Zn3   Zn    Zn3+2 0.086750 0.500000 0.967240 0.951368
Zn4   Zn    Zn3+2 0.500000 0.086750 0.967240 0.955199
Zn5   Zn    Zn3+2 0.413250 0.000000 0.467240 0.952187
Zn6   Zn    Zn3+2 1.000000 0.413250 0.467240 0.955701
Zn7   Zn    Zn3+2 0.586750 0.000000 0.467240 0.951946
Zn8   Zn    Zn3+2 1.000000 0.586750 0.467240 0.946302
Zn9   Zn    Zn3+2 0.413270 1.000000 0.032740 0.934214
Zn10  Zn    Zn3+2 1.000000 0.413270 0.032740 0.935297
Zn11  Zn    Zn3+2 0.586730 1.000000 0.032740 0.934227
Zn12  Zn    Zn3+2 0.500000 0.086730 0.532740 0.935184
Zn13  Zn    Zn3+2 0.913270 0.500000 0.532740 0.933044
Zn14  Zn    Zn3+2 0.500000 0.913270 0.532740 0.935052
Zn15  Zn    Zn3+2 0.086730 0.500000 0.532740 0.934772
Zn16  Zn    Zn3+2 0.913250 0.500000 0.967240 0.950894

loop_
_geom_bond_atom_site_label_1
_geom_bond_atom_site_label_2
_ccdc_geom_bond_type
O10   Zn13  S    
C186  C223  S    
H39   N17   S    
C14   N12   S    
C126  C127  S    
C140  H160  S    
C104  C135  S    
C153  C166  A    
C168  C175  A    
C8    C26   A    
C113  C151  A    
C82   H25   S    
H224  N2    S    
C190  C219  S    
C120  H115  S    
C79   C87   S    
C152  C165  A    
C123  H121  S    
O2    Zn8   S    
C5    C210  A    
C9    C27   A    
C96   H60   S    
C46   C181  A    
C39   C47   S    
C2    C55   A    
H26   N14   S    
C62   H192  S    
O9    Zn12  S    
C72   H232  S    
C129  H140  S    
C177  C182  S    
C61   H188  S    
C104  H87   S    
C200  C218  A    
C108  C109  S    
C30   C38   S    
C91   H58   S    
C4    C196  S    
C122  H126  S    
C199  O46   A    
C76   H248  S    
C110  C111  S    
C118  H120  S    
C77   N8    S    
H193  N18   S    
C84   H32   S    
C166  H177  S    
C87   H50   S    
C3    C184  S    
C93   H53   S    
C141  C145  A    
C195  O41   A    
C200  C208  A    
C72   H231  S    
C52   N14   S    
O15   Zn2   S    
C62   N12   S    
C15   N18   S    
C86   H40   S    
C104  C105  S    
C134  H159  S    
C119  H117  S    
C155  C162  A    
C103  H76   S    
C182  O13   A    
C34   H124  S    
C178  O7    A    
C63   H197  S    
O39   Zn11  S    
C201  C219  A    
C93   H52   S    
C185  O31   A    
C80   N10   S    
O26   Zn8   S    
C69   H218  S    
C35   C163  A    
C31   C37   S    
C70   H221  S    
C100  C124  S    
C188  O39   A    
C81   H18   S    
C7    C197  S    
C137  H153  S    
O48   Zn15  S    
C31   C207  S    
C190  O37   A    
C65   H206  S    
C102  H78   S    
C183  O14   A    
O3    Zn5   S    
C173  H184  S    
C12   C20   A    
C62   H190  S    
C96   H61   S    
C31   H112  S    
C39   H167  S    
C133  H147  S    
C18   C223  A    
C40   H168  S    
C169  H180  S    
C167  C174  A    
C106  H84   S    
C46   C203  A    
C32   H172  S    
O47   Zn12  S    
O7    Zn10  S    
C38   C200  S    
C154  C167  A    
C71   H225  S    
C86   H42   S    
C32   C206  S    
C39   H238  S    
O30   Zn8   S    
C125  H134  S    
C54   C214  A    
C84   N15   S    
C77   H5    S    
C14   C19   A    
C130  H138  S    
C19   C224  A    
C11   C193  S    
C51   C181  A    
C175  C179  S    
C139  C140  S    
C9    C195  S    
C128  C147  S    
C43   H171  S    
C115  H111  S    
C138  C151  S    
C95   H62   S    
C41   H169  S    
C125  C146  S    
C89   H44   S    
C209  C217  A    
C25   C26   A    
C157  C171  A    
C158  C172  A    
C85   N16   S    
C131  H151  S    
C183  C222  S    
C169  C176  A    
C113  C203  A    
C40   H2    S    
C63   H196  S    
C132  H149  S    
H4    N8    S    
C57   C161  A    
C88   C89   S    
C98   C99   S    
O21   Zn4   S    
C35   C170  A    
O52   Zn7   S    
O12   Zn9   S    
C60   C148  S    
H229  N3    S    
C73   N4    S    
O1    Zn10  S    
C15   C18   A    
C136  H155  S    
C133  H144  S    
C204  C221  A    
C97   H72   S    
C160  C173  A    
C101  C150  A    
C116  H109  S    
C171  H181  S    
C111  H100  S    
C128  C129  S    
C197  O48   A    
C26   N5    S    
C97   C98   S    
O4    Zn6   S    
C9    C215  A    
C42   H24   S    
C140  H162  S    
C53   N15   S    
C199  O30   A    
O12   Zn2   S    
C32   C36   S    
C81   H20   S    
C121  H128  S    
C2    C68   A    
O1    Zn1   S    
C41   C215  S    
C13   C57   A    
C115  C116  S    
O11   Zn14  S    
C12   N1    S    
C179  O6    A    
C202  C220  A    
C137  H152  S    
C27   N6    S    
C105  H85   S    
O18   Zn3   S    
C106  H82   S    
O6    Zn9   S    
C34   C204  S    
O13   Zn15  S    
C107  C108  S    
O27   Zn7   S    
C107  C141  S    
C73   H234  S    
C152  C161  A    
C188  C221  S    
C64   H200  S    
C92   H54   S    
C48   N9    S    
C28   N7    S    
C53   C60   A    
C54   C59   A    
O40   Zn14  S    
C108  H93   S    
C77   H7    S    
O49   Zn4   S    
C82   H22   S    
C72   H230  S    
C84   H33   S    
O51   Zn2   S    
C156  C163  A    
C91   C92   S    
C6    C211  A    
C165  C174  A    
C33   H113  S    
C50   C56   A    
C4    C209  A    
C138  H166  S    
C139  H163  S    
O41   Zn15  S    
C88   H47   S    
C90   C181  A    
C78   H10   S    
C40   C216  S    
C1    O45   A    
O12   Zn11  S    
C74   H240  S    
C212  C213  A    
C66   H210  S    
C157  C164  A    
C158  C163  A    
C65   H203  S    
C117  H105  S    
C100  H81   S    
C167  H178  S    
C61   N1    S    
C47   C209  S    
C109  H92   S    
C180  O11   A    
C183  O33   A    
C114  H99   S    
C145  C154  A    
C148  O52   A    
C31   H90   S    
C129  C130  S    
H198  N19   S    
C195  O26   A    
C11   C217  A    
O12   Zn4   S    
C39   C217  S    
C136  C137  S    
C120  H116  S    
C148  O3    A    
O35   Zn9   S    
C165  H176  S    
C2    C135  A    
C86   H41   S    
C18   N21   S    
C196  O27   A    
C44   C211  S    
C184  O35   A    
C22   N2    S    
C36   H205  S    
C193  O43   A    
C42   C213  S    
C128  H143  S    
C112  O49   A    
C10   C216  A    
C194  O25   A    
C55   N17   S    
C95   H63   S    
C61   H187  S    
H237  N5    S    
C104  H88   S    
C102  C103  S    
C73   H236  S    
C75   H244  S    
H17   N11   S    
C86   N17   S    
C191  O22   A    
C30   H79   S    
C176  C180  S    
O1    Zn16  S    
C204  C205  A    
C19   N22   S    
C171  C177  A    
C87   H49   S    
O31   Zn10  S    
C110  H103  S    
C37   H216  S    
C97   C113  S    
C132  H148  S    
C126  H132  S    
C172  C176  A    
C63   N18   S    
C187  C218  S    
C107  H96   S    
C127  H130  S    
C87   C88   S    
C49   C203  A    
H242  N6    S    
C67   H214  S    
C83   H28   S    
C103  H74   S    
O8    Zn11  S    
C94   H65   S    
C85   H38   S    
O29   Zn5   S    
C16   C221  A    
C5    C199  S    
C41   H13   S    
C103  H75   S    
C69   N23   S    
C166  C175  A    
C160  C164  A    
C80   H15   S    
C116  H108  S    
C93   H51   S    
H211  N22   S    
C10   C194  S    
C66   N21   S    
C45   H174  S    
C178  O5    A    
C69   H217  S    
C205  C222  A    
C38   H157  S    
C70   H222  S    
C48   C56   A    
C180  O9    A    
C187  O38   A    
C12   C218  A    
C72   N3    S    
O28   Zn6   S    
C81   N11   S    
C189  O20   A    
C117  H107  S    
C59   C159  S    
C172  H182  S    
C146  C155  A    
C98   H71   S    
C191  O42   A    
C24   C142  A    
C16   C17   A    
O34   Zn15  S    
C124  C143  A    
C32   H101  S    
C114  H97   S    
C13   C141  A    
C99   H66   S    
C174  C178  S    
C67   N22   S    
H185  N1    S    
O42   Zn12  S    
C125  H136  S    
C197  O28   A    
C22   C28   A    
C55   C60   A    
C76   H3    S    
C76   H247  S    
C71   H228  S    
C47   H68   S    
C188  O19   A    
C123  H122  S    
C1    O50   A    
C7    C212  A    
C40   C45   S    
C75   N6    S    
C96   H59   S    
C130  H139  S    
C21   N24   S    
C97   H73   S    
H233  N4    S    
C8    C213  A    
C112  O51   A    
C62   H191  S    
C25   N4    S    
C94   H64   S    
C129  H141  S    
C49   N10   S    
O38   Zn1   S    
C89   H43   S    
C122  H125  S    
C187  O18   A    
O1    Zn3   S    
C118  H119  S    
H220  N24   S    
O34   Zn8   S    
O16   Zn3   S    
C13   C52   A    
C155  C168  A    
C30   C208  S    
C84   H31   S    
H30   N15   S    
C201  C207  A    
C3    C20   A    
C50   C170  A    
C51   C58   A    
C63   H195  S    
C43   C212  S    
C121  C122  S    
H12   N10   S    
C143  C152  A    
O46   Zn13  S    
C83   H29   S    
C67   H212  S    
C125  C126  S    
C41   C44   S    
C198  O44   A    
C14   C219  A    
C42   C43   S    
C186  O17   A    
C131  C132  S    
C47   H175  S    
C38   H227  S    
C134  H158  S    
C119  H118  S    
C184  O15   A    
C10   C28   A    
C64   H201  S    
C136  H156  S    
C142  C146  A    
C150  C158  A    
C109  H89   S    
C82   N13   S    
C44   H173  S    
C99   H69   S    
C79   C147  A    
C119  C120  S    
C196  O47   A    
C105  C106  S    
C69   H219  S    
C7    C25   A    
C153  C162  A    
O23   Zn12  S    
C81   H19   S    
C137  H154  S    
C121  H127  S    
H8    N9    S    
C151  C160  A    
C102  H77   S    
C120  H114  S    
C66   H208  S    
C90   C91   S    
C21   C29   A    
C92   H55   S    
C35   C192  A    
C210  C216  A    
C92   C93   S    
C111  C114  S    
C111  H102  S    
C94   C95   S    
C23   N3    S    
C48   C192  A    
C193  O24   A    
C138  C139  S    
C24   C68   A    
C128  H142  S    
C106  H83   S    
C64   N19   S    
C33   H183  S    
C37   C201  S    
C71   H226  S    
C37   H146  S    
C16   N19   S    
C149  C157  A    
C75   H245  S    
O34   Zn13  S    
C211  C215  A    
C100  H80   S    
C159  O4    A    
C130  H137  S    
C95   C96   S    
C101  C192  A    
C43   H35   S    
C124  C214  A    
C127  H131  S    
C108  H94   S    
C77   H6    S    
C82   H23   S    
O20   Zn16  S    
C89   H45   S    
C3    C208  A    
C189  O36   A    
O24   Zn6   S    
C118  C144  S    
O34   Zn6   S    
C140  H161  S    
C8    C191  S    
C134  C150  S    
C156  C169  A    
C116  C117  S    
C17   N20   S    
C80   H14   S    
C144  C153  A    
C110  C142  S    
C118  C119  S    
C17   C222  A    
H189  N12   S    
O44   Zn14  S    
C88   H48   S    
C5    C22   A    
O19   Zn2   S    
C132  C133  S    
C34   H194  S    
O22   Zn5   S    
O14   Zn16  S    
C83   N14   S    
O23   Zn7   S    
O17   Zn4   S    
C189  C220  S    
H34   N16   S    
H215  N23   S    
C182  O10   A    
C207  C224  A    
C76   N7    S    
C46   C164  A    
C109  H91   S    
C30   H1    S    
C98   H70   S    
C36   C202  S    
C90   C149  A    
C99   H67   S    
O32   Zn11  S    
C179  O8    A    
O37   Zn9   S    
C115  C143  S    
O50   Zn16  S    
O25   Zn7   S    
C45   H57   S    
C186  O32   A    
C94   C101  S    
O5    Zn1   S    
C6    C198  S    
C123  H123  S    
C78   H11   S    
C134  C136  S    
C74   H241  S    
C168  H179  S    
H207  N21   S    
H202  N20   S    
C185  C224  S    
C49   C58   A    
C29   N8    S    
C42   H170  S    
C194  O40   A    
C147  C156  A    
C52   C59   A    
C105  H86   S    
C51   N13   S    
C20   N23   S    
C65   N20   S    
C173  C177  A    
C206  C223  A    
C61   H186  S    
O45   Zn3   S    
C185  O16   A    
C100  C102  S    
C33   C34   S    
C79   C170  A    
O33   Zn1   S    
C73   H235  S    
C74   N5    S    
C75   H243  S    
C71   N2    S    
C70   N24   S    
C36   H135  S    
C190  O21   A    
H21   N13   S    
C135  C144  A    
C64   H199  S    
C23   C27   A    
C121  C145  S    
C110  H104  S    
C126  H133  S    
C44   H46   S    
C115  H110  S    
C107  H95   S    
C127  H129  S    
C198  O29   A    
C67   H213  S    
C83   H27   S    
O23   Zn14  S    
C85   H37   S    
C131  H150  S    
C68   C162  A    
C24   C53   A    
C159  O2    A    
C45   C210  S    
C138  H165  S    
C139  H164  S    
C80   H16   S    
C78   N9    S    
C122  C123  S    
C1    C58   S    
C4    C21   A    
C50   N11   S    
C78   H9    S    
C6    C23   A    
C54   N16   S    
C70   H223  S    
C74   H239  S    
O23   Zn5   S    
C85   H36   S    
C91   H56   S    
C66   H209  S    
O36   Zn10  S    
C131  C149  S    
H246  N7    S    
C65   H204  S    
C117  H106  S    
C33   C205  S    
C57   C214  A    
C11   C29   A    
C202  C206  A    
C154  C161  A    
C114  H98   S    
C133  H145  S    
C15   C220  A    
C56   C112  S    
O43   Zn13  S    
