data_mof_unit_59102.cif
_audit_creation_date              2012-12-11T15:55:42-0500
_audit_creation_method            fapswitch 2.2
_symmetry_space_group_name_H-M    P1
_symmetry_Int_Tables_number       1
_space_group_crystal_system       triclinic
_cell_length_a                    11.137766
_cell_length_b                    11.243801
_cell_length_c                    18.748572
_cell_angle_alpha                 90.814583
_cell_angle_beta                  90.978806
_cell_angle_gamma                 59.27597
_cell_volume                      2018.00781772

loop_
_atom_site_label
_atom_site_type_symbol
_atom_type_description
_atom_site_fract_x
_atom_site_fract_y
_atom_site_fract_z
_atom_type_partial_charge
C1    C     C_R   0.353197 0.777621 0.399163 0.539217
C2    C     C_R   0.616810 0.111705 0.167443 0.039143
C3    C     C_R   0.348597 0.300765 0.168413 0.051831
C4    C     C_R   0.480283 0.227314 0.276948 -0.153806
C5    C     C_R   0.478584 0.212682 0.203441 -0.017739
C6    C     C_R   0.103915 0.636144 0.334865 -0.032612
C7    C     C_R   0.985588 0.748593 0.364498 -0.093265
C8    C     C_R   0.640086 0.994802 0.126059 -0.068036
C9    C     C_R   0.767651 0.905864 0.094342 -0.131832
C10   C     C_R   0.227749 0.387366 0.207209 -0.140408
C11   C     C_R   0.232464 0.404674 0.279513 -0.044032
C12   C     C_R   0.385296 0.352205 0.388889 0.534036
C13   C     C_R   0.862426 0.746036 0.366489 -0.102792
C14   C     C_R   0.858908 0.633288 0.336542 -0.087082
C15   C     C_R   0.978596 0.521411 0.308705 -0.105913
C16   C     C_R   0.104730 0.518369 0.311973 0.029081
C17   C     C_R   0.361142 0.326190 0.315187 0.012691
C18   C     C_R   0.850638 0.341191 0.180984 0.020197
C19   C     C_R   0.922472 0.247753 0.235079 -0.059049
C20   C     C_R   0.873535 0.266172 0.302768 0.013315
C21   C     C_R   0.669839 0.480506 0.266857 -0.210409
C22   C     C_R   0.717489 0.455303 0.195608 -0.016730
C23   C     C_R   0.713458 0.415052 0.395431 0.558298
C24   C     C_3   0.070723 0.169390 0.257436 -0.291004
C25   C     C_3   0.017963 0.188326 0.333810 -0.245858
C26   C     C_R   0.753445 0.388279 0.321541 -0.002561
C27   C     C_R   0.356659 0.850902 0.180887 -0.009427
C28   C     C_R   0.407234 0.916294 0.228813 -0.022023
C29   C     C_R   0.387621 0.914890 0.303289 0.011146
C30   C     C_R   0.244682 0.820113 0.281118 -0.162198
C31   C     C_R   0.286530 0.790794 0.210978 0.052084
C32   C     C_3   0.557070 0.871413 0.251186 -0.295442
C33   C     C_3   0.519664 0.896513 0.327924 -0.283200
C34   C     C_R   0.367406 0.716669 0.611545 0.545446
C35   C     C_R   0.319499 0.851401 0.330409 -0.010535
C36   C     C_R   0.291738 0.290981 0.804389 0.023990
C37   C     C_R   0.401167 0.185006 0.765847 0.028458
C38   C     C_R   0.414551 0.195737 0.693431 0.069060
C39   C     C_R   0.200627 0.413535 0.692539 -0.158235
C40   C     C_R   0.193041 0.408298 0.767066 -0.179905
C41   C     C_3   0.433255 0.040188 0.759331 -0.229462
C42   C     C_3   0.446253 0.051052 0.679760 -0.116603
C43   C     C_R   0.318373 0.313729 0.656684 0.039664
C44   C     C_R   0.801324 0.342558 0.839234 0.007416
C45   C     C_R   0.367816 0.347841 0.593185 0.531028
C46   C     C_R   0.764956 0.465842 0.803179 0.027872
C47   C     C_R   0.760583 0.468558 0.730063 -0.007712
C48   C     C_R   0.781322 0.245533 0.725986 0.072948
C49   C     C_R   0.796319 0.237512 0.800647 -0.132451
C50   C     C_3   0.829820 0.555263 0.803985 -0.267228
C51   C     C_3   0.831024 0.549948 0.723767 -0.278479
C52   C     C_R   0.777997 0.357228 0.689248 0.040211
C53   C     C_R   0.311580 0.819654 0.832206 0.011830
C54   C     C_R   0.201181 0.831386 0.790928 0.029090
C55   C     C_R   0.217482 0.801308 0.718372 0.119398
C56   C     C_R   0.754260 0.381339 0.612503 0.578325
C57   C     C_R   0.455283 0.750257 0.727467 -0.176039
C58   C     C_R   0.440621 0.774643 0.800713 -0.171987
C59   C     C_3   0.133079 0.749422 0.803301 -0.300820
C60   C     C_3   0.156576 0.711027 0.725376 -0.119472
C61   C     C_R   0.344936 0.761554 0.685778 0.021269
C62   C     C_R   0.914890 0.314650 0.112013 0.589168
C63   C     C_R   0.326829 0.287452 0.094072 0.595431
C64   C     C_R   0.306836 0.905035 0.107608 0.570883
C65   C     C_R   0.879144 0.311835 0.906452 0.570994
C66   C     C_R   0.277138 0.264761 0.879108 0.553866
C67   C     C_R   0.880120 0.923170 0.108162 -0.078361
C68   C     C_R   0.277795 0.889829 0.900294 0.563364
C69   C     C_R   0.866105 0.024298 0.156498 -0.072377
C70   C     C_R   0.734850 0.120032 0.184255 -0.094960
Cr1   Cr    Cr6+3 0.601740 0.606840 0.505840 0.997582
Cr2   Cr    Cr6+3 0.291500 0.601560 0.495070 1.062762
Cr3   Cr    Cr6+3 0.606780 0.291630 0.499130 1.051628
Cr4   Cr    Cr6+3 0.062440 0.063060 0.008240 1.031143
Cr5   Cr    Cr6+3 0.062950 0.375000 0.998920 1.023946
Cr6   Cr    Cr6+3 0.374550 0.061770 0.992470 1.007708
H1    H     H_    0.579548 0.163520 0.303938 0.137417
H2    H     H_    0.770601 0.832381 0.389668 0.110212
H3    H     H_    0.764669 0.630717 0.333316 0.137099
H4    H     H_    0.971686 0.440221 0.282772 0.120560
H5    H     H_    0.570726 0.571667 0.279737 0.121837
H6    H     H_    0.129044 0.222125 0.245829 0.135967
H7    H     H_    0.117912 0.064100 0.236298 0.154653
H8    H     H_    0.040092 0.089971 0.358755 0.151349
H9    H     H_    0.044416 0.253884 0.367662 0.158918
H10   H     H_    0.153033 0.820615 0.296445 0.126477
H11   H     H_    0.780056 0.821143 0.060847 0.110769
H12   H     H_    0.594584 0.940520 0.239741 0.150446
H13   H     H_    0.632844 0.761858 0.237725 0.121127
H14   H     H_    0.581208 0.808067 0.362328 0.164310
H15   H     H_    0.506123 0.995079 0.349671 0.143729
H16   H     H_    0.122400 0.501503 0.663434 0.149950
H17   H     H_    0.114235 0.497324 0.795001 0.109053
H18   H     H_    0.341821 0.033033 0.775530 0.179768
H19   H     H_    0.534164 0.967360 0.785974 0.121362
H20   H     H_    0.554138 0.982077 0.660177 0.122994
H21   H     H_    0.988916 0.837202 0.385198 0.128582
H22   H     H_    0.816348 0.144114 0.827284 0.151319
H23   H     H_    0.935189 0.504120 0.827055 0.175295
H24   H     H_    0.759951 0.660519 0.825801 0.121348
H25   H     H_    0.768797 0.652698 0.698515 0.139028
H26   H     H_    0.936057 0.485257 0.701067 0.164020
H27   H     H_    0.551136 0.725503 0.702709 0.142808
H28   H     H_    0.525595 0.769521 0.831771 0.132399
H29   H     H_    0.022087 0.817373 0.818888 0.139099
H30   H     H_    0.978708 0.855408 0.083002 0.165756
H31   H     H_    0.194984 0.659980 0.839335 0.144267
H32   H     H_    0.240501 0.603460 0.715913 0.118586
H33   H     H_    0.957963 0.026992 0.172029 0.156371
H34   H     H_    0.723433 0.199133 0.220816 0.130845
H35   H     H_    0.200601 0.633191 0.330624 0.168730
H36   H     H_    0.560900 0.967849 0.120201 0.167464
H37   H     H_    0.127413 0.449046 0.180609 0.164737
O1    O     O_R   0.748670 0.497520 0.427970 -0.518184
O2    O     O_R   0.300170 0.471020 0.567120 -0.498364
O3    O     O_R   0.491630 0.259030 0.574940 -0.498621
O4    O     O_R   0.718640 0.304340 0.577850 -0.458308
O5    O     O_3   0.500010 0.500010 0.500020 -0.309351
O6    O     O_R   0.186620 0.923750 0.087000 -0.501580
O7    O     O_R   0.957350 0.194160 0.084660 -0.503397
O8    O     O_R   0.935120 0.407280 0.085350 -0.520400
O9    O     O_R   0.203800 0.365060 0.067090 -0.497440
O10   O     O_R   0.417470 0.174910 0.067830 -0.528254
O11   O     O_R   0.375160 0.946380 0.070880 -0.528385
O12   O     O_R   0.476470 0.723930 0.429450 -0.528108
O13   O     O_R   0.160500 0.919670 0.926690 -0.504990
O14   O     O_R   0.933140 0.190380 0.936050 -0.496846
O15   O     O_R   0.909010 0.403210 0.925030 -0.526453
O16   O     O_R   0.179590 0.361290 0.918480 -0.505207
O17   O     O_R   0.391360 0.170840 0.907510 -0.506391
O18   O     O_R   0.350950 0.942600 0.922260 -0.522564
O19   O     O_3   0.166650 0.166610 0.999880 -0.288008
O20   O     O_R   0.264730 0.744140 0.416740 -0.539657
O21   O     O_R   0.309440 0.472410 0.418220 -0.509649
O22   O     O_R   0.501630 0.260530 0.414310 -0.542246
O23   O     O_R   0.727920 0.305730 0.428950 -0.488900
O24   O     O_R   0.738670 0.496020 0.588600 -0.519953
O25   O     O_R   0.467190 0.722540 0.578350 -0.530045
O26   O     O_R   0.254720 0.742640 0.577370 -0.431096
C71   C     C_2   0.631537 0.548409 0.137670 0.261796
H38   H     H_    0.589812 0.657830 0.142647 0.097225
O27   O     O_2   0.610929 0.502039 0.082568 -0.466514
I1    I     I_    0.238039 0.659125 0.151944 -0.405767
C72   C     C_2   0.336761 0.044207 0.634093 0.228951
H39   H     H_    0.364437 0.997874 0.581367 0.135198
O28   O     O_2   0.216479 0.094522 0.654193 -0.494210
I2    I     I_    0.774218 0.079799 0.676756 -0.347011
C73   C     C_2   0.023430 0.755387 0.684337 0.244647
H40   H     H_    0.931627 0.770788 0.711979 0.103344
O29   O     O_2   0.019149 0.764639 0.619496 -0.449391

loop_
_geom_bond_atom_site_label_1
_geom_bond_atom_site_label_2
_ccdc_geom_bond_type
C44   C49   A    
C7    C13   A    
C21   C26   A    
Cr4   O19   S    
C63   O10   A    
Cr5   O9    S    
C41   C42   S    
C54   C55   A    
C19   C20   A    
C15   H4    S    
C40   H17   S    
C57   C58   A    
Cr1   O24   S    
C41   H18   S    
C41   H19   S    
C53   C54   A    
C51   H26   S    
Cr4   O6    S    
Cr2   O2    S    
C50   H23   S    
C59   H29   S    
C64   O6    A    
C23   O23   A    
C42   H20   S    
C65   O14   A    
C21   C22   A    
C28   C29   A    
C24   H7    S    
C73   O29   D    
C38   C42   S    
C8    H36   S    
C30   C31   A    
Cr6   O18   S    
C36   C66   S    
C20   C25   S    
C15   C16   A    
C32   H12   S    
C48   I2    S    
C22   C71   S    
C34   O26   A    
C18   C19   A    
C56   O4    A    
C23   C26   S    
C4    H1    S    
C53   C68   S    
C24   H6    S    
C70   H34   S    
C49   H22   S    
C46   C47   A    
Cr6   O17   S    
Cr2   O26   S    
C11   C17   A    
Cr3   O22   S    
C29   C33   S    
C8    C9    A    
C12   O22   A    
C12   C17   S    
C25   H8    S    
Cr5   O15   S    
C30   H10   S    
C62   O7    A    
C60   H32   S    
C66   O16   A    
C59   C60   S    
C12   O21   A    
C55   C60   S    
C37   C41   S    
C44   C65   S    
C69   H33   S    
C1    O20   A    
Cr5   O8    S    
C44   C46   A    
Cr1   O25   S    
C54   C59   S    
C71   H38   S    
C57   H27   S    
Cr3   O4    S    
C27   C31   A    
Cr6   O11   S    
C65   O15   A    
C28   C32   S    
C73   H40   S    
C72   O28   D    
C10   C11   A    
C39   C40   A    
C4    C5    A    
C39   C43   A    
C64   O11   A    
C34   O25   A    
C34   C61   S    
C59   H31   S    
Cr1   O1    S    
C67   C69   A    
C68   O18   A    
C9    C67   A    
C37   C38   A    
C43   C45   S    
C11   C16   S    
C45   O2    A    
Cr2   O21   S    
Cr4   O14   S    
Cr3   O23   S    
C36   C40   A    
C25   H9    S    
C50   C51   S    
C14   H3    S    
C24   C25   S    
Cr3   O3    S    
C47   C52   A    
C10   H37   S    
C4    C17   A    
C30   C35   A    
C48   C49   A    
C21   H5    S    
C32   H13   S    
C42   C72   S    
C2    C5    S    
C58   H28   S    
C68   O13   A    
C39   H16   S    
C63   O9    A    
Cr5   O19   S    
C1    C35   S    
C46   C50   S    
C13   H2    S    
C36   C37   A    
Cr3   O5    S    
C7    H21   S    
Cr1   O5    S    
C18   C22   A    
Cr6   O10   S    
C2    C8    A    
C71   O27   D    
C72   H39   S    
C3    C5    A    
C47   C51   S    
C53   C58   A    
C67   H30   S    
C57   C61   A    
C6    C7    A    
C3    C63   S    
C51   H25   S    
Cr4   O7    S    
C29   C35   A    
C50   H24   S    
C1    O12   A    
C32   C33   S    
C33   H15   S    
C19   C24   S    
C38   C43   A    
C3    C10   A    
C2    C70   A    
C33   H14   S    
C9    H11   S    
C23   O1    A    
C56   O24   A    
Cr6   O19   S    
C45   O3    A    
Cr2   O20   S    
Cr4   O13   S    
C20   C26   A    
C55   C61   A    
C6    H35   S    
C31   I1    S    
C69   C70   A    
C27   C64   S    
C6    C16   A    
C52   C56   S    
C48   C52   A    
Cr2   O5    S    
C27   C28   A    
C14   C15   A    
Cr1   O12   S    
C18   C62   S    
C60   C73   S    
C13   C14   A    
C62   O8    A    
Cr5   O16   S    
C66   O17   A    
