data_mof_unit_15417.cif
_audit_creation_date              2012-12-10T17:00:01-0500
_audit_creation_method            fapswitch 2.2
_symmetry_space_group_name_H-M    P1
_symmetry_Int_Tables_number       1
_space_group_crystal_system       triclinic
_cell_length_a                    15.083724
_cell_length_b                    15.199868
_cell_length_c                    10.024433
_cell_angle_alpha                 90.846678
_cell_angle_beta                  88.496933
_cell_angle_gamma                 89.891098
_cell_volume                      2297.26024099

loop_
_atom_site_label
_atom_site_type_symbol
_atom_type_description
_atom_site_fract_x
_atom_site_fract_y
_atom_site_fract_z
_atom_type_partial_charge
C1    C     C_R   0.375618 0.886587 0.500148 0.834552
C2    C     C_2   0.678446 0.251006 0.403644 0.296368
C3    C     C_2   0.174866 0.243872 0.406184 0.249728
C4    C     C_2   0.178445 0.751006 0.403645 0.296368
C5    C     C_2   0.683870 0.813716 0.488671 -0.343289
C6    C     C_2   0.681554 0.187836 0.495623 -0.322067
C7    C     C_2   0.183870 0.313716 0.488672 -0.343288
C8    C     C_2   0.181554 0.687836 0.495623 -0.322066
C9    C     C_2   0.246482 0.179625 0.396748 0.131679
C10   C     C_2   0.255950 0.806388 0.388934 0.092780
C11   C     C_2   0.746482 0.679624 0.396749 0.131680
C12   C     C_R   0.374974 0.112710 0.501896 0.824943
C13   C     C_2   0.755950 0.306388 0.388933 0.092780
C14   C     C_2   0.290121 0.158890 0.508548 0.161443
C15   C     C_2   0.289434 0.843399 0.500959 0.172078
C16   C     C_2   0.790121 0.658889 0.508548 0.161443
C17   C     C_2   0.789434 0.343399 0.500959 0.172078
C18   C     C_2   0.571566 0.001827 0.924023 -0.022668
C19   C     C_2   0.071566 0.501827 0.924023 -0.022666
C20   C     C_2   0.570841 0.986916 0.072099 -0.138591
C21   C     C_2   0.070841 0.486915 0.072099 -0.138595
C22   C     C_3   0.608979 0.763541 0.189450 -0.701739
C23   C     C_R   0.875618 0.386587 0.500148 0.834553
C24   C     C_3   0.527625 0.298276 0.370946 -0.751923
C25   C     C_3   0.108977 0.263540 0.189452 -0.701735
C26   C     C_3   0.027625 0.798276 0.370949 -0.751923
C27   C     C_3   0.242707 0.059330 0.231322 -0.778260
C28   C     C_3   0.358099 0.735233 0.230060 -0.780706
C29   C     C_3   0.742707 0.559327 0.231326 -0.778262
C30   C     C_3   0.858100 0.235231 0.230063 -0.780708
C31   C     C_3   0.346631 0.001379 0.895013 -0.741986
C32   C     C_3   0.846631 0.501379 0.895013 -0.741985
C33   C     C_R   0.874974 0.612710 0.501896 0.824944
C34   C     C_R   0.617704 0.119578 0.499358 0.917622
C35   C     C_R   0.618294 0.880759 0.497589 0.943870
C36   C     C_R   0.117704 0.619578 0.499358 0.917621
C37   C     C_R   0.118294 0.380759 0.497589 0.943871
C38   C     C_2   0.674866 0.743872 0.406183 0.249726
H1    H     H_    0.742125 0.823525 0.548509 0.148453
H2    H     H_    0.949857 0.534099 0.108046 0.208212
H3    H     H_    0.572032 0.670593 0.330128 0.220061
H4    H     H_    0.547140 0.797324 0.161262 0.248409
H5    H     H_    0.620909 0.707104 0.119601 0.228380
H6    H     H_    0.664900 0.810682 0.178295 0.231811
H7    H     H_    0.625402 0.287127 0.223521 0.232463
H8    H     H_    0.474266 0.296485 0.296711 0.221553
H9    H     H_    0.540384 0.367891 0.399913 0.233589
H10   H     H_    0.504264 0.261657 0.460156 0.239442
H11   H     H_    0.072032 0.170592 0.330130 0.220060
H12   H     H_    0.735955 0.182804 0.564196 0.146816
H13   H     H_    0.047139 0.297329 0.161269 0.248413
H14   H     H_    0.120900 0.207103 0.119601 0.228377
H15   H     H_    0.164902 0.310677 0.178293 0.231810
H16   H     H_    0.125400 0.787129 0.223522 0.232463
H17   H     H_    0.974265 0.796485 0.296714 0.221553
H18   H     H_    0.040383 0.867891 0.399917 0.233589
H19   H     H_    0.004264 0.761656 0.460158 0.239442
H20   H     H_    0.328086 0.170915 0.221991 0.232349
H21   H     H_    0.205521 0.061239 0.137417 0.235600
H22   H     H_    0.199313 0.030282 0.310513 0.238201
H23   H     H_    0.242125 0.323526 0.548508 0.148452
H24   H     H_    0.301694 0.016800 0.214843 0.243928
H25   H     H_    0.315343 0.867229 0.220492 0.249621
H26   H     H_    0.384459 0.740408 0.126018 0.239470
H27   H     H_    0.322774 0.671482 0.239777 0.239708
H28   H     H_    0.414189 0.736901 0.299454 0.252713
H29   H     H_    0.828084 0.670913 0.221989 0.232349
H30   H     H_    0.705519 0.561234 0.137423 0.235599
H31   H     H_    0.699315 0.530279 0.310519 0.238203
H32   H     H_    0.801694 0.516798 0.214846 0.243930
H33   H     H_    0.815345 0.367227 0.220491 0.249621
H34   H     H_    0.235955 0.682804 0.564195 0.146816
H35   H     H_    0.884462 0.240405 0.126021 0.239470
H36   H     H_    0.822776 0.171480 0.239780 0.239708
H37   H     H_    0.914190 0.236899 0.299458 0.252714
H38   H     H_    0.289594 0.164617 0.705232 0.351849
H39   H     H_    0.268207 0.873011 0.690996 0.349760
H40   H     H_    0.789594 0.664618 0.705232 0.351849
H41   H     H_    0.768206 0.373013 0.690995 0.349760
H42   H     H_    0.426828 0.891049 0.871689 0.245714
H43   H     H_    0.294184 0.966218 0.952645 0.211282
H44   H     H_    0.326854 0.004282 0.789694 0.268272
H45   H     H_    0.635085 0.014436 0.874868 0.121721
H46   H     H_    0.351922 0.069442 0.935864 0.226894
H47   H     H_    0.926828 0.391050 0.871689 0.245714
H48   H     H_    0.794183 0.466220 0.952646 0.211282
H49   H     H_    0.826854 0.504283 0.789694 0.268271
H50   H     H_    0.851922 0.569443 0.935864 0.226894
H51   H     H_    0.135085 0.514435 0.874868 0.121721
H52   H     H_    0.632325 0.967989 0.117526 0.146666
H53   H     H_    0.132324 0.467987 0.117526 0.146667
H54   H     H_    0.449856 0.034098 0.108046 0.208212
N1    N     N_2   0.501330 1.000000 0.852150 -0.024415
N2    N     N_2   0.297925 0.807415 0.259676 -0.331010
N3    N     N_2   0.770633 0.647469 0.266553 -0.310614
N4    N     N_2   0.797926 0.307413 0.259676 -0.331010
N5    N     N_2   0.429894 0.955180 0.906166 -0.247551
N6    N     N_2   0.929894 0.455181 0.906166 -0.247551
N7    N     N_2   0.001330 0.500000 0.852150 -0.024415
N8    N     N_2   0.501360 0.000000 0.147810 -0.190002
N9    N     N_2   0.001360 0.500000 0.147810 -0.190004
N10   N     N_2   0.599071 0.732775 0.325300 -0.294647
N11   N     N_2   0.607337 0.258761 0.312999 -0.281967
N12   N     N_2   0.099071 0.232774 0.325301 -0.294648
N13   N     N_2   0.107336 0.758762 0.313001 -0.281967
N14   N     N_2   0.270634 0.147472 0.266553 -0.310612
O1    O     O_R   0.409520 0.909540 0.613040 -0.629255
O2    O     O_R   0.590440 0.909540 0.613100 -0.609622
O3    O     O_R   0.090440 0.590460 0.613100 -0.612779
O4    O     O_R   0.090440 0.409540 0.613100 -0.609623
O5    O     O_R   0.590480 0.090460 0.386960 -0.582236
O6    O     O_R   0.590480 0.909540 0.386960 -0.592897
O7    O     O_R   0.090480 0.590460 0.386960 -0.582236
O8    O     O_R   0.090480 0.409540 0.386960 -0.592898
O9    O     O_3   0.249035 0.176962 0.631847 -0.791359
O10   O     O_3   0.237314 0.843029 0.617509 -0.787918
O11   O     O_3   0.749035 0.676962 0.631847 -0.791359
O12   O     O_R   0.409520 0.090460 0.613040 -0.620892
O13   O     O_3   0.737314 0.343030 0.617508 -0.787918
O14   O     O_R   0.909520 0.409540 0.613040 -0.629255
O15   O     O_R   0.909520 0.590460 0.613040 -0.620892
O16   O     O_R   0.409560 0.909540 0.386900 -0.619840
O17   O     O_R   0.409560 0.090460 0.386900 -0.618516
O18   O     O_R   0.909560 0.409540 0.386900 -0.619841
O19   O     O_R   0.909560 0.590460 0.386900 -0.618515
O20   O     O_R   0.590440 0.090460 0.613100 -0.612780
Zn1   Zn    Zn3+2 0.499970 0.000000 0.650990 0.952231
Zn2   Zn    Zn3+2 0.999970 0.500000 0.650990 0.952231
Zn3   Zn    Zn3+2 0.500030 0.000000 0.349010 0.936516
Zn4   Zn    Zn3+2 0.000030 0.500000 0.349010 0.936515

loop_
_geom_bond_atom_site_label_1
_geom_bond_atom_site_label_2
_ccdc_geom_bond_type
C3    N12   S    
H29   N3    S    
O20   Zn1   S    
H42   N5    S    
C4    C8    D    
C26   H17   S    
H11   N12   S    
N1    Zn1   S    
C12   O17   A    
H25   N2    S    
C17   C23   S    
C31   H44   S    
C19   H51   S    
C19   C21   S    
C25   H15   S    
C3    C7    D    
C10   C15   D    
C21   H53   S    
C30   H36   S    
C10   N2    S    
C14   O9    S    
C32   H50   S    
H38   O9    S    
H3    N10   S    
C28   N2    S    
C8    C36   S    
C2    C13   S    
C1    O16   A    
C7    H23   S    
C30   N4    S    
H47   N6    S    
H7    N11   S    
H2    N9    S    
O19   Zn4   S    
O5    Zn3   S    
C22   H6    S    
H41   O13   S    
C1    C15   S    
O6    Zn3   S    
H39   O10   S    
O16   Zn3   S    
C21   N9    D    
N9    Zn4   S    
C5    C38   D    
O17   Zn3   S    
C33   O15   A    
C34   O5    A    
O8    Zn4   S    
C2    C6    D    
C36   O7    A    
C26   N13   S    
C29   H31   S    
C8    H34   S    
O7    Zn4   S    
C13   N4    S    
C24   H10   S    
H40   O11   S    
O15   Zn2   S    
C23   O14   A    
C29   N3    S    
C30   H35   S    
C19   N7    D    
N8    Zn3   S    
C37   O8    A    
C27   N14   S    
C9    N14   S    
C32   H49   S    
C20   H52   S    
C31   H46   S    
C6    C34   S    
H20   N14   S    
C11   C38   S    
C28   H28   S    
C9    C14   D    
C25   H13   S    
C3    C9    S    
C27   H24   S    
C16   C33   S    
C29   H30   S    
C11   C16   D    
O3    Zn2   S    
C22   H5    S    
C20   N8    D    
C34   O20   A    
C32   H48   S    
C33   O19   A    
C18   H45   S    
C7    C37   S    
O18   Zn4   S    
C6    H12   S    
C37   O4    A    
C23   O18   A    
C1    O1    A    
C12   O12   A    
C28   H26   S    
C12   C14   S    
C5    H1    S    
O12   Zn1   S    
C4    C10   S    
N1    N5    S    
H54   N8    S    
C29   H32   S    
C35   O2    A    
C11   N3    S    
H16   N13   S    
C24   H9    S    
C26   H18   S    
O14   Zn2   S    
C25   N12   S    
N7    Zn2   S    
H33   N4    S    
C4    N13   S    
C31   H43   S    
C13   C17   D    
C27   H22   S    
C24   N11   S    
C24   H8    S    
C28   H27   S    
C25   H14   S    
O1    Zn1   S    
C38   N10   S    
C27   H21   S    
C16   O11   S    
C30   H37   S    
C22   H4    S    
C22   N10   S    
C2    N11   S    
C5    C35   S    
C32   N6    S    
C18   C20   S    
C31   N5    S    
O2    Zn1   S    
C26   H19   S    
C17   O13   S    
N6    N7    S    
C36   O3    A    
C18   N1    D    
C15   O10   S    
C35   O6    A    
O4    Zn2   S    
