data_mof_unit_47718.cif
_audit_creation_date              2012-12-10T17:03:41-0500
_audit_creation_method            fapswitch 2.2
_symmetry_space_group_name_H-M    P1
_symmetry_Int_Tables_number       1
_space_group_crystal_system       triclinic
_cell_length_a                    10.038233
_cell_length_b                    10.70942
_cell_length_c                    13.095397
_cell_angle_alpha                 89.914431
_cell_angle_beta                  70.138039
_cell_angle_gamma                 89.926403
_cell_volume                      1324.05637824

loop_
_atom_site_label
_atom_site_type_symbol
_atom_type_description
_atom_site_fract_x
_atom_site_fract_y
_atom_site_fract_z
_atom_type_partial_charge
C1    C     C_R   0.500220 0.737265 0.499763 0.932423
C2    C     C_R   0.429603 0.476203 0.985404 -0.048608
C3    C     C_R   0.454836 0.437594 0.877973 -0.118273
C4    C     C_R   0.537045 0.456023 0.030711 0.042560
C5    C     C_R   0.654825 0.378162 0.977266 -0.044757
C6    C     C_R   0.662031 0.318724 0.880347 0.346855
C7    C     C_R   0.564415 0.350533 0.829809 0.526328
C8    C     C_R   0.531040 0.513169 0.127517 -0.130904
C9    C     C_R   0.744022 0.406758 0.126280 -0.169140
C10   C     C_R   0.368651 0.486812 0.822315 -0.137530
C11   C     C_2   0.591093 0.064221 0.543005 0.530547
C12   C     C_R   0.421128 0.494393 0.704148 0.935712
C13   C     C_2   0.487854 0.131205 0.525320 -0.403361
C14   C     C_2   0.574644 0.929386 0.551463 -0.296567
C15   C     C_2   0.502962 0.869202 0.497514 -0.390800
C16   C     C_2   0.109320 0.456244 0.420797 0.531325
C17   C     C_2   0.957082 0.440335 0.429403 0.579285
C18   C     C_R   0.497339 0.262669 0.506539 0.979228
C19   C     C_R   0.578675 0.499708 0.295756 0.832659
C20   C     C_R   0.759963 0.357567 0.024339 -0.119243
C21   C     C_R   0.625818 0.480557 0.179319 -0.076485
C22   C     C_R   0.239905 0.545056 0.879821 -0.272856
C23   C     C_R   0.202005 0.566012 0.990742 0.541856
C24   C     C_R   0.297537 0.532529 0.043486 -0.231826
H1    H     H_    0.818716 0.381098 0.166057 0.201357
H2    H     H_    0.389650 0.088686 0.525839 0.116444
H3    H     H_    0.628304 0.878631 0.598270 0.192120
H4    H     H_    0.450676 0.914920 0.447514 0.146518
H5    H     H_    0.071228 0.510133 0.573529 0.179485
H6    H     H_    0.851079 0.299175 0.984968 0.183797
H7    H     H_    0.448502 0.579224 0.167635 0.142648
H8    H     H_    0.170237 0.578308 0.838014 0.181214
H9    H     H_    0.264226 0.546395 0.130058 0.179180
N1    N     N_2   0.148270 0.498670 0.498870 -0.233850
N2    N     N_2   0.852610 0.498640 0.498840 0.082480
O1    O     O_R   0.386950 0.680940 0.500020 -0.616185
O2    O     O_R   0.613110 0.680900 0.499980 -0.582408
O3    O     O_R   0.330780 0.500000 0.653640 -0.639992
O4    O     O_R   0.556930 0.499960 0.653610 -0.539155
O5    O     O_R   0.386890 0.319100 0.500020 -0.623218
O6    O     O_R   0.613050 0.319060 0.499980 -0.511907
O7    O     O_R   0.443070 0.500040 0.346390 -0.543188
O8    O     O_R   0.669220 0.500000 0.346360 -0.607954
Zn1   Zn    Zn3+2 0.349000 0.500030 0.500020 0.994761
Zn2   Zn    Zn3+2 0.651000 0.499970 0.499980 1.102088
F1    F     F_    0.209410 0.415663 0.328237 -0.644745
F2    F     F_    0.928769 0.362022 0.357932 -0.681898
F3    F     F_    0.884378 0.599117 0.546568 -0.655831
O9    O     O_3   0.767713 0.232438 0.832760 -0.610685
C25   C     C_3   0.711189 0.109643 0.849715 0.191554
H10   H     H_    0.727249 0.066019 0.769556 0.194009
H11   H     H_    0.594946 0.104757 0.895939 0.079385
C26   C     C_3   0.787074 0.031367 0.911191 -0.434780
H12   H     H_    0.772382 0.075188 0.991133 0.217204
H13   H     H_    0.738502 0.936899 0.926456 0.190969
C27   C     C_3   0.945145 0.017554 0.847918 -0.779300
H14   H     H_    0.961549 0.969047 0.769704 0.245445
H15   H     H_    0.995425 0.961155 0.896149 0.235238
H16   H     H_    0.997317 0.110422 0.831863 0.282171
O10   O     O_3   0.067795 0.612890 0.045727 -0.638386
C28   C     C_3   0.071965 0.719556 0.108466 0.037005
H17   H     H_    0.019266 0.797409 0.080758 0.165772
H18   H     H_    0.180711 0.753056 0.099362 0.115571
C29   C     C_3   0.988654 0.692850 0.227882 -0.275237
H19   H     H_    0.878205 0.666784 0.236569 0.240703
H20   H     H_    0.038020 0.613172 0.255888 0.233041
C30   C     C_3   0.985619 0.805878 0.299356 -0.966472
H21   H     H_    0.094940 0.832251 0.293592 0.262757
H22   H     H_    0.924543 0.782422 0.385126 0.302479
H23   H     H_    0.933844 0.886404 0.274366 0.254191
F4    F     F_    0.571086 0.288528 0.737916 -0.640634
O11   O     O_3   0.700739 0.121395 0.567531 -0.569945
C31   C     C_3   0.832977 0.080948 0.494825 0.093355
H24   H     H_    0.847974 0.117774 0.412085 0.186528
H25   H     H_    0.842221 0.977427 0.491175 0.126290
C32   C     C_3   0.950532 0.130216 0.533482 -0.266579
H26   H     H_    0.935696 0.231643 0.550495 0.239300
H27   H     H_    0.944525 0.082702 0.610278 0.213806
C33   C     C_3   0.096688 0.107349 0.449358 -0.925197
H28   H     H_    0.116065 0.005604 0.435614 0.255081
H29   H     H_    0.178823 0.146811 0.479133 0.274420
H30   H     H_    0.105560 0.153491 0.371309 0.310750

loop_
_geom_bond_atom_site_label_1
_geom_bond_atom_site_label_2
_ccdc_geom_bond_type
C31   H24   S    
C32   C33   S    
C4    C8    A    
C9    H1    S    
C5    C20   A    
C20   H6    S    
C26   H12   S    
C10   C22   A    
C22   H8    S    
C13   C18   S    
C19   C21   S    
C32   H27   S    
C3    C7    A    
C7    F4    S    
C5    C6    A    
C11   C14   S    
C27   H14   S    
C28   H18   S    
C18   O5    A    
C16   N1    D    
C16   C17   S    
C25   H11   S    
C23   C24   A    
C1    C15   S    
C14   H3    S    
C19   O7    A    
C1    O2    A    
O4    Zn2   S    
C31   H25   S    
O7    Zn1   S    
N2    F3    S    
C19   O8    A    
C8    C21   A    
C26   H13   S    
C23   O10   S    
C25   C26   S    
C30   H21   S    
C29   C30   S    
N1    Zn1   S    
C32   H26   S    
C18   O6    A    
C16   F1    S    
C33   H29   S    
C11   O11   S    
O11   C31   S    
H5    N1    S    
O10   C28   S    
C30   H22   S    
C29   H20   S    
C28   C29   S    
C2    C4    A    
O3    Zn1   S    
C9    C20   A    
C25   H10   S    
O8    Zn2   S    
C10   C12   S    
C2    C24   A    
C31   C32   S    
C13   H2    S    
O1    Zn1   S    
O2    Zn2   S    
N2    Zn2   S    
C26   C27   S    
C14   C15   D    
C8    H7    S    
C17   F2    S    
C4    C5    A    
C33   H30   S    
C6    C7    A    
C24   H9    S    
C27   H16   S    
C30   H23   S    
C29   H19   S    
C12   O4    A    
C2    C3    A    
C3    C10   A    
C11   C13   D    
C9    C21   A    
C15   H4    S    
C27   H15   S    
C6    O9    S    
C12   O3    A    
C28   H17   S    
C33   H28   S    
O5    Zn1   S    
O9    C25   S    
O6    Zn2   S    
C22   C23   A    
C17   N2    D    
C1    O1    A    
