data_mof_unit_53490.cif
_audit_creation_date              2013-03-05T16:00:24-0500
_audit_creation_method            fapswitch 2.2
_symmetry_space_group_name_H-M    P1
_symmetry_Int_Tables_number       1
_space_group_crystal_system       triclinic
_cell_length_a                    8.205685
_cell_length_b                    12.716959
_cell_length_c                    26.953887
_cell_angle_alpha                 97.009465
_cell_angle_beta                  92.585645
_cell_angle_gamma                 81.376165
_cell_volume                      2759.06004809

loop_
_atom_site_label
_atom_site_type_symbol
_atom_site_description
_atom_site_fract_x
_atom_site_fract_y
_atom_site_fract_z
_atom_type_partial_charge
P1    P     P_3+3 0.072810 0.589830 0.610360 0.482468
O1    O     O_2   0.907040 0.557650 0.617910 -0.361963
O2    O     O_3   0.139040 0.557570 0.557730 -0.403253
O3    O     O_3   0.684960 0.360550 0.588460 -0.386176
O4    O     O_2   0.843301 0.420297 0.672758 -0.405916
O5    O     O_3   0.041259 0.729210 0.624402 -0.551706
O6    O     O_3   0.678268 0.264647 0.678955 -0.507108
H1    H     H_    0.776899 0.166849 0.617101 0.153284
C1    C     C_3   0.645335 0.080578 0.662027 -0.977381
H2    H     H_    0.631905 0.015246 0.631479 0.241354
H3    H     H_    0.755183 0.056419 0.685868 0.271509
P2    P     P_3+3 0.661990 0.251250 0.462170 0.453327
P3    P     P_3+3 0.143033 0.167493 0.565652 0.433372
O7    O     O_2   0.841490 0.235060 0.476710 -0.377261
O8    O     O_3   0.099640 0.305100 0.564190 -0.394977
O9    O     O_2   0.009461 0.116131 0.533197 -0.382152
O10   O     O_3   0.661399 0.215493 0.397447 -0.578229
O11   O     O_3   0.114922 0.137590 0.626036 -0.532446
C2    C     C_3   0.173442 0.216091 0.660583 0.399942
H4    H     H_    0.105674 0.296690 0.656117 0.148909
H5    H     H_    0.306868 0.216639 0.656102 0.049765
C3    C     C_3   0.146450 0.192008 0.713183 -0.880257
H6    H     H_    0.013461 0.189598 0.718225 0.276278
H7    H     H_    0.218446 0.113535 0.719831 0.252398
C4    C     C_3   0.214437 0.222870 0.417755 0.379144
H8    H     H_    0.343755 0.236495 0.423620 0.098711
H9    H     H_    0.143498 0.253654 0.451948 0.138815
C5    C     C_3   0.208799 0.103471 0.407299 -0.901296
H10   H     H_    0.261314 0.072577 0.370368 0.261064
H11   H     H_    0.280052 0.060535 0.436472 0.234806
H12   H     H_    0.079233 0.088249 0.406421 0.266052
Ba1   Ba    Ba6+2 0.859560 0.448380 0.523550 1.541316
C6    C     C_3   0.981735 0.777753 0.582136 0.366281
H13   H     H_    0.853511 0.763663 0.574426 0.096663
H14   H     H_    0.057276 0.747492 0.548857 0.141489
C7    C     C_3   0.986245 0.897253 0.593403 -0.876495
H15   H     H_    0.922416 0.928526 0.628662 0.262034
H16   H     H_    0.924564 0.940040 0.562742 0.233968
H17   H     H_    0.116051 0.912490 0.597776 0.267182
C8    C     C_3   0.714555 0.294709 0.373435 0.425969
H18   H     H_    0.823083 0.324202 0.393055 0.113570
H19   H     H_    0.611979 0.361768 0.371560 0.095185
C9    C     C_3   0.762903 0.245838 0.320766 -0.951975
H20   H     H_    0.859033 0.174767 0.322586 0.274950
H21   H     H_    0.813265 0.304172 0.300691 0.225188
H22   H     H_    0.653447 0.220707 0.299439 0.262987
P4    P     P_3+3 0.116900 0.410080 0.389630 0.480156
O12   O     O_2   0.282660 0.442310 0.382060 -0.366238
O13   O     O_3   0.050670 0.442340 0.442260 -0.403699
O14   O     O_3   0.504750 0.639360 0.411530 -0.387974
O15   O     O_3   0.148550 0.270717 0.375869 -0.554295
P5    P     P_3+3 0.051031 0.833505 0.433870 0.437404
O16   O     O_3   0.618400 0.630290 0.524520 -0.380866
O17   O     O_3   0.090070 0.694820 0.435810 -0.386513
O18   O     O_2   0.190560 0.883031 0.464289 -0.382992
O19   O     O_3   0.075783 0.859292 0.372598 -0.543347
Ba2   Ba    Ba6+2 0.330270 0.551530 0.476440 1.547342
P6    P     P_3+3 0.676959 0.385485 0.653720 0.471279
C10   C     C_3   0.664484 0.182376 0.639952 0.450048
H23   H     H_    0.554256 0.203318 0.615870 0.040162
H24   H     H_    0.534283 0.093879 0.685288 0.272458
O20   O     O_3   0.571310 0.369620 0.475470 -0.389507
C11   C     C_3   0.479517 0.720208 0.628391 0.418469
H25   H     H_    0.367531 0.693206 0.609565 0.113337
H26   H     H_    0.580263 0.651397 0.628440 0.096686
C12   C     C_3   0.437546 0.764695 0.682033 -0.944615
H27   H     H_    0.342452 0.836818 0.682318 0.277392
H28   H     H_    0.388113 0.704366 0.701144 0.224809
H29   H     H_    0.549661 0.786915 0.702837 0.262814
P7    P     P_3+3 0.533175 0.764632 0.540362 0.419521
O21   O     O_2   0.348200 0.764910 0.523260 -0.373011
O22   O     O_3   0.531976 0.801132 0.605026 -0.582279
H30   H     H_    0.186864 0.255586 0.740816 0.248753
C13   C     C_3   0.994791 0.787989 0.339883 0.343280
H31   H     H_    0.064215 0.705709 0.337931 0.141177
H32   H     H_    0.868969 0.785400 0.352531 0.053725
C14   C     C_3   0.977600 0.825742 0.287952 -0.892266
H33   H     H_    0.881777 0.786285 0.265905 0.241234
H34   H     H_    0.934151 0.913345 0.291624 0.201424
P8    P     P_3+3 0.512832 0.617408 0.346313 0.496684
C15   C     C_3   0.515803 0.821506 0.362605 0.459230
H35   H     H_    0.620348 0.800831 0.388788 0.036189
O23   O     O_2   0.346666 0.582304 0.327168 -0.373787
O24   O     O_3   0.510862 0.740087 0.322618 -0.484227
H36   H     H_    0.398732 0.835300 0.383065 0.158297
H37   H     H_    0.653453 0.912554 0.320812 0.270563
C16   C     C_3   0.539378 0.924617 0.342458 -0.968548
H38   H     H_    0.549098 0.988585 0.373920 0.230036
H39   H     H_    0.433877 0.950137 0.317397 0.288412
C17   C     C_R   0.039571 0.415276 0.179367 0.543097
O25   O     O_2   0.093663 0.338754 0.201637 -0.594082
N1    N     N_R   0.934892 0.500342 0.203331 -0.158691
C18   C     C_R   0.869505 0.585087 0.177041 0.547061
C19   C     C_2   0.732940 0.520872 0.270074 -0.159830
C20   C     C_3   0.690801 0.516756 0.324100 0.148783
C21   C     C_1   0.983784 0.478264 0.342967 0.280900
C22   C     C_2   0.024255 0.476040 0.295438 -0.181388
C23   C     C_2   0.892630 0.500147 0.255695 0.107382
C24   C     C_R   0.016550 0.500685 0.102074 -0.059579
C25   C     C_R   0.082292 0.414846 0.128871 -0.056561
C26   C     C_R   0.188882 0.329719 0.104559 -0.084062
C27   C     C_R   0.909363 0.586213 0.126518 -0.055374
C28   C     C_2   0.839448 0.527579 0.358367 -0.481424
H40   H     H_    0.152362 0.457107 0.285127 0.196774
H41   H     H_    0.242154 0.262527 0.124057 0.169424
C29   C     C_2   0.352801 0.476573 0.641264 -0.474818
C30   C     C_R   0.204350 0.413065 0.975200 0.042121
C31   C     C_R   0.030341 0.588534 0.973206 0.043122
C32   C     C_R   0.137186 0.500792 0.948839 0.083848
C33   C     C_R   0.309029 0.327594 0.948913 -0.202724
C34   C     C_R   0.346576 0.328387 0.899055 -0.082949
C35   C     C_R   0.282230 0.414377 0.872711 -0.052403
C36   C     C_R   0.177411 0.500813 0.897503 -0.063548
C37   C     C_R   0.113140 0.587383 0.870965 -0.058497
C38   C     C_R   0.155273 0.586968 0.820462 0.528789
N2    N     N_R   0.257493 0.501124 0.796195 -0.163271
C39   C     C_R   0.320626 0.415224 0.822002 0.509004
C40   C     C_2   0.458931 0.483231 0.729634 -0.154446
C41   C     C_3   0.501041 0.487903 0.675600 0.161791
C42   C     C_1   0.207420 0.523162 0.656896 0.293828
C43   C     C_2   0.167153 0.524513 0.704316 -0.218610
C44   C     C_2   0.299287 0.501739 0.743910 0.109558
O26   O     O_2   0.409508 0.338794 0.800756 -0.587871
C45   C     C_R   0.164918 0.413353 0.026522 0.042273
C46   C     C_R   0.057248 0.500787 0.050783 0.085403
C47   C     C_R   0.989482 0.588253 0.024338 0.041542
C48   C     C_R   0.229444 0.328860 0.054813 -0.201534
H42   H     H_    0.558428 0.471424 0.757245 0.163989
H43   H     H_    0.427417 0.260508 0.881106 0.168674
H44   H     H_    0.364643 0.257751 0.965609 0.126451
H45   H     H_    0.312647 0.259956 0.039792 0.126849
O27   O     O_2   0.776764 0.660256 0.197631 -0.590818
C49   C     C_R   0.843577 0.671599 0.099990 -0.075937
H46   H     H_    0.633293 0.533318 0.242570 0.180726
H47   H     H_    0.760665 0.738729 0.117665 0.171920
C50   C     C_R   0.968024 0.673967 0.945223 -0.201257
C51   C     C_R   0.008668 0.673265 0.895529 -0.087932
O28   O     O_2   0.102663 0.664066 0.798392 -0.590866
C52   C     C_R   0.882292 0.672778 0.050297 -0.198844
H48   H     H_    0.887110 0.743763 0.960498 0.126482
H49   H     H_    0.957039 0.741157 0.876260 0.167857
H50   H     H_    0.039175 0.543171 0.714781 0.191805
H51   H     H_    0.824701 0.741867 0.033396 0.126642
H52   H     H_    0.828241 0.574467 0.394864 0.170660
H53   H     H_    0.365353 0.431578 0.604353 0.170091
C53   C     C_R   0.762101 0.821126 0.480891 -0.531070
C54   C     C_R   0.432726 0.189380 0.520647 -0.541255
C55   C     C_R   0.410756 0.010529 0.537468 -0.199654
C56   C     C_R   0.346962 0.118310 0.540296 0.222119
C57   C     C_R   0.576881 0.152785 0.494478 0.300489
C58   C     C_R   0.640595 0.041503 0.489028 -0.068544
C59   C     C_R   0.556829 0.970200 0.511738 -0.065495
C60   C     C_R   0.619575 0.859946 0.507196 0.274094
C61   C     C_R   0.848763 0.889902 0.460157 0.222827
C62   C     C_R   0.785691 0.998911 0.462428 -0.185519
H54   H     H_    0.341686 0.959233 0.554351 0.185480
H55   H     H_    0.852788 0.048793 0.444119 0.181495
H56   H     H_    0.810576 0.736767 0.478707 0.170261
H57   H     H_    0.381852 0.273368 0.523331 0.175969
C63   C     C_2   0.136811 0.799390 0.260268 1.275977
O29   O     O_2   0.191696 0.705919 0.247241 -0.585127
O30   O     O_R   0.221253 0.879856 0.247947 -0.754025
H58   H     H_    0.166527 0.954584 0.260484 0.286347

loop_
_geom_bond_atom_site_label_1
_geom_bond_atom_site_label_2
_geom_bond_distance
_ccdc_geom_bond_type
C12   H28   1.107740 S    
C16   H38   1.110063 S    
C11   H26   1.110129 S    
C29   C41   1.508431 S    
C62   H55   1.074586 S    
P7    C60   1.830391 S    
C2    H4    1.107894 S    
C50   H48   1.075601 S    
C54   H57   1.081866 S    
C28   H52   1.086407 S    
C15   H35   1.107315 S    
N1    C23   1.468887 S    
Ba2   O20   2.807496 S    
P4    O13   1.528626 S    
C14   H33   1.107500 S    
C31   C32   1.422955 A    
C4    C5    1.517410 S    
C29   H53   1.086497 S    
C13   H32   1.108124 S    
O4    P6    1.544332 D    
C1    H24   1.109745 S    
C30   C45   1.434248 A    
C5    H10   1.106080 S    
C54   C56   1.390615 A    
O11   C2    1.403855 S    
H1    C10   1.111843 S    
C35   C39   1.418122 A    
C12   H29   1.110572 S    
C19   C23   1.361633 D    
P5    C61   1.842883 S    
C38   N2    1.387002 Am   
C6    C7    1.518619 S    
O13   Ba2   2.914310 S    
N2    C39   1.388788 Am   
O1    Ba1   2.786008 S    
P1    O1    1.507123 D    
C40   C44   1.360313 D    
C37   C51   1.400013 A    
C17   C25   1.419886 A    
C33   C34   1.393776 A    
C25   C26   1.400352 A    
C36   C37   1.409194 A    
C26   C48   1.394412 A    
C40   C41   1.522107 S    
C52   H51   1.075424 S    
C34   H43   1.083765 S    
C8    C9    1.523327 S    
C34   C35   1.400477 A    
C20   C28   1.509141 S    
C13   C14   1.528266 S    
P2    O10   1.748273 S    
P4    C21   1.839861 S    
P7    O21   1.565896 D    
C58   C62   1.419094 A    
C18   O27   1.221218 D    
C1    H2    1.110269 S    
O6    P6    1.753196 S    
P5    O18   1.544445 D    
C32   C36   1.436990 A    
C8    H19   1.108916 S    
C12   H27   1.111019 S    
C11   C12   1.521859 S    
C10   H23   1.107867 S    
P2    Ba1   3.408004 S    
C30   C32   1.423717 A    
C19   C20   1.520633 S    
C40   H42   1.085664 S    
Ba1   Ba2   4.540977 S    
P8    O23   1.545167 D    
O16   P7    1.755197 S    
O6    C10   1.403186 S    
C35   C36   1.408405 A    
P5    O17   1.751398 S    
C22   C23   1.511479 S    
C14   H34   1.111373 S    
C26   H41   1.083635 S    
C47   C52   1.416706 A    
O19   C13   1.405053 S    
C13   H31   1.110255 S    
P8    O24   1.754083 S    
P2    C57   1.843166 S    
O12   Ba2   2.786387 S    
C2    C3    1.519059 S    
C55   C56   1.386161 A    
C24   C46   1.437029 A    
C37   C38   1.418696 A    
O16   Ba2   2.896461 S    
H37   C16   1.106580 S    
P4    O15   1.748204 S    
C4    H8    1.101974 S    
C7    H17   1.109492 S    
P1    Ba1   3.364521 S    
P1    O5    1.749135 S    
O14   P8    1.748596 S    
P1    O2    1.528621 S    
O10   C8    1.392970 S    
C63   O30   1.397803 S    
C9    H20   1.111323 S    
C4    O15   1.396810 S    
P4    Ba2   3.365082 S    
P2    O20   1.582589 S    
C17   N1    1.387844 Am   
P4    O12   1.507426 D    
C53   C61   1.387330 A    
C38   O28   1.222197 D    
C58   C59   1.424685 A    
C21   C22   1.333794 D    
C54   C57   1.394068 A    
C6    H13   1.100027 S    
C61   C62   1.400111 A    
C15   C16   1.520226 S    
Ba2   O21   2.871367 S    
P8    C20   1.860313 S    
C9    H21   1.106331 S    
C43   C44   1.508417 S    
O3    Ba1   2.746675 S    
N2    C44   1.466577 S    
C45   C48   1.417505 A    
P3    O11   1.748745 S    
C8    H18   1.105744 S    
P2    O7    1.497380 D    
C49   C52   1.392810 A    
C1    H3    1.110259 S    
C46   C47   1.423647 A    
C30   C33   1.417122 A    
C3    H7    1.110979 S    
C21   C28   1.313936 D    
C7    H16   1.106636 S    
O2    Ba2   2.738984 S    
Ba1   O16   2.808071 S    
C15   O24   1.404162 S    
C42   C43   1.331983 D    
O30   H58   1.013053 S    
C51   H49   1.083773 S    
C7    H15   1.107206 S    
C29   C42   1.313065 D    
C3    H6    1.111170 S    
O14   Ba2   2.746076 S    
C43   H50   1.083666 S    
C5    H12   1.107565 S    
C55   C59   1.408737 A    
O7    Ba1   2.871053 S    
C50   C51   1.393519 A    
O8    Ba1   2.759864 S    
C18   C27   1.417028 A    
C31   C50   1.417511 A    
C53   H56   1.082258 S    
C4    H9    1.110634 S    
C19   H46   1.085509 S    
O5    C6    1.395908 S    
C63   O29   1.221026 D    
P3    O8    1.737628 S    
C39   O26   1.222209 D    
C27   C49   1.400229 A    
P3    C56   1.828513 S    
C24   C25   1.408901 A    
C17   O25   1.222000 D    
C53   C60   1.389399 A    
C5    H11   1.107181 S    
N1    C18   1.389294 Am   
C6    H14   1.109648 S    
C33   H44   1.075696 S    
O2    Ba1   2.913479 S    
C9    H22   1.110819 S    
C48   H45   1.075546 S    
Ba1   O13   2.738386 S    
C22   H40   1.083676 S    
C14   C63   1.507153 S    
Ba1   O20   2.897297 S    
C11   H25   1.108985 S    
C24   C27   1.407542 A    
P6    C41   1.858346 S    
C11   O22   1.398740 S    
P3    O9    1.543353 D    
O3    P6    1.751283 S    
C49   H47   1.083700 S    
C16   H39   1.107940 S    
C57   C58   1.425457 A    
P7    O22   1.748174 S    
C59   C60   1.411823 A    
C55   H54   1.077238 S    
C3    H30   1.108863 S    
C31   C47   1.433557 A    
C1    C10   1.520547 S    
P1    C42   1.834644 S    
C15   H36   1.109678 S    
P5    O19   1.748918 S    
C45   C46   1.422873 A    
C2    H5    1.108048 S    
O17   Ba2   2.760409 S    
