data_mof_unit_23972.cif
_audit_creation_date              2012-12-10T19:34:40-0500
_audit_creation_method            fapswitch 2.2
_symmetry_space_group_name_H-M    P1
_symmetry_Int_Tables_number       1
_space_group_crystal_system       triclinic
_cell_length_a                    10.867057
_cell_length_b                    15.855789
_cell_length_c                    17.078604
_cell_angle_alpha                 94.966647
_cell_angle_beta                  93.159594
_cell_angle_gamma                 90.938267
_cell_volume                      2926.57460696

loop_
_atom_site_label
_atom_site_type_symbol
_atom_type_description
_atom_site_fract_x
_atom_site_fract_y
_atom_site_fract_z
_atom_type_partial_charge
C1    C     C_R   0.498091 0.490459 0.349239 0.921855
C2    C     C_R   0.494459 0.479890 0.099937 0.175962
C3    C     C_R   0.598618 0.453280 0.142952 0.362448
C4    C     C_R   0.262609 0.501498 0.505458 0.815753
C5    C     C_R   0.598504 0.454654 0.225086 -0.014144
C6    C     C_R   0.526543 0.458665 0.862935 -0.320109
C7    C     C_R   0.523689 0.448830 0.781304 0.368192
C8    C     C_R   0.476281 0.529980 0.902878 0.150003
C9    C     C_R   0.482315 0.515092 0.737445 -0.296357
C10   C     C_R   0.427002 0.586176 0.776538 0.276581
C11   C     C_R   0.427474 0.594645 0.859654 0.348061
C12   C     C_R   0.061165 0.430287 0.526287 -0.058908
C13   C     C_R   0.443875 0.755658 0.457850 0.230797
C14   C     C_R   0.439596 0.844714 0.465853 0.027747
C15   C     C_R   0.518597 0.891842 0.522844 0.318332
C16   C     C_R   0.494122 0.509811 0.651249 0.894032
C17   C     C_R   0.595336 0.846608 0.572590 -0.072571
C18   C     C_R   0.592960 0.756381 0.564888 0.240560
C19   C     C_R   0.556963 0.157995 0.539326 -0.392735
C20   C     C_R   0.560233 0.246827 0.541004 0.220049
C21   C     C_R   0.479716 0.109898 0.483425 0.266957
C22   C     C_R   0.408241 0.242747 0.434899 0.584943
C23   C     C_R   0.128264 0.504535 0.512184 -0.124567
C24   C     C_R   0.408230 0.152909 0.428833 -0.062975
C25   C     C_R   0.737106 0.498435 0.492797 0.856181
C26   C     C_R   0.112171 0.362027 0.565700 0.172132
C27   C     C_R   0.058179 0.280708 0.551155 0.176571
C28   C     C_R   0.950351 0.268406 0.501916 0.086770
C29   C     C_R   0.888941 0.339377 0.476956 -0.230635
C30   C     C_R   0.938382 0.421798 0.496294 -0.006807
C31   C     C_3   0.403974 0.717613 0.728817 0.150529
C32   C     C_3   0.310865 0.785641 0.751026 -0.336984
C33   C     C_3   0.365051 0.874359 0.746245 -0.948426
C34   C     C_R   0.064461 0.576530 0.489739 0.114838
C35   C     C_3   0.445918 0.719441 0.938363 0.036695
C36   C     C_3   0.373886 0.779511 0.992778 -0.309938
C37   C     C_3   0.458369 0.847152 0.037667 -0.929360
C38   C     C_3   0.218361 0.275281 0.377157 0.097192
C39   C     C_3   0.164205 0.266993 0.292274 -0.326061
C40   C     C_3   0.023515 0.266380 0.288990 -0.922837
C41   C     C_3   0.468763 0.309112 0.750136 0.078065
C42   C     C_3   0.522549 0.237375 0.794994 -0.372481
C43   C     C_3   0.433734 0.161229 0.789684 -0.886882
C44   C     C_3   0.774551 0.488340 0.085937 0.053327
C45   C     C_R   0.936131 0.572468 0.477009 0.094537
C46   C     C_3   0.881921 0.452548 0.040408 -0.317622
C47   C     C_3   0.966242 0.523071 0.017258 -0.907702
C48   C     C_R   0.871533 0.496073 0.484735 -0.120636
C49   C     C_R   0.496522 0.486590 0.263960 -0.119420
C50   C     C_R   0.392193 0.513532 0.221585 0.061269
C51   C     C_R   0.389955 0.509337 0.139196 0.066049
Cu1   Cu    Cu3+1 0.493970 0.415220 0.496180 0.992160
Cu2   Cu    Cu3+1 0.506030 0.584780 0.503820 0.977299
H1    H     H_    0.617564 0.127238 0.580011 0.185409
H2    H     H_    0.227430 0.776614 0.710261 0.220043
H3    H     H_    0.282308 0.779703 0.811664 0.250287
H4    H     H_    0.447863 0.885213 0.787239 0.253400
H5    H     H_    0.295571 0.922243 0.762927 0.265382
H6    H     H_    0.390835 0.882600 0.685295 0.268448
H7    H     H_    0.253796 0.481751 0.054300 0.246492
H8    H     H_    0.296289 0.586056 0.068669 0.252777
H9    H     H_    0.492537 0.757006 0.896298 0.129625
H10   H     H_    0.518189 0.689646 0.974901 0.148503
H11   H     H_    0.301932 0.810943 0.957532 0.218671
H12   H     H_    0.805105 0.329119 0.440051 0.183426
H13   H     H_    0.327554 0.742695 0.035653 0.219283
H14   H     H_    0.529719 0.817263 0.074631 0.254403
H15   H     H_    0.403237 0.889583 0.076581 0.258869
H16   H     H_    0.504057 0.885751 0.995912 0.256434
H17   H     H_    0.267495 0.603589 0.247929 0.236679
H18   H     H_    0.211535 0.502829 0.243274 0.238324
H19   H     H_    0.734766 0.280510 0.574006 0.205771
H20   H     H_    0.646954 0.269617 0.648038 0.224762
H21   H     H_    0.653915 0.876437 0.686496 0.213378
H22   H     H_    0.766532 0.876646 0.621317 0.217058
H23   H     H_    0.564972 0.408207 0.894714 0.203045
H24   H     H_    0.764550 0.727555 0.605129 0.198632
H25   H     H_    0.657103 0.727951 0.673108 0.173329
H26   H     H_    0.180877 0.333004 0.407266 0.168583
H27   H     H_    0.186262 0.220331 0.407689 0.135192
H28   H     H_    0.197445 0.321110 0.261258 0.225898
H29   H     H_    0.195887 0.207399 0.261343 0.237205
H30   H     H_    0.987799 0.212636 0.319349 0.275312
H31   H     H_    0.987266 0.259337 0.226656 0.258327
H32   H     H_    0.990011 0.326771 0.317326 0.259521
H33   H     H_    0.228226 0.439436 0.641585 0.213396
H34   H     H_    0.111720 0.671926 0.423951 0.208405
H35   H     H_    0.286879 0.344624 0.608600 0.246698
H36   H     H_    0.265560 0.863168 0.422412 0.229890
H37   H     H_    0.376229 0.871677 0.356920 0.233699
H38   H     H_    0.276276 0.065976 0.388511 0.238700
H39   H     H_    0.399998 0.068663 0.332534 0.243845
H40   H     H_    0.330554 0.660786 0.403759 0.291677
H41   H     H_    0.443109 0.696738 0.347934 0.237970
H42   H     H_    0.136429 0.165573 0.540917 0.223575
H43   H     H_    0.051753 0.183991 0.620837 0.225915
H44   H     H_    0.868806 0.161058 0.531159 0.215374
H45   H     H_    0.099318 0.701662 0.521443 0.215474
H46   H     H_    0.825065 0.185892 0.440544 0.224145
H47   H     H_    0.902777 0.658443 0.396921 0.205800
H48   H     H_    0.889301 0.696550 0.492313 0.212464
H49   H     H_    0.439543 0.283158 0.689435 0.174485
H50   H     H_    0.382953 0.331644 0.777869 0.142421
H51   H     H_    0.610818 0.216923 0.770338 0.222517
H52   H     H_    0.541664 0.260181 0.857867 0.220003
H53   H     H_    0.344962 0.179703 0.814829 0.258463
H54   H     H_    0.474609 0.110730 0.823389 0.257240
H55   H     H_    0.416220 0.135574 0.727355 0.264806
H56   H     H_    0.716749 0.361509 0.248661 0.257046
H57   H     H_    0.812184 0.525239 0.140754 0.125642
H58   H     H_    0.723002 0.531703 0.048646 0.158163
H59   H     H_    0.936285 0.410524 0.077372 0.222099
H60   H     H_    0.845224 0.414382 0.986215 0.230289
H61   H     H_    0.913883 0.565542 0.979771 0.255254
H62   H     H_    0.042121 0.495021 0.983384 0.265060
H63   H     H_    0.006779 0.560678 0.070651 0.262809
H64   H     H_    0.780110 0.460405 0.260020 0.218409
H65   H     H_    0.424027 0.723259 0.666686 0.174683
H66   H     H_    0.492166 0.729840 0.764799 0.080696
N1    N     N_2   0.495499 0.470867 0.017109 -0.213350
N2    N     N_3   0.286992 0.542402 0.262714 -0.601721
N3    N     N_3   0.647776 0.294172 0.593472 -0.468305
N4    N     N_3   0.675591 0.893231 0.630962 -0.577189
N5    N     N_3   0.673535 0.710610 0.614299 -0.511367
N6    N     N_3   0.207950 0.375143 0.627349 -0.569096
N7    N     N_3   0.354569 0.886321 0.415370 -0.565355
N8    N     N_3   0.339112 0.106103 0.364958 -0.588824
N9    N     N_3   0.379405 0.713516 0.389832 -0.611639
N10   N     N_3   0.115200 0.210982 0.585987 -0.591050
N11   N     N_3   0.901237 0.184325 0.480533 -0.606894
N12   N     N_2   0.469162 0.537001 0.986071 -0.232988
N13   N     N_3   0.871585 0.644469 0.451226 -0.563674
N14   N     N_R   0.515100 0.712130 0.509560 -0.196796
N15   N     N_2   0.525341 0.983266 0.532106 -0.180934
N16   N     N_2   0.476008 0.019113 0.476263 -0.181327
N17   N     N_R   0.484890 0.287850 0.490450 -0.224933
N18   N     N_3   0.129658 0.654367 0.480977 -0.572693
N19   N     N_3   0.701982 0.424256 0.269568 -0.590240
N20   N     N_3   0.279264 0.531406 0.096697 -0.593911
O1    O     O_R   0.494360 0.420530 0.382500 -0.525801
O2    O     O_3   0.362713 0.659372 0.897169 -0.583531
O3    O     O_3   0.348125 0.285178 0.376827 -0.571742
O4    O     O_3   0.560530 0.373074 0.744804 -0.585260
O5    O     O_3   0.698173 0.420585 0.104197 -0.595760
O6    O     O_R   0.504550 0.563720 0.388950 -0.612066
O7    O     O_R   0.314550 0.428390 0.496780 -0.609479
O8    O     O_R   0.324740 0.571580 0.503230 -0.557832
O9    O     O_R   0.495450 0.436280 0.611050 -0.544941
O10   O     O_R   0.505640 0.579470 0.617500 -0.564207
O11   O     O_R   0.675260 0.428420 0.496770 -0.580364
O12   O     O_R   0.685450 0.571610 0.503220 -0.524598
O13   O     O_3   0.350344 0.636457 0.733482 -0.579443

loop_
_geom_bond_atom_site_label_1
_geom_bond_atom_site_label_2
_ccdc_geom_bond_type
C47   H61   S    
C33   H5    S    
C46   H59   S    
N1    N12   D    
C41   C42   S    
C40   H31   S    
C1    O6    A    
C19   C20   A    
C7    O4    S    
C5    N19   S    
C15   N15   S    
C47   H62   S    
C12   C23   A    
C26   C27   A    
C29   C30   A    
H38   N8    S    
H22   N4    S    
C30   C48   A    
C36   C37   S    
C19   C21   A    
C9    C16   S    
H44   N11   S    
C41   O4    S    
C37   H16   S    
C38   C39   S    
C36   H13   S    
C38   H26   S    
C37   H15   S    
Cu2   O8    S    
C41   H49   S    
C18   N14   A    
C15   C17   A    
C10   O13   S    
C13   N9    S    
C17   N4    S    
H64   N19   S    
C24   N8    S    
C33   H4    S    
C16   O10   A    
H25   N5    S    
C9    C10   A    
C32   H2    S    
C20   N3    S    
C46   H60   S    
C12   C30   A    
H21   N4    S    
C33   H6    S    
C13   C14   A    
H33   N6    S    
Cu2   O10   S    
C38   O3    S    
C40   H30   S    
C5    C49   A    
C50   N2    S    
H34   N18   S    
C44   C46   S    
C50   C51   A    
H36   N7    S    
C47   H63   S    
H45   N18   S    
Cu2   N14   S    
C39   H28   S    
C10   C11   A    
C39   C40   S    
C4    C23   S    
C2    N1    S    
H8    N20   S    
C6    C8    A    
C4    O8    A    
C41   H50   S    
C12   C26   A    
C25   O11   A    
C43   H53   S    
C40   H32   S    
H48   N13   S    
C31   H65   S    
H35   N6    S    
C31   C32   S    
C44   O5    S    
C23   C34   A    
C4    O7    A    
C22   O3    S    
C8    N12   S    
Cu2   O6    S    
C17   C18   A    
H37   N7    S    
C34   C45   A    
C43   H54   S    
C20   N17   A    
C51   N20   S    
C11   O2    S    
C25   C48   S    
C31   H66   S    
N15   N16   D    
C1    O1    A    
C35   O2    S    
C29   H12   S    
C19   H1    S    
Cu1   O11   S    
C49   C50   A    
C27   N10   S    
C22   C24   A    
C42   C43   S    
H39   N8    S    
Cu1   Cu2   S    
H42   N10   S    
C45   C48   A    
C7    C9    A    
C46   C47   S    
C28   C29   A    
Cu1   O7    S    
H46   N11   S    
H19   N3    S    
C13   N14   A    
H18   N2    S    
C3    O5    S    
C39   H29   S    
C3    C5    A    
C42   H51   S    
H47   N13   S    
C6    H23   S    
C6    C7    A    
H41   N9    S    
C34   N18   S    
C14   N7    S    
C16   O9    A    
C25   O12   A    
C32   C33   S    
C2    C3    A    
H40   N9    S    
H24   N5    S    
C31   O13   S    
H17   N2    S    
C38   H27   S    
C8    C11   A    
Cu1   N17   S    
C37   H14   S    
Cu1   O1    S    
C21   N16   S    
C35   H9    S    
C28   N11   S    
C43   H55   S    
C32   H3    S    
C42   H52   S    
C2    C51   A    
H7    N20   S    
C44   H58   S    
C45   N13   S    
Cu1   O9    S    
H20   N3    S    
C21   C24   A    
C22   N17   A    
C27   C28   A    
Cu2   O12   S    
C14   C15   A    
H56   N19   S    
C35   H10   S    
C35   C36   S    
C36   H11   S    
C1    C49   S    
C26   N6    S    
C18   N5    S    
H43   N10   S    
C44   H57   S    
