data_mof_unit_61988.cif
_audit_creation_date              2012-12-11T14:34:46-0500
_audit_creation_method            fapswitch 2.2
_symmetry_space_group_name_H-M    P1
_symmetry_Int_Tables_number       1
_space_group_crystal_system       triclinic
_cell_length_a                    33.620401
_cell_length_b                    7.226654
_cell_length_c                    27.867832
_cell_angle_alpha                 89.999783
_cell_angle_beta                  140.408344
_cell_angle_gamma                 90.000197
_cell_volume                      4315.14382992

loop_
_atom_site_label
_atom_site_type_symbol
_atom_type_description
_atom_site_fract_x
_atom_site_fract_y
_atom_site_fract_z
_atom_type_partial_charge
O1    O     O_R   0.335930 0.530330 0.836120 -0.498316
O2    O     O_R   0.664070 0.469670 0.163880 -0.498452
O3    O     O_R   0.664070 0.530330 0.663880 -0.498311
O4    O     O_R   0.335930 0.469670 0.336120 -0.498453
O5    O     O_R   0.835930 0.030330 0.836120 -0.498313
O6    O     O_R   0.164070 0.969670 0.163880 -0.498454
O7    O     O_R   0.164070 0.030330 0.663880 -0.498311
O8    O     O_R   0.835930 0.969670 0.336120 -0.498453
O9    O     O_R   0.254100 0.856860 0.685510 -0.536694
O10   O     O_R   0.745900 0.143140 0.314490 -0.541848
O11   O     O_R   0.745900 0.856860 0.814490 -0.536695
O12   O     O_R   0.254100 0.143140 0.185510 -0.541848
O13   O     O_R   0.754100 0.356860 0.685510 -0.536695
O14   O     O_R   0.245900 0.643140 0.314490 -0.541848
O15   O     O_R   0.245900 0.356860 0.814490 -0.536695
O16   O     O_R   0.754100 0.643140 0.185510 -0.541847
C1    C     C_R   0.251698 0.692084 0.663425 0.711520
C2    C     C_R   0.748626 0.307889 0.336873 0.714677
C3    C     C_R   0.748303 0.692083 0.836576 0.711529
C4    C     C_R   0.251373 0.307889 0.163127 0.714687
C5    C     C_R   0.751698 0.192084 0.663425 0.711525
C6    C     C_R   0.248627 0.807889 0.336873 0.714674
C7    C     C_R   0.248303 0.192083 0.836576 0.711527
C8    C     C_R   0.751373 0.807890 0.163126 0.714686
O17   O     O_R   0.341180 0.859830 0.836880 -0.545833
O18   O     O_R   0.658820 0.140170 0.163120 -0.542987
O19   O     O_R   0.658820 0.859830 0.663120 -0.545829
O20   O     O_R   0.341180 0.140170 0.336880 -0.542986
O21   O     O_R   0.841180 0.359830 0.836880 -0.545835
O22   O     O_R   0.158820 0.640170 0.163120 -0.542986
O23   O     O_R   0.158820 0.359830 0.663120 -0.545829
O24   O     O_R   0.841180 0.640170 0.336880 -0.542986
O25   O     O_R   0.251370 0.033430 0.816330 -0.541581
O26   O     O_R   0.748630 0.966570 0.183670 -0.537519
O27   O     O_R   0.748630 0.033430 0.683670 -0.541581
O28   O     O_R   0.251370 0.966570 0.316330 -0.537517
O29   O     O_R   0.751370 0.533430 0.816330 -0.541581
O30   O     O_R   0.248630 0.466570 0.183670 -0.537516
O31   O     O_R   0.248630 0.533430 0.683670 -0.541582
O32   O     O_R   0.751370 0.466570 0.316330 -0.537517
C9    C     C_R   0.366384 0.688756 0.863043 0.749906
C10   C     C_R   0.633920 0.310548 0.134932 0.753621
C11   C     C_R   0.633616 0.688756 0.636957 0.749914
C12   C     C_R   0.366080 0.310549 0.365068 0.753619
C13   C     C_R   0.866384 0.188756 0.863042 0.749911
C14   C     C_R   0.133920 0.810548 0.134933 0.753623
C15   C     C_R   0.133616 0.188756 0.636957 0.749914
C16   C     C_R   0.866080 0.810549 0.365068 0.753619
O33   O     O_3   0.220230 0.697940 0.743080 -0.376252
O34   O     O_3   0.779770 0.302060 0.256920 -0.372371
O35   O     O_3   0.779770 0.697940 0.756920 -0.376253
O36   O     O_3   0.220230 0.302060 0.243080 -0.372373
O37   O     O_3   0.720230 0.197940 0.743080 -0.376252
O38   O     O_3   0.279770 0.802060 0.256920 -0.372370
O39   O     O_3   0.279770 0.197940 0.756920 -0.376248
O40   O     O_3   0.720230 0.802060 0.243080 -0.372371
V1    V     V_3+5 0.255280 0.971510 0.751280 1.454777
V2    V     V_3+5 0.744720 0.028490 0.248720 1.470493
V3    V     V_3+5 0.744720 0.971510 0.748720 1.454775
V4    V     V_3+5 0.255280 0.028490 0.251280 1.470494
V5    V     V_3+5 0.755280 0.471510 0.751280 1.454772
V6    V     V_3+5 0.244720 0.528490 0.248720 1.470495
V7    V     V_3+5 0.244720 0.471510 0.748720 1.454776
V8    V     V_3+5 0.755280 0.528490 0.251280 1.470495
C17   C     C_2   0.064003 0.167584 0.570567 -0.410738
C18   C     C_2   0.935201 0.829676 0.435416 -0.403253
C19   C     C_2   0.935997 0.167582 0.929430 -0.410729
C20   C     C_2   0.064798 0.829675 0.064586 -0.403245
C21   C     C_2   0.564003 0.667584 0.570567 -0.410738
C22   C     C_2   0.435201 0.329676 0.435416 -0.403253
C23   C     C_2   0.435997 0.667583 0.929433 -0.410725
C24   C     C_2   0.564799 0.329675 0.064584 -0.403239
C25   C     C_2   0.033842 0.000253 0.547044 0.356917
C26   C     C_2   0.963574 0.987810 0.478390 0.361153
C27   C     C_2   0.966157 0.000247 0.952954 0.356915
C28   C     C_2   0.036425 0.987800 0.021607 0.361151
C29   C     C_2   0.533842 0.500253 0.547044 0.356918
C30   C     C_2   0.463574 0.487810 0.478390 0.361154
C31   C     C_2   0.466158 0.500251 0.952955 0.356914
C32   C     C_2   0.536426 0.487806 0.021608 0.361155
C33   C     C_1   0.246796 0.186240 0.887319 -0.181691
C34   C     C_1   0.751886 0.813623 0.111455 -0.184943
C35   C     C_1   0.753214 0.186244 0.612691 -0.181696
C36   C     C_1   0.248099 0.813617 0.388531 -0.184939
C37   C     C_1   0.746801 0.686238 0.887323 -0.181692
C38   C     C_1   0.251890 0.313621 0.111459 -0.184947
C39   C     C_1   0.253215 0.686244 0.612691 -0.181694
C40   C     C_1   0.748099 0.313617 0.388531 -0.184940
C41   C     C_2   0.243646 0.174624 0.980379 -0.144481
C42   C     C_2   0.753253 0.825282 0.016734 -0.142670
C43   C     C_2   0.756397 0.174653 0.519662 -0.144493
C44   C     C_2   0.246675 0.825239 0.483199 -0.142674
C45   C     C_2   0.743669 0.674608 0.980400 -0.144462
C46   C     C_2   0.253276 0.325266 0.016755 -0.142686
C47   C     C_2   0.256400 0.674654 0.519664 -0.144494
C48   C     C_2   0.746677 0.325240 0.483201 -0.142674
C49   C     C_1   0.252336 0.316995 0.068215 0.009688
C50   C     C_1   0.745455 0.682749 0.929728 0.010887
C51   C     C_1   0.747640 0.316984 0.431762 0.009694
C52   C     C_1   0.254579 0.682768 0.570305 0.010896
C53   C     C_1   0.752326 0.817002 0.068205 0.009679
C54   C     C_1   0.245444 0.182755 0.929717 0.010892
C55   C     C_1   0.247639 0.816983 0.431762 0.009694
C56   C     C_1   0.754578 0.182768 0.570304 0.010896
H1    H     H_    0.262423 0.458014 0.008402 0.135871
H2    H     H_    0.734584 0.541779 0.988796 0.133300
H3    H     H_    0.737433 0.457930 0.491463 0.135886
H4    H     H_    0.265632 0.541922 0.511408 0.133311
H5    H     H_    0.762352 0.958067 0.008335 0.135851
H6    H     H_    0.234513 0.041831 0.988729 0.133315
H7    H     H_    0.237427 0.957926 0.491457 0.135886
H8    H     H_    0.765626 0.041918 0.511402 0.133312
O41   O     O_3   0.927362 0.140515 0.457059 -0.557613
C57   C     C_3   0.934286 0.183802 0.512846 0.069869
H9    H     H_    0.913985 0.323585 0.499642 0.132962
H10   H     H_    0.983915 0.194033 0.570241 0.088737
C58   C     C_3   0.899061 0.046304 0.512266 -0.322191
H11   H     H_    0.849082 0.043471 0.455560 0.205227
H12   H     H_    0.918098 0.904770 0.525252 0.169444
C59   C     C_3   0.904738 0.099258 0.570366 -0.829603
H13   H     H_    0.954400 0.094863 0.627935 0.233156
H14   H     H_    0.877785 0.999977 0.567562 0.230379
H15   H     H_    0.885961 0.240543 0.559010 0.236368
O42   O     O_3   0.068380 0.838215 0.584202 -0.556705
C60   C     C_3   0.055983 0.752584 0.617463 0.095240
H16   H     H_    0.074403 0.609099 0.632683 0.144417
H17   H     H_    0.005311 0.738614 0.577878 0.076222
C61   C     C_3   0.088947 0.852817 0.689586 -0.307751
H18   H     H_    0.139905 0.857192 0.730047 0.222004
H19   H     H_    0.071688 0.997226 0.676428 0.162593
C62   C     C_3   0.077379 0.754912 0.726506 -0.850221
H20   H     H_    0.026647 0.752432 0.687569 0.234610
H21   H     H_    0.101918 0.830065 0.778516 0.235054
H22   H     H_    0.095357 0.610806 0.741811 0.229173
O43   O     O_3   0.072638 0.140494 0.042930 -0.557615
C63   C     C_3   0.065712 0.183748 0.987138 0.069851
H23   H     H_    0.086005 0.323535 0.000328 0.132964
H24   H     H_    0.016083 0.193948 0.929742 0.088737
C64   C     C_3   0.100943 0.046245 0.987730 -0.322190
H25   H     H_    0.150922 0.043443 0.044437 0.205228
H26   H     H_    0.081915 0.904706 0.974760 0.169450
C65   C     C_3   0.095261 0.099159 0.929624 -0.829581
H27   H     H_    0.045598 0.094726 0.872054 0.233148
H28   H     H_    0.122223 0.999881 0.932442 0.230398
H29   H     H_    0.114026 0.240451 0.940964 0.236370
O44   O     O_3   0.931617 0.838209 0.915801 -0.556707
C66   C     C_3   0.944013 0.752546 0.882544 0.095242
H30   H     H_    0.925586 0.609068 0.867324 0.144446
H31   H     H_    0.994685 0.738553 0.922131 0.076219
C67   C     C_3   0.911055 0.852763 0.810421 -0.307772
H32   H     H_    0.860099 0.857208 0.769966 0.222021
H33   H     H_    0.928336 0.997146 0.823585 0.162586
C68   C     C_3   0.922600 0.754777 0.773487 -0.850195
H34   H     H_    0.973330 0.752221 0.812417 0.234600
H35   H     H_    0.898067 0.829920 0.721479 0.235050
H36   H     H_    0.904597 0.610699 0.758175 0.229173
O45   O     O_3   0.427362 0.640515 0.457058 -0.557612
C69   C     C_3   0.434285 0.683801 0.512846 0.069869
H37   H     H_    0.413984 0.823584 0.499642 0.132962
H38   H     H_    0.483914 0.694032 0.570241 0.088737
C70   C     C_3   0.399061 0.546302 0.512266 -0.322192
H39   H     H_    0.349082 0.543469 0.455559 0.205228
H40   H     H_    0.418098 0.404769 0.525252 0.169444
C71   C     C_3   0.404738 0.599255 0.570365 -0.829605
H41   H     H_    0.454399 0.594861 0.627934 0.233156
H42   H     H_    0.377785 0.499973 0.567561 0.230378
H43   H     H_    0.385960 0.740539 0.559009 0.236368
O46   O     O_3   0.568380 0.338215 0.584202 -0.556705
C72   C     C_3   0.555983 0.252582 0.617463 0.095240
H44   H     H_    0.574403 0.109097 0.632682 0.144418
H45   H     H_    0.505311 0.238612 0.577878 0.076221
C73   C     C_3   0.588947 0.352814 0.689586 -0.307750
H46   H     H_    0.639905 0.357190 0.730047 0.222004
H47   H     H_    0.571688 0.497221 0.676428 0.162593
C74   C     C_3   0.577379 0.254905 0.726505 -0.850230
H48   H     H_    0.526647 0.252423 0.687569 0.234612
H49   H     H_    0.601918 0.330057 0.778516 0.235054
H50   H     H_    0.595358 0.110801 0.741810 0.229172
O47   O     O_3   0.572638 0.640509 0.042939 -0.557611
C75   C     C_3   0.565710 0.683812 0.987148 0.069861
H51   H     H_    0.586010 0.823598 0.000353 0.132965
H52   H     H_    0.516080 0.694046 0.929755 0.088722
C76   C     C_3   0.600931 0.546323 0.987720 -0.322218
H53   H     H_    0.650909 0.543470 0.044427 0.205228
H54   H     H_    0.581889 0.404791 0.974723 0.169446
C77   C     C_3   0.595257 0.599317 0.929625 -0.829514
H55   H     H_    0.545596 0.594901 0.872052 0.233137
H56   H     H_    0.622222 0.500070 0.932437 0.230407
H57   H     H_    0.614025 0.740621 0.940982 0.236351
O48   O     O_3   0.431619 0.338212 0.915802 -0.556707
C78   C     C_3   0.444012 0.252566 0.882539 0.095249
H58   H     H_    0.425581 0.109088 0.867311 0.144447
H59   H     H_    0.494684 0.238566 0.922126 0.076198
C79   C     C_3   0.411056 0.352812 0.810420 -0.307797
H60   H     H_    0.360102 0.357296 0.769972 0.222028
H61   H     H_    0.428349 0.497181 0.823595 0.162584
C80   C     C_3   0.422583 0.254820 0.773468 -0.850181
H62   H     H_    0.473311 0.252222 0.812391 0.234599
H63   H     H_    0.398053 0.329988 0.721464 0.235047
H64   H     H_    0.404568 0.110758 0.758145 0.229176
H65   H     H_    0.963588 0.709920 0.452977 0.130265
H66   H     H_    0.036617 0.292910 0.540688 0.125125
H67   H     H_    0.036411 0.709926 0.047032 0.130262
H68   H     H_    0.963385 0.292909 0.959306 0.125117
H69   H     H_    0.463588 0.209920 0.452977 0.130265
H70   H     H_    0.536617 0.792910 0.540689 0.125125
H71   H     H_    0.536411 0.209922 0.047026 0.130263
H72   H     H_    0.463384 0.792911 0.959310 0.125117

loop_
_geom_bond_atom_site_label_1
_geom_bond_atom_site_label_2
_ccdc_geom_bond_type
O24   C16   A    
C79   H61   S    
C46   H1    S    
O45   C69   S    
O33   V7    S    
C41   C54   S    
C22   C30   D    
O34   V8    S    
C72   H44   S    
C21   C29   D    
C66   H30   S    
O35   V5    S    
C43   C56   S    
C76   H53   S    
C62   H22   S    
C61   H18   S    
C23   C31   D    
C70   H39   S    
O37   V3    S    
O43   C63   S    
C74   H49   S    
O38   V4    S    
C29   C30   S    
C75   H51   S    
C22   H69   S    
O3    C11   A    
C21   H70   S    
O48   C78   S    
C15   C17   S    
C71   H41   S    
C66   H31   S    
O2    C10   A    
O44   C66   S    
C58   H12   S    
O22   V6    S    
C64   C65   S    
C79   C80   S    
O14   V6    S    
C48   C51   S    
O4    V6    S    
C17   C25   D    
O27   V3    S    
C1    O31   A    
C41   C46   D    
C80   H63   S    
C38   C49   T    
C8    C34   S    
C2    O32   A    
C19   H68   S    
C3    O29   A    
C69   C70   S    
O8    V2    S    
C43   C48   D    
C18   H65   S    
O18   V2    S    
C17   H66   S    
C5    C35   S    
C59   H14   S    
C7    O25   A    
C31   O48   S    
C4    C38   S    
C13   C19   S    
C60   C61   S    
C12   C22   S    
C37   C50   T    
C24   H71   S    
O6    C14   A    
C44   C55   S    
C73   C74   S    
C9    C23   S    
O15   C7    A    
C79   H60   S    
C11   C21   S    
O23   C15   A    
C20   H67   S    
C69   H38   S    
C72   H45   S    
C65   H29   S    
O17   V1    S    
C63   C64   S    
O11   V3    S    
O1    V7    S    
C70   H40   S    
C28   O43   S    
O2    V8    S    
C57   H9    S    
C74   H50   S    
C33   C54   T    
O3    V5    S    
C25   C26   S    
O21   V5    S    
C65   H27   S    
C35   C56   T    
O5    V3    S    
C78   H58   S    
C57   C58   S    
C32   O47   S    
O6    V4    S    
C66   C67   S    
O24   V8    S    
C63   H24   S    
C76   C77   S    
O17   C9    A    
C47   C52   S    
O4    C12   A    
C46   C49   S    
O28   V4    S    
C26   O41   S    
O5    C13   A    
C41   H6    S    
O20   C12   A    
C44   C47   D    
C8    O26   A    
C31   C32   S    
O21   C13   A    
C29   O46   S    
C59   H15   S    
O7    C15   A    
C43   H8    S    
C80   H64   S    
C27   C28   S    
C78   H59   S    
C42   C53   S    
C14   C20   S    
C67   H33   S    
O23   V7    S    
C45   H2    S    
O13   V5    S    
C4    O30   A    
C30   O45   S    
C57   H10   S    
C74   H48   S    
C25   O42   S    
O11   C3    A    
O12   C4    A    
C39   C52   T    
C10   C24   S    
C59   H13   S    
O13   C5    A    
C68   H36   S    
C67   C68   S    
O20   V4    S    
O1    C9    A    
O46   C72   S    
C48   H3    S    
O39   V1    S    
C60   H16   S    
C72   C73   S    
C65   H28   S    
C58   C59   S    
C68   H35   S    
C77   H56   S    
C62   H20   S    
C61   C62   S    
C70   C71   S    
O31   V7    S    
C73   H46   S    
O18   C10   A    
C42   C45   D    
O26   V2    S    
O41   C57   S    
O9    C1    A    
C23   H72   S    
O25   V1    S    
C7    C33   S    
O10   V2    S    
C1    C39   S    
O22   C14   A    
C71   H43   S    
C63   H23   S    
C3    C37   S    
C61   H19   S    
O29   V5    S    
C64   H25   S    
C75   C76   S    
C44   H7    S    
C5    O27   A    
C20   C28   D    
C6    O28   A    
O16   V8    S    
O32   V8    S    
O14   C6    A    
C77   H57   S    
C76   H54   S    
C68   H34   S    
C78   C79   S    
C24   C32   D    
O36   V6    S    
O8    C16   A    
C75   H52   S    
C64   H26   S    
C69   H37   S    
O10   C2    A    
C71   H42   S    
C73   H47   S    
C34   C53   T    
O40   V2    S    
O9    V1    S    
C80   H62   S    
C2    C40   S    
C27   O44   S    
C40   C51   T    
C47   H4    S    
O47   C75   S    
O12   V4    S    
O19   C11   A    
C19   C27   D    
O16   C8    A    
C60   H17   S    
C36   C55   T    
O15   V7    S    
C67   H32   S    
O19   V3    S    
C62   H21   S    
C42   H5    S    
C16   C18   S    
C77   H55   S    
C58   H11   S    
C45   C50   S    
O7    V1    S    
C6    C36   S    
O42   C60   S    
O30   V6    S    
C18   C26   D    
