data_mof_unit_55356.cif
_audit_creation_date              2012-12-11T16:15:07-0500
_audit_creation_method            fapswitch 2.2
_symmetry_space_group_name_H-M    P1
_symmetry_Int_Tables_number       1
_space_group_crystal_system       triclinic
_cell_length_a                    13.597473
_cell_length_b                    13.594777
_cell_length_c                    28.431586
_cell_angle_alpha                 90.268079
_cell_angle_beta                  90.257904
_cell_angle_gamma                 60.140226
_cell_volume                      4557.93183539

loop_
_atom_site_label
_atom_site_type_symbol
_atom_type_description
_atom_site_fract_x
_atom_site_fract_y
_atom_site_fract_z
_atom_type_partial_charge
C1    C     C_R   0.279327 0.620678 0.566456 0.537813
C2    C     C_1   0.642853 0.656720 0.651984 -0.005241
C3    C     C_1   0.639179 0.223942 0.610138 -0.000442
C4    C     C_R   0.621684 0.601000 0.566412 0.544033
C5    C     C_R   0.773021 0.157979 0.723723 0.220655
C6    C     C_R   0.778358 0.146639 0.773342 0.227231
C7    C     C_R   0.596313 0.149990 0.772791 0.239045
C8    C     C_R   0.591437 0.162382 0.723925 0.274867
C9    C     C_R   0.678631 0.166878 0.699588 -0.015573
C10   C     C_R   0.689729 0.143608 0.797750 -0.054210
C11   C     C_1   0.700541 0.123418 0.847720 -0.012332
C12   C     C_1   0.637077 0.634363 0.611783 0.005790
C13   C     C_1   0.663540 0.191404 0.650018 0.042097
C14   C     C_1   0.709117 0.098762 0.888682 0.003464
C15   C     C_1   0.227912 0.638351 0.611934 0.000646
C16   C     C_R   0.601566 0.278159 0.565514 0.536788
C17   C     C_R   0.174442 0.570519 0.726581 0.189954
C18   C     C_R   0.163527 0.576086 0.776180 0.216076
C19   C     C_R   0.157687 0.758754 0.776008 0.227190
C20   C     C_R   0.163216 0.755474 0.726646 0.230147
C21   C     C_R   0.175322 0.659800 0.702265 -0.005039
C22   C     C_R   0.158219 0.668741 0.800665 -0.039768
C23   C     C_3   0.735044 0.712688 0.757054 0.287257
C24   C     C_1   0.135421 0.680221 0.850376 0.012641
C25   C     C_1   0.197569 0.649680 0.652344 0.043563
C26   C     C_1   0.106737 0.697598 0.890887 0.003898
C27   C     C_1   0.637307 0.634703 0.388889 0.002401
C28   C     C_R   0.276514 0.621231 0.434564 0.545005
C29   C     C_R   0.761251 0.614060 0.276173 0.239957
C30   C     C_R   0.765590 0.613490 0.227082 0.275746
C31   C     C_R   0.558871 0.739265 0.223666 0.226973
C32   C     C_R   0.554959 0.736091 0.273340 0.280138
C33   C     C_R   0.655523 0.672650 0.299203 -0.039048
C34   C     C_3   0.662040 0.697866 0.794903 0.009844
C35   C     C_R   0.664873 0.677522 0.200545 -0.065803
C36   C     C_1   0.674087 0.689795 0.150637 -0.060703
C37   C     C_1   0.647071 0.655878 0.348730 -0.007577
C38   C     C_1   0.691504 0.701041 0.110128 -0.002851
C39   C     C_1   0.634724 0.223265 0.389571 -0.011488
C40   C     C_R   0.620292 0.600486 0.434154 0.541542
C41   C     C_R   0.582257 0.157180 0.275041 0.195429
C42   C     C_R   0.586449 0.153428 0.225519 0.274248
C43   C     C_R   0.757573 0.171037 0.227387 0.196623
C44   C     C_R   0.751533 0.177707 0.276453 0.279251
C45   C     C_3   0.752190 0.604476 0.732242 0.213423
C46   C     C_R   0.665695 0.169205 0.300194 -0.042330
C47   C     C_R   0.674081 0.159472 0.202083 -0.020444
C48   C     C_1   0.684813 0.137560 0.152551 0.005868
C49   C     C_1   0.653632 0.191662 0.349628 -0.030768
C50   C     C_1   0.696149 0.107603 0.112350 0.015649
C51   C     C_1   0.221367 0.640520 0.390414 0.010996
C52   C     C_R   0.600414 0.277032 0.434003 0.542018
C53   C     C_R   0.178393 0.742350 0.275583 0.242659
C54   C     C_R   0.174500 0.740232 0.226460 0.259953
C55   C     C_R   0.130192 0.586109 0.229989 0.233271
C56   C     C_3   0.646265 0.676918 0.701832 -0.035997
C57   C     C_R   0.139195 0.585567 0.279129 0.284386
C58   C     C_R   0.162244 0.663946 0.301659 -0.062022
C59   C     C_R   0.150233 0.662605 0.203623 -0.065219
C60   C     C_1   0.131768 0.673073 0.153931 -0.028647
C61   C     C_1   0.187915 0.652636 0.350752 0.009427
C62   C     C_1   0.103864 0.691950 0.113551 -0.005517
C63   C     C_R   0.721069 0.054344 0.935072 0.542740
C64   C     C_3   0.627697 0.785862 0.727293 0.233514
C65   C     C_R   0.730816 0.718358 0.932177 0.539958
C66   C     C_R   0.057364 0.729405 0.936538 0.543174
C67   C     C_3   0.678333 0.590667 0.769320 0.198828
C68   C     C_R   0.714632 0.055999 0.067373 0.544163
C69   C     C_R   0.725526 0.717147 0.064703 0.547296
C70   C     C_R   0.053942 0.727410 0.068488 0.544979
C71   C     C_3   0.555135 0.771173 0.765085 0.190536
C72   C     C_1   0.698840 0.706043 0.885895 0.004838
C73   C     C_3   0.417257 0.266838 0.689815 0.015006
C74   C     C_3   0.350106 0.260908 0.647921 -0.358594
C75   C     C_3   0.046587 0.517349 0.806162 0.000124
C76   C     C_3   0.041215 0.428582 0.836532 -0.355358
C77   C     C_3   0.238991 0.835151 0.822942 0.002320
C78   C     C_3   0.571834 0.663350 0.739539 0.186854
C79   C     C_3   0.226428 0.946689 0.840250 -0.325279
C80   C     C_3   0.237262 0.854233 0.690743 0.012133
C81   C     C_3   0.207500 0.951387 0.656832 -0.357587
C82   C     C_3   0.510063 0.929588 0.675735 0.023986
C83   C     C_3   0.543314 0.949964 0.627218 -0.358819
C84   C     C_3   0.800623 0.301951 0.307715 0.020966
C85   C     C_3   0.874116 0.312262 0.345687 -0.342515
C86   C     C_3   0.114512 0.907333 0.316767 0.008130
C87   C     C_3   0.150431 0.985360 0.340145 -0.339169
C88   C     C_3   0.107826 0.908339 0.186633 0.005711
C89   C     C_1   0.678379 0.702007 0.845191 0.020030
C90   C     C_3   0.135167 0.004083 0.186559 -0.311943
C91   C     C_3   0.220954 0.406051 0.308067 0.041098
C92   C     C_3   0.199360 0.324563 0.336759 -0.343068
C93   C     C_3   0.866577 0.755333 0.725955 0.012044
C94   C     C_3   0.869708 0.865140 0.729318 -0.327489
C95   C     C_3   0.856092 0.234323 0.814779 0.013498
C96   C     C_3   0.946893 0.214275 0.850859 -0.366415
Cr1   Cr    Cr6+3 0.413560 0.417690 0.499580 1.023624
Cr2   Cr    Cr6+3 0.418030 0.668340 0.500400 1.035408
Cr3   Cr    Cr6+3 0.668390 0.413960 0.499990 1.037512
Cr4   Cr    Cr6+3 0.919710 0.916540 0.003080 1.028610
Cr5   Cr    Cr6+3 0.665300 0.919470 0.999630 1.054477
Cr6   Cr    Cr6+3 0.916060 0.665490 0.000390 1.034033
H1    H     H_    0.409745 0.904668 0.756958 0.319810
H2    H     H_    0.078078 0.425830 0.871769 0.166190
H3    H     H_    0.951324 0.450804 0.840787 0.133166
H4    H     H_    0.089027 0.343805 0.819623 0.159865
H5    H     H_    0.314088 0.793416 0.799520 0.155347
H6    H     H_    0.255088 0.780251 0.854104 0.124829
H7    H     H_    0.154819 0.987191 0.865403 0.152394
H8    H     H_    0.305191 0.931085 0.858565 0.149409
H9    H     H_    0.210526 0.004295 0.810044 0.171342
H10   H     H_    0.300915 0.773959 0.673438 0.165716
H11   H     H_    0.275065 0.868491 0.722826 0.156797
H12   H     H_    0.446509 0.328016 0.681001 0.132266
H13   H     H_    0.147236 0.033401 0.673722 0.174441
H14   H     H_    0.284927 0.953588 0.646624 0.073263
H15   H     H_    0.167791 0.939940 0.624592 0.178224
H16   H     H_    0.852004 0.576257 0.333741 0.316301
H17   H     H_    0.863888 0.540576 0.172629 0.323877
H18   H     H_    0.469955 0.788779 0.165183 0.341344
H19   H     H_    0.390521 0.837783 0.275990 0.403627
H20   H     H_    0.510044 0.138854 0.331426 0.333816
H21   H     H_    0.441152 0.010979 0.689835 0.196347
H22   H     H_    0.473522 0.872659 0.671806 0.092801
H23   H     H_    0.361729 0.298675 0.721202 0.206376
H24   H     H_    0.609133 0.868596 0.611753 0.140193
H25   H     H_    0.467891 0.987689 0.603760 0.093056
H26   H     H_    0.577815 0.008584 0.629645 0.196431
H27   H     H_    0.450675 0.138434 0.219293 0.379581
H28   H     H_    0.837025 0.178942 0.171478 0.316095
H29   H     H_    0.710451 0.353530 0.319091 0.116331
H30   H     H_    0.812121 0.337510 0.274358 0.196749
H31   H     H_    0.963627 0.271190 0.333788 0.155826
H32   H     H_    0.843680 0.402896 0.353401 0.135007
H33   H     H_    0.869322 0.270808 0.378496 0.160327
H34   H     H_    0.305648 0.214116 0.657684 0.138969
H35   H     H_    0.073512 0.881061 0.343896 0.131456
H36   H     H_    0.051072 0.956316 0.289038 0.161844
H37   H     H_    0.188211 0.016653 0.313720 0.161426
H38   H     H_    0.075518 0.059042 0.356166 0.114634
H39   H     H_    0.213939 0.938867 0.368142 0.180688
H40   H     H_    0.032189 0.934116 0.209413 0.132867
H41   H     H_    0.084982 0.897515 0.150200 0.150954
H42   H     H_    0.209833 0.981162 0.163848 0.179959
H43   H     H_    0.061835 0.082793 0.172765 0.139011
H44   H     H_    0.154310 0.019967 0.222889 0.179406
H45   H     H_    0.286958 0.347324 0.635998 0.179954
H46   H     H_    0.106304 0.512745 0.174996 0.331234
H47   H     H_    0.289462 0.415008 0.325687 0.124273
H48   H     H_    0.250180 0.368455 0.272453 0.190865
H49   H     H_    0.132420 0.312638 0.319644 0.180489
H50   H     H_    0.278272 0.241061 0.339258 0.133299
H51   H     H_    0.171486 0.358882 0.372789 0.150344
H52   H     H_    0.461594 0.624617 0.760528 0.316638
H53   H     H_    0.640890 0.508437 0.813429 0.311557
H54   H     H_    0.840239 0.458090 0.703695 0.354303
H55   H     H_    0.821362 0.757293 0.692840 0.166047
H56   H     H_    0.408194 0.216482 0.618124 0.158275
H57   H     H_    0.953737 0.683780 0.722358 0.159737
H58   H     H_    0.916532 0.865351 0.761358 0.196648
H59   H     H_    0.911537 0.875425 0.697771 0.148171
H60   H     H_    0.781773 0.937066 0.731297 0.187783
H61   H     H_    0.921668 0.146537 0.719006 0.365941
H62   H     H_    0.772187 0.283886 0.832449 0.150820
H63   H     H_    0.862119 0.284663 0.785363 0.199127
H64   H     H_    0.030346 0.179529 0.833270 0.144559
H65   H     H_    0.926230 0.295540 0.868242 0.106500
H66   H     H_    0.951164 0.154016 0.878132 0.172498
H67   H     H_    0.168500 0.430225 0.721633 0.355047
H68   H     H_    0.518011 0.138995 0.828660 0.332089
H69   H     H_    0.008402 0.518188 0.771464 0.206115
H70   H     H_    0.994817 0.601258 0.823568 0.175268
O1    O     O_R   0.503010 0.303330 0.550820 -0.523302
O2    O     O_R   0.827060 0.642880 0.947470 -0.515650
O3    O     O_R   0.013800 0.673690 0.954100 -0.496672
O4    O     O_R   0.320040 0.522690 0.547470 -0.493815
O5    O     O_R   0.031250 0.825430 0.055080 -0.515578
O6    O     O_R   0.814180 0.011990 0.050320 -0.508703
O7    O     O_R   0.640680 0.032900 0.051920 -0.487619
O8    O     O_R   0.671090 0.815590 0.046300 -0.488847
O9    O     O_R   0.822940 0.642440 0.050310 -0.508757
O10   O     O_R   0.009970 0.673280 0.049430 -0.492665
O11   O     O_3   0.833690 0.833830 0.001040 -0.255046
O12   O     O_R   0.522480 0.657560 0.452870 -0.481969
O13   O     O_R   0.303930 0.694040 0.551750 -0.513565
O14   O     O_R   0.523510 0.657900 0.548240 -0.503250
O15   O     O_R   0.694770 0.503160 0.551780 -0.496259
O16   O     O_R   0.657990 0.319990 0.547370 -0.481888
O17   O     O_R   0.501900 0.302960 0.447930 -0.511736
O18   O     O_R   0.319020 0.522350 0.452090 -0.498710
O19   O     O_R   0.302820 0.693680 0.448870 -0.500872
O20   O     O_3   0.454600 0.858223 0.783982 -0.710399
O21   O     O_3   0.506959 0.156599 0.699126 -0.535878
O22   O     O_3   0.175642 0.483987 0.700559 -0.731881
O23   O     O_R   0.693670 0.502790 0.448900 -0.522631
O24   O     O_3   0.160814 0.489870 0.800909 -0.565572
O25   O     O_3   0.138688 0.856480 0.799215 -0.503045
O26   O     O_3   0.137005 0.853264 0.702140 -0.526697
O27   O     O_3   0.862901 0.554136 0.300144 -0.610783
O28   O     O_3   0.871391 0.550594 0.206664 -0.585134
O29   O     O_3   0.458143 0.803095 0.199375 -0.675692
O30   O     O_3   0.453932 0.792859 0.297889 -0.648653
O31   O     O_3   0.495522 0.150078 0.297223 -0.733438
O32   O     O_3   0.604618 0.889146 0.706326 -0.521488
O33   O     O_3   0.507779 0.141175 0.198738 -0.667713
O34   O     O_R   0.656970 0.319650 0.452000 -0.499005
O35   O     O_3   0.846490 0.175446 0.206040 -0.703113
O36   O     O_3   0.834303 0.186178 0.301697 -0.541805
O37   O     O_3   0.211083 0.812817 0.297439 -0.511703
O38   O     O_3   0.205396 0.807331 0.201109 -0.500457
O39   O     O_3   0.102789 0.510164 0.209656 -0.609188
O40   O     O_3   0.119657 0.511671 0.305474 -0.486587
O41   O     O_3   0.486765 0.637038 0.729584 -0.716862
O42   O     O_3   0.703758 0.488929 0.791083 -0.730863
O43   O     O_3   0.855935 0.517693 0.715425 -0.705297
O44   O     O_3   0.819242 0.740826 0.767749 -0.568138
O45   O     O_3   0.499990 0.499990 0.499990 -0.251305
O46   O     O_3   0.858235 0.159497 0.697922 -0.678234
O47   O     O_3   0.874208 0.128988 0.797672 -0.537230
O48   O     O_3   0.509141 0.142126 0.794098 -0.636533
O49   O     O_R   0.035380 0.825870 0.952240 -0.503628
O50   O     O_R   0.818010 0.012400 0.954990 -0.492731
O51   O     O_R   0.644810 0.033340 0.949080 -0.505392
O52   O     O_R   0.674910 0.816000 0.950960 -0.490260

loop_
_geom_bond_atom_site_label_1
_geom_bond_atom_site_label_2
_ccdc_geom_bond_type
C16   O1    A    
C76   H2    S    
C7    C10   A    
C30   O28   S    
C1    O4    A    
C93   C94   S    
C23   C45   S    
C3    C16   S    
C55   C59   A    
C65   O2    A    
C41   C42   A    
C95   C96   S    
C51   C61   T    
C86   O37   S    
C83   H26   S    
C75   C76   S    
C2    C12   T    
Cr3   O15   S    
C7    C8    A    
C53   C54   A    
C5    C9    A    
C46   C49   S    
C76   H3    S    
C30   C35   A    
C52   O34   A    
Cr6   O11   S    
C4    O15   A    
C24   C26   T    
H19   O30   S    
C90   H43   S    
C73   O21   S    
C66   O49   A    
C69   O8    A    
C5    C6    A    
C11   C14   T    
C15   C25   T    
Cr4   O5    S    
C29   C33   A    
C44   O36   S    
C56   C78   S    
C62   C70   S    
C42   O33   S    
C60   C62   T    
C73   C74   S    
C64   C71   S    
C4    O14   A    
C93   H57   S    
Cr4   O11   S    
C9    C13   S    
C94   H58   S    
H28   O35   S    
C86   H35   S    
C45   O43   S    
C70   O10   A    
Cr3   O45   S    
C45   C56   S    
C8    C9    A    
C29   O27   S    
C74   H34   S    
C45   C67   S    
C95   O47   S    
C41   C46   A    
C96   H66   S    
C92   H51   S    
C1    C15   S    
C71   O20   S    
C4    C12   S    
C43   C47   A    
C87   H38   S    
C88   H41   S    
C3    C13   T    
C85   H32   S    
C54   C59   A    
C75   O24   S    
Cr5   O51   S    
C58   C61   S    
Cr1   O17   S    
C39   C52   S    
C64   O32   S    
C57   O40   S    
Cr4   O6    S    
C59   C60   S    
Cr1   O4    S    
C88   O38   S    
C93   O44   S    
Cr2   O12   S    
H18   O29   S    
C63   O50   A    
C81   H13   S    
C17   O22   S    
C67   C78   S    
H54   O43   S    
H52   O41   S    
H16   O27   S    
C95   H63   S    
C78   O41   S    
C82   H22   S    
Cr3   O16   S    
C44   C46   A    
H68   O48   S    
C23   O44   S    
C77   C79   S    
C5    O46   S    
C91   O40   S    
C19   O25   S    
Cr1   O1    S    
C79   H7    S    
Cr3   O34   S    
C43   O35   S    
H17   O28   S    
C26   C66   S    
C47   C48   S    
C63   O51   A    
C74   H45   S    
C77   H5    S    
C19   C22   A    
C84   C85   S    
C16   O16   A    
H46   O39   S    
C87   H37   S    
C91   C92   S    
C91   H47   S    
C31   C35   A    
C74   H56   S    
C86   C87   S    
Cr2   O19   S    
C80   H11   S    
Cr6   O3    S    
C18   O24   S    
C84   H30   S    
C33   C37   S    
C73   H12   S    
C28   O18   A    
C35   C36   S    
Cr6   O10   S    
H20   O31   S    
H53   O42   S    
C43   C44   A    
Cr3   O23   S    
C29   C30   A    
Cr5   O7    S    
H27   O33   S    
C84   O36   S    
C31   C32   A    
Cr4   O50   S    
C27   C40   S    
C23   C34   S    
C80   O26   S    
C80   H10   S    
C92   H49   S    
C56   C64   S    
C17   C18   A    
C96   H65   S    
C8    O21   S    
C87   H39   S    
C93   H55   S    
C94   H59   S    
C20   O26   S    
C85   H33   S    
C7    O48   S    
C81   H15   S    
C53   O37   S    
C23   C64   S    
C39   C49   T    
C88   C90   S    
C55   C57   A    
C75   H69   S    
C22   C24   S    
C66   O3    A    
C41   O31   S    
C83   H24   S    
C28   O19   A    
C82   H21   S    
Cr5   O52   S    
Cr1   O45   S    
C88   H40   S    
C21   C25   S    
Cr1   O18   S    
C76   H4    S    
C84   H29   S    
C79   H8    S    
C18   C22   A    
Cr6   O9    S    
C77   H6    S    
C83   H25   S    
C80   C81   S    
Cr5   O11   S    
C34   C67   S    
C6    C10   A    
C91   H48   S    
C53   C58   A    
C70   O5    A    
H67   O22   S    
C1    O13   A    
Cr6   O2    S    
C65   C72   S    
C68   O7    A    
Cr2   O13   S    
C79   H9    S    
C32   C33   A    
C19   C20   A    
C36   C38   T    
C34   C89   S    
C90   H44   S    
Cr5   O8    S    
C2    C56   S    
C95   H62   S    
C82   O32   S    
C72   C89   T    
C57   C58   A    
C77   O25   S    
Cr4   O49   S    
C27   C37   T    
C73   H23   S    
C14   C63   S    
C81   H14   S    
C48   C50   T    
C28   C51   S    
C96   H64   S    
C52   O17   A    
C71   C78   S    
C32   O30   S    
C31   O29   S    
C17   C21   A    
C38   C69   S    
C10   C11   S    
C86   H36   S    
C55   O39   S    
C6    O47   S    
H61   O46   S    
C92   H50   S    
C54   O38   S    
C42   C47   A    
C20   C21   A    
C68   O6    A    
Cr2   O14   S    
C82   C83   S    
Cr2   O45   S    
C69   O9    A    
C75   H70   S    
C67   O42   S    
H1    O20   S    
C50   C68   S    
C34   C71   S    
C65   O52   A    
C90   H42   S    
C94   H60   S    
C85   H31   S    
C40   O12   A    
C40   O23   A    
