data_mof_unit_6379.cif
_audit_creation_date              2013-03-05T15:46:52-0500
_audit_creation_method            fapswitch 2.2
_symmetry_space_group_name_H-M    P1
_symmetry_Int_Tables_number       1
_space_group_crystal_system       triclinic
_cell_length_a                    14.803584
_cell_length_b                    15.0906
_cell_length_c                    15.074147
_cell_angle_alpha                 108.973283
_cell_angle_beta                  109.439224
_cell_angle_gamma                 109.45649
_cell_volume                      2609.52870835

loop_
_atom_site_label
_atom_site_type_symbol
_atom_site_description
_atom_site_fract_x
_atom_site_fract_y
_atom_site_fract_z
_atom_type_partial_charge
C1    C     C_R   0.193139 0.991414 0.901609 -0.120900
C2    C     C_R   0.748331 0.934316 0.024597 -0.119578
H1    H     H_    0.165508 0.013552 0.840553 0.093402
H2    H     H_    0.756682 0.879752 0.054062 0.108480
N1    N     N_R   0.293810 0.002730 0.945950 -0.043926
N2    N     N_R   0.706190 0.997270 0.054050 -0.054355
C3    C     C_R   0.790867 0.216990 0.308519 -0.068816
C4    C     C_R   0.247786 0.779415 0.687554 -0.083551
H3    H     H_    0.820017 0.193127 0.367711 0.112602
H4    H     H_    0.226763 0.798716 0.623432 0.162837
N3    N     N_R   0.706160 0.152130 0.208910 -0.056054
N4    N     N_R   0.293840 0.847870 0.791090 -0.067691
C5    C     C_R   0.405078 0.974851 0.217832 -0.128494
C6    C     C_R   0.592304 0.073776 0.782398 -0.000015
H5    H     H_    0.319198 0.940529 0.196125 0.121282
H6    H     H_    0.676094 0.127480 0.806374 0.122121
N5    N     N_R   0.443140 0.945920 0.152090 -0.052963
N6    N     N_R   0.556860 0.054080 0.847910 -0.059585
C7    C     C_R   0.589497 0.313343 0.055209 0.014820
C8    C     C_R   0.408579 0.701755 0.003514 -0.099047
H7    H     H_    0.673042 0.378780 0.097454 0.156862
H8    H     H_    0.323537 0.646488 0.974796 0.127795
N7    N     N_R   0.556830 0.208940 0.002760 -0.056922
N8    N     N_R   0.443170 0.791060 0.997240 -0.044436
C9    C     C_R   0.589359 0.059965 0.312764 -0.065046
C10   C     C_R   0.408162 0.985330 0.693105 -0.067879
H9    H     H_    0.672514 0.100604 0.378373 0.134082
H10   H     H_    0.324841 0.961438 0.638289 0.122519
N9    N     N_R   0.556790 0.002750 0.208910 -0.063734
N10   N     N_R   0.443210 0.997250 0.791090 -0.056708
C11   C     C_R   0.404403 0.218621 0.968081 -0.135974
C12   C     C_R   0.591947 0.790897 0.092797 -0.132749
H11   H     H_    0.318291 0.196194 0.933470 0.120107
H12   H     H_    0.676950 0.817856 0.145160 0.105843
N11   N     N_R   0.443180 0.152110 0.945950 -0.054711
N12   N     N_R   0.556820 0.847890 0.054050 -0.042752
C13   C     C_R   0.791011 0.308129 0.216568 -0.053271
C14   C     C_R   0.245352 0.686798 0.778302 -0.061903
H13   H     H_    0.820496 0.366609 0.192087 0.132060
H14   H     H_    0.224612 0.622306 0.797466 0.138305
N13   N     N_R   0.706170 0.208950 0.152090 -0.060053
N14   N     N_R   0.293830 0.791050 0.847910 -0.059851
C15   C     C_R   0.194708 0.903965 0.994807 -0.097943
C16   C     C_R   0.754409 0.031022 0.939309 -0.071930
H15   H     H_    0.170735 0.848717 0.023875 0.150557
H16   H     H_    0.773950 0.071035 0.895613 0.136785
N15   N     N_R   0.293800 0.945910 0.002760 -0.049427
N16   N     N_R   0.706200 0.054090 0.997240 -0.062176
C17   C     C_R   0.127477 0.927095 0.928066 0.107196
C18   C     C_R   0.776043 0.950830 0.949173 0.119649
C19   C     C_R   0.841135 0.315232 0.315176 0.167831
C20   C     C_R   0.216367 0.678270 0.677534 0.228055
C21   C     C_R   0.494900 0.043976 0.319833 0.211034
C22   C     C_R   0.499966 0.025897 0.683736 0.173530
C23   C     C_R   0.494548 0.320325 0.033855 0.050569
C24   C     C_R   0.500223 0.699540 0.062338 0.073789
Ni1   Ni    Ni4+2 0.369690 0.999990 0.869700 0.227921
Ni2   Ni    Ni4+2 0.630310 0.000010 0.130300 0.226847
Ni3   Ni    Ni4+2 0.369670 0.869670 0.000000 0.262501
Ni4   Ni    Ni4+2 0.630330 0.130330 0.000000 0.260161
H17   H     H_    0.210893 0.077668 0.553974 0.142576
H18   H     H_    0.864443 0.954506 0.544010 0.166814
C25   C     C_R   0.369565 0.206329 0.688458 -0.190020
C26   C     C_R   0.694469 0.828975 0.443966 -0.137123
H19   H     H_    0.413562 0.182676 0.649590 0.163579
H20   H     H_    0.673886 0.857219 0.506196 0.214538
C27   C     C_R   0.427396 0.296864 0.791678 0.389932
C28   C     C_R   0.613198 0.737698 0.342785 0.335266
C29   C     C_R   0.367716 0.326095 0.840749 -0.060613
C30   C     C_R   0.642174 0.703688 0.262273 -0.050313
C31   C     C_R   0.251971 0.267282 0.783792 -0.134030
C32   C     C_R   0.752241 0.758171 0.286905 -0.153297
H21   H     H_    0.205447 0.289391 0.820238 0.150641
H22   H     H_    0.776409 0.730474 0.227479 0.158326
C33   C     C_R   0.195801 0.177952 0.680890 -0.057001
C34   C     C_R   0.831666 0.848611 0.387684 -0.120187
H23   H     H_    0.106629 0.132192 0.637995 0.121505
H24   H     H_    0.915958 0.890677 0.405363 0.129294
C35   C     C_R   0.254546 0.147118 0.633618 -0.140831
C36   C     C_R   0.802661 0.884395 0.465863 -0.108710
C37   C     C_R   0.426732 0.510669 0.964495 -0.155454
C38   C     C_R   0.556291 0.507991 0.145898 -0.115163
H25   H     H_    0.379789 0.512418 0.892977 0.175865
H26   H     H_    0.605716 0.505153 0.215405 0.213115
C39   C     C_R   0.496501 0.604686 0.064204 0.087402
C40   C     C_R   0.489141 0.415289 0.044847 0.038014
C41   C     C_R   0.563058 0.604938 0.156323 0.081054
C42   C     C_R   0.425105 0.416451 0.952559 0.071335
C43   C     C_R   0.935582 0.504561 0.450109 0.554389
C44   C     C_R   0.126709 0.487812 0.539496 0.599469
C45   C     C_R   0.031339 0.592797 0.537134 -0.341496
C46   C     C_R   0.030351 0.398568 0.451258 -0.346987
H27   H     H_    0.031736 0.668074 0.572873 0.186673
H28   H     H_    0.027999 0.322137 0.416170 0.188726
C47   C     C_R   0.125666 0.584777 0.581411 -0.140438
C48   C     C_R   0.936686 0.407660 0.406977 -0.132693
C49   C     C_R   0.565853 0.129909 0.604077 -0.314260
C50   C     C_R   0.419108 0.950349 0.400321 -0.333834
H29   H     H_    0.622316 0.199264 0.683755 0.239390
H30   H     H_    0.365815 0.879009 0.321483 0.213884
C51   C     C_R   0.560287 0.140730 0.515189 0.550455
C52   C     C_R   0.423472 0.939260 0.487812 0.579244
C53   C     C_R   0.487859 0.048924 0.413135 -0.178138
C54   C     C_R   0.497493 0.030699 0.590545 -0.187909
C55   C     C_R   0.949446 0.824228 0.922236 0.354654
C56   C     C_R   0.863166 0.931610 0.831010 0.375372
C57   C     C_R   0.863710 0.836482 0.932780 -0.273470
C58   C     C_R   0.957378 0.930825 0.832086 -0.282917
H31   H     H_    0.826371 0.797433 0.969848 0.185117
H32   H     H_    0.991647 0.966377 0.791209 0.169358
C59   C     C_R   0.829524 0.901549 0.899003 -0.055756
C60   C     C_R   0.008687 0.888498 0.889116 -0.053644
N17   N     N_R   0.545632 0.358139 0.845217 0.238465
O1    O     O_R   0.597051 0.462929 0.900278 -0.363183
O2    O     O_R   0.602329 0.309660 0.834337 -0.422086
N18   N     N_R   0.504553 0.678497 0.325682 0.247174
O3    O     O_R   0.491673 0.676726 0.406507 -0.279613
O4    O     O_R   0.417838 0.628569 0.230874 -0.380007
S1    S     S_3+6 0.817945 0.519846 0.400094 -0.027769
O5    O     O_2   0.713723 0.418204 0.356555 -0.214327
O6    O     O_2   0.825655 0.610401 0.488293 -0.262669
O7    O     O_3   0.813099 0.549139 0.300728 -0.585794
H33   H     H_    0.876390 0.622792 0.337215 0.355754
S2    S     S_3+6 0.244839 0.475517 0.594984 -0.018739
O8    O     O_2   0.247002 0.451572 0.684712 -0.345982
O9    O     O_2   0.240069 0.384711 0.509917 -0.246465
O10   O     O_3   0.360131 0.590782 0.644086 -0.482246
H34   H     H_    0.421139 0.583374 0.687786 0.388884
S3    S     S_3+6 0.642711 0.269083 0.534975 0.005106
O11   O     O_2   0.753756 0.282700 0.553111 -0.299236
O12   O     O_2   0.589048 0.280000 0.438170 -0.232737
O13   O     O_3   0.659390 0.365578 0.644407 -0.463476
H35   H     H_    0.711215 0.434456 0.654371 0.408735
S4    S     S_3+6 0.339093 0.808176 0.462670 -0.016720
O14   O     O_2   0.396019 0.787583 0.550551 -0.217061
O15   O     O_2   0.232505 0.798766 0.456057 -0.360236
O16   O     O_3   0.309508 0.714237 0.343759 -0.459342
H36   H     H_    0.258781 0.644718 0.333570 0.401874
N19   N     N_R   0.972196 0.744878 0.941431 0.229458
O17   O     O_R   0.991418 0.683327 0.875530 -0.374414
O18   O     O_R   0.955634 0.721498 0.012464 -0.367311
N20   N     N_R   0.802690 0.960943 0.760502 0.214941
O19   O     O_R   0.695392 0.908735 0.709999 -0.374607
O20   O     O_R   0.853207 0.029396 0.735533 -0.445180

loop_
_geom_bond_atom_site_label_1
_geom_bond_atom_site_label_2
_geom_bond_distance
_ccdc_geom_bond_type
C14   H14   1.080593 S    
C25   H19   1.080636 S    
N5    N9    1.379003 A    
C6    N6    1.330699 A    
C7    N7    1.330085 A    
C32   C34   1.395287 A    
S4    O16   1.681050 S    
C44   C47   1.400347 A    
C25   C35   1.396501 A    
C3    N3    1.326069 A    
C55   C57   1.393495 A    
N8    N12   1.379002 A    
N2    N16   1.395009 A    
C1    N1    1.337958 A    
C12   N12   1.331795 A    
H18   C36   1.082291 S    
C7    H7    1.078663 S    
C34   H24   1.082601 S    
C14   N14   1.328261 A    
N12   Ni2   1.887490 S    
C13   C19   1.371434 A    
C40   C42   1.408346 A    
C45   H27   1.084528 S    
C16   C18   1.390186 A    
C50   C53   1.399889 A    
N10   Ni1   1.856600 S    
C46   C48   1.399010 A    
N18   O3    1.301503 A    
C20   C47   1.416544 S    
C29   C31   1.404631 A    
N2    Ni2   1.855817 S    
N4    N14   1.395130 A    
C2    C18   1.396291 A    
C49   H29   1.080829 S    
N17   O1    1.301186 A    
C8    N8    1.320124 A    
C58   H32   1.080093 S    
O13   H35   0.991004 S    
C11   H11   1.080214 S    
C56   N20   1.436553 S    
N6    N10   1.379003 A    
C6    H6    1.080486 S    
C43   C45   1.368312 A    
N3    Ni2   1.887604 S    
C15   N15   1.334884 A    
C4    C20   1.378127 A    
C43   C48   1.402159 A    
C8    C24   1.369928 A    
C19   C48   1.410289 S    
S3    O13   1.682246 S    
C56   C58   1.393403 A    
C39   C41   1.407996 A    
C51   C53   1.400799 A    
C9    C21   1.384209 A    
C26   C36   1.396389 A    
C2    N2    1.339291 A    
C44   S2    1.770763 S    
C30   C41   1.479111 S    
C10   C22   1.367992 A    
C37   H25   1.085324 S    
C16   H16   1.072946 S    
N16   Ni4   1.856789 S    
C5    C21   1.375699 A    
C56   C59   1.412762 A    
S1    O6    1.503918 D    
C9    N9    1.330448 A    
N7    Ni4   1.857621 S    
C25   C27   1.404398 A    
C49   C54   1.400648 A    
C43   S1    1.777939 S    
C32   H22   1.083790 S    
C31   H21   1.083150 S    
C15   C17   1.384854 A    
S4    O15   1.502213 D    
C38   C40   1.394824 A    
N15   Ni3   1.856790 S    
C58   C60   1.403429 A    
N17   O2    1.299698 A    
C1    H1    1.079988 S    
C26   H20   1.082236 S    
C2    H2    1.076871 S    
C52   S4    1.779963 S    
C55   N19   1.435299 S    
N1    N15   1.395009 A    
C44   C46   1.382094 A    
H17   C35   1.082395 S    
C4    N4    1.319835 A    
C46   H28   1.084237 S    
S1    O5    1.502886 D    
C52   C54   1.405936 A    
C15   H15   1.075631 S    
C29   C42   1.484083 S    
N5    Ni3   1.885272 S    
C17   C60   1.477968 S    
N4    Ni1   1.887604 S    
N6    Ni4   1.885274 S    
C6    C22   1.375707 A    
C55   C60   1.413747 A    
C28   N18   1.438181 S    
C10   N10   1.318396 A    
C38   H26   1.083860 S    
S2    O10   1.682446 S    
N20   O20   1.301374 A    
O10   H34   0.990567 S    
C26   C28   1.406971 A    
S2    O9    1.503243 D    
S3    O11   1.502860 D    
S1    O7    1.680567 S    
C7    C23   1.382013 A    
C3    H3    1.080840 S    
C50   H30   1.082551 S    
C57   C59   1.401455 A    
C34   C36   1.393637 A    
N13   Ni4   1.885440 S    
C8    H8    1.082078 S    
N14   Ni3   1.885442 S    
N19   O17   1.301849 A    
S4    O14   1.503568 D    
N1    Ni1   1.855816 S    
C9    H9    1.077921 S    
O16   H36   0.990813 S    
C22   C54   1.419058 S    
C10   H10   1.079717 S    
C5    N5    1.320759 A    
N11   Ni1   1.887490 S    
C11   C23   1.372882 A    
C23   C40   1.420684 S    
C5    H5    1.079738 S    
C27   N17   1.437451 S    
C3    C19   1.371244 A    
C13   H13   1.080680 S    
C50   C52   1.365852 A    
C31   C33   1.396344 A    
N19   O18   1.301502 A    
C24   C39   1.423862 S    
C57   H31   1.080600 S    
C33   C35   1.395344 A    
C21   C53   1.424438 S    
N8    Ni3   1.857620 S    
C18   C59   1.475427 S    
N18   O4    1.300905 A    
N3    N13   1.395130 A    
C11   N11   1.319756 A    
C13   N13   1.323415 A    
N7    N11   1.379001 A    
C49   C51   1.380788 A    
C37   C42   1.364714 A    
C45   C47   1.398128 A    
C16   N16   1.332569 A    
C14   C20   1.382129 A    
N9    Ni2   1.856598 S    
C4    H4    1.076664 S    
C33   H23   1.082480 S    
C28   C30   1.417216 A    
N20   O19   1.301807 A    
C30   C32   1.405387 A    
C27   C29   1.415882 A    
O7    H33   0.990685 S    
C1    C17   1.388250 A    
C12   C24   1.371685 A    
C37   C39   1.393782 A    
C38   C41   1.384730 A    
C12   H12   1.077504 S    
S2    O8    1.502570 D    
S3    O12   1.503175 D    
C51   S3    1.771192 S    
