data_mof_unit_8696.cif
_audit_creation_date              2013-03-05T16:30:49-0500
_audit_creation_method            fapswitch 2.2
_symmetry_space_group_name_H-M    P1
_symmetry_Int_Tables_number       1
_space_group_crystal_system       triclinic
_cell_length_a                    11.091934
_cell_length_b                    10.932215
_cell_length_c                    9.614231
_cell_angle_alpha                 90.872718
_cell_angle_beta                  101.507513
_cell_angle_gamma                 91.048842
_cell_volume                      1141.97780094

loop_
_atom_site_label
_atom_site_type_symbol
_atom_site_description
_atom_site_fract_x
_atom_site_fract_y
_atom_site_fract_z
_atom_type_partial_charge
O1    O     O_R   0.500000 0.319640 0.618810 -0.517875
O2    O     O_R   0.500010 0.319680 0.381230 -0.549342
C1    C     C_R   0.503682 0.262643 0.499771 0.891733
O3    O     O_R   0.320680 0.500000 0.575130 -0.525184
O4    O     O_R   0.320690 0.500040 0.337550 -0.580545
C2    C     C_R   0.263849 0.499447 0.442923 0.807344
Cu1   Cu    Cu3+1 0.499990 0.499980 0.640670 1.098827
Cu2   Cu    Cu3+1 0.500010 0.500020 0.359330 1.028406
O5    O     O_R   0.499990 0.680320 0.618770 -0.547375
O6    O     O_R   0.500000 0.680360 0.381190 -0.593457
O7    O     O_R   0.679310 0.499960 0.662450 -0.542999
O8    O     O_R   0.679320 0.500000 0.424870 -0.595677
C3    C     C_R   0.502039 0.737268 0.501048 0.833093
C4    C     C_R   0.736119 0.503351 0.556826 0.839900
C5    C     C_2   0.130682 0.483678 0.411307 0.208172
C6    C     C_2   0.064211 0.527456 0.503774 0.081292
H1    H     H_    0.900343 0.604866 0.657399 0.148857
C7    C     C_2   0.867667 0.528979 0.584961 -0.325701
C8    C     C_2   0.940180 0.475242 0.506660 0.157421
C9    C     C_R   0.467607 0.064857 0.607161 -0.069366
C10   C     C_R   0.505444 0.128938 0.497463 -0.157503
C11   C     C_R   0.539266 0.060670 0.384325 0.326472
C12   C     C_R   0.530885 0.932494 0.383846 -0.223902
H2    H     H_    0.557661 0.881257 0.298034 0.213751
C13   C     C_R   0.501973 0.870266 0.499676 -0.151382
C14   C     C_R   0.471279 0.938306 0.610248 0.013163
C15   C     C_3   0.522504 0.936324 0.767120 0.306329
C16   C     C_3   0.508020 0.076450 0.766727 0.338046
C17   C     C_R   0.606541 0.519014 0.098437 0.259567
N1    N     N_R   0.500780 0.500930 0.148120 -0.222100
C18   C     C_R   0.399075 0.464424 0.052279 -0.062905
H3    H     H_    0.318132 0.434735 0.090056 0.215242
C19   C     C_R   0.398245 0.461270 0.904278 0.423957
N2    N     N_R   0.500790 0.500890 0.852210 -0.252771
C20   C     C_R   0.606553 0.519066 0.951562 0.266792
C21   C     C_3   0.688706 0.629744 0.969608 -0.106787
C22   C     C_3   0.691129 0.627541 0.128488 -0.507477
H4    H     H_    0.641613 0.708279 0.915863 0.243723
H5    H     H_    0.781532 0.604221 0.194611 0.230397
H6    H     H_    0.646900 0.707975 0.167585 0.224814
N3    N     N_3   0.902829 0.360364 0.434245 -0.464894
H7    H     H_    0.831372 0.375110 0.348035 0.299512
H8    H     H_    0.873156 0.300016 0.504520 0.266145
N4    N     N_R   0.622561 0.149233 0.815140 0.153644
O9    O     O_R   0.710604 0.149301 0.743532 -0.379088
O10   O     O_R   0.633814 0.221335 0.926125 -0.281621
N5    N     N_R   0.289241 0.410828 0.814119 0.135018
O11   O     O_R   0.297792 0.320301 0.728004 -0.317594
O12   O     O_R   0.182823 0.428292 0.847857 -0.365774
N6    N     N_3   0.807742 0.606994 0.931615 -0.529748
H9    H     H_    0.869891 0.675678 0.979219 0.257004
H10   H     H_    0.841400 0.523129 0.971341 0.305733
N7    N     N_3   0.115099 0.627346 0.598225 -0.554564
H11   H     H_    0.112359 0.604547 0.702437 0.290365
H12   H     H_    0.060450 0.703699 0.571679 0.225371
N8    N     N_R   0.075090 0.417360 0.283464 0.138241
O13   O     O_R   0.982434 0.463466 0.197201 -0.384329
O14   O     O_R   0.129506 0.323199 0.241499 -0.305884
N9    N     N_R   0.596646 0.117281 0.279540 0.149175
O15   O     O_R   0.684717 0.197813 0.319537 -0.355635
O16   O     O_R   0.586605 0.065590 0.155069 -0.322023
N10   N     N_R   0.443649 0.868665 0.846838 0.122537
O17   O     O_R   0.474453 0.863600 0.984373 -0.365731
O18   O     O_R   0.344727 0.809970 0.781726 -0.343376
N11   N     N_3   0.650277 0.895497 0.799973 -0.594269
H13   H     H_    0.700168 0.925872 0.725190 0.246916
H14   H     H_    0.693025 0.930629 0.899783 0.277820
N12   N     N_3   0.407522 0.118821 0.832984 -0.472839
H15   H     H_    0.427443 0.100199 0.941054 0.292066
H16   H     H_    0.325148 0.072137 0.789092 0.252875

loop_
_geom_bond_atom_site_label_1
_geom_bond_atom_site_label_2
_geom_bond_distance
_ccdc_geom_bond_type
O1    C1    1.302913 A    
O4    Cu2   1.958016 S    
N6    H10   1.045051 S    
C12   H2    1.082770 S    
C18   C19   1.420998 A    
N10   O17   1.300354 A    
C15   N11   1.468475 S    
C15   N10   1.469884 S    
N8    O14   1.301527 A    
N5    O12   1.301565 A    
N3    H7    1.042980 S    
C17   C20   1.412129 A    
N5    O11   1.297579 A    
Cu2   O8    1.962840 S    
C15   C16   1.543202 S    
Cu2   N1    2.032517 S    
C5    N8    1.438978 S    
C9    C10   1.402701 A    
C21   H4    1.095094 S    
H1    C7    1.084116 S    
C13   C14   1.388836 A    
C21   N6    1.462961 S    
Cu1   Cu2   2.704920 S    
C22   H5    1.111121 S    
C18   H3    1.079982 S    
N7    H11   1.042292 S    
N8    O13   1.299898 A    
Cu1   O7    1.958018 S    
N3    H8    1.046147 S    
C3    C13   1.454240 S    
C14   C15   1.502510 S    
C17   N1    1.364320 A    
C9    C14   1.385417 A    
C6    C8    1.485331 S    
O4    C2    1.295674 A    
C10   C11   1.424514 A    
C21   C22   1.522943 S    
C16   N12   1.468390 S    
O8    C4    1.298687 A    
O6    C3    1.297191 A    
N6    H9    1.045547 S    
C22   H6    1.111067 S    
O2    C1    1.301307 A    
N7    H12   1.045282 S    
N1    C18   1.355920 A    
C19   N5    1.435325 S    
O7    C4    1.298170 A    
C1    C10   1.462071 S    
O3    C2    1.301132 A    
N9    O16   1.299129 A    
C5    C6    1.350721 D    
N9    O15   1.298297 A    
C12   C13   1.401202 A    
C19   N2    1.395595 A    
N4    O9    1.302266 A    
Cu2   O6    1.979506 S    
N11   H13   1.045347 S    
Cu1   N2    2.031913 S    
C17   C22   1.487298 S    
C11   N9    1.436450 S    
Cu1   O5    1.985914 S    
N12   H16   1.046849 S    
O5    C3    1.303955 A    
C11   C12   1.402508 A    
C7    C8    1.343200 D    
N10   O18   1.302107 A    
C9    C16   1.512644 S    
N2    C20   1.366263 A    
O3    Cu1   1.962839 S    
C2    C5    1.453903 S    
O1    Cu1   1.979505 S    
C4    C7    1.451186 S    
C16   N4    1.476358 S    
C6    N7    1.441673 S    
O2    Cu2   1.985913 S    
C8    N3    1.439718 S    
N4    O10   1.301190 A    
N12   H15   1.042256 S    
N11   H14   1.045815 S    
C20   C21   1.488152 S    
