data_mof_unit_31597.cif
_audit_creation_date              2012-10-26T20:32:56-0400
_audit_creation_method            fapswitch 2.2
_symmetry_space_group_name_H-M    P1
_symmetry_Int_Tables_number       1
_space_group_crystal_system       triclinic
_cell_length_a                    27.741122
_cell_length_b                    10.819636
_cell_length_c                    9.581658
_cell_angle_alpha                 89.66161
_cell_angle_beta                  90.101677
_cell_angle_gamma                 90.773575
_cell_volume                      2875.60715164

loop_
_atom_site_label
_atom_site_type_symbol
_atom_type_description
_atom_site_fract_x
_atom_site_fract_y
_atom_site_fract_z
_atom_type_partial_charge
C1    C     C_R   0.500485 0.262644 0.500426 0.578097
C2    C     C_R   0.974103 0.405046 0.539143 0.020780
C3    C     C_R   0.975138 0.619317 0.447776 0.033581
C4    C     C_R   0.407436 0.499972 0.499814 0.589405
C5    C     C_R   0.949335 0.512095 0.494785 0.006232
C6    C     C_R   0.948043 0.313074 0.617992 -0.016319
C7    C     C_R   0.897594 0.311302 0.611449 -0.108747
C8    C     C_R   0.872508 0.408883 0.550699 0.011333
C9    C     C_R   0.898227 0.513033 0.501333 -0.034035
C10   C     C_R   0.872731 0.618700 0.460368 0.028609
C11   C     C_R   0.822127 0.615349 0.460040 0.395706
C12   C     C_R   0.276247 0.535352 0.604406 -0.052331
C13   C     C_R   0.821875 0.408892 0.548189 0.398177
C14   C     C_R   0.720998 0.432829 0.405657 -0.069653
C15   C     C_R   0.670702 0.430041 0.405500 -0.163205
C16   C     C_R   0.500142 0.737657 0.499880 0.565024
C17   C     C_R   0.670355 0.578623 0.594027 -0.155015
C18   C     C_R   0.720588 0.581626 0.593949 -0.066563
C19   C     C_R   0.746104 0.508555 0.500015 0.234781
C20   C     C_R   0.023872 0.397298 0.509618 -0.005764
C21   C     C_R   0.050511 0.503725 0.469628 -0.019561
C22   C     C_R   0.026540 0.615276 0.433372 0.056354
C23   C     C_R   0.253153 0.493203 0.483498 0.218886
C24   C     C_R   0.046847 0.282874 0.504925 -0.129129
C25   C     C_R   0.105525 0.709366 0.383749 -0.122642
C26   C     C_R   0.948286 0.728291 0.425797 -0.106497
C27   C     C_R   0.898205 0.726643 0.426456 -0.131224
C28   C     C_R   0.592370 0.500202 0.500165 0.541125
C29   C     C_R   0.055094 0.714413 0.376661 0.218593
C30   C     C_R   0.495892 0.063211 0.624957 0.071316
C31   C     C_R   0.504012 0.129791 0.501847 0.045922
C32   C     C_R   0.517014 0.066251 0.380734 -0.163025
C33   C     C_R   0.516386 0.937662 0.380414 -0.153364
C34   C     C_R   0.101556 0.496763 0.462944 -0.053341
C35   C     C_R   0.503155 0.871291 0.501008 0.014709
C36   C     C_R   0.495572 0.935771 0.624727 0.015281
C37   C     C_3   0.453961 0.927984 0.723732 -0.217588
C38   C     C_3   0.454622 0.068469 0.724800 0.090903
C39   C     C_R   0.542057 0.520435 0.073195 0.105874
C40   C     C_R   0.176317 0.386410 0.500692 0.391382
C41   C     C_R   0.459857 0.467753 0.074160 -0.020012
C42   C     C_R   0.459863 0.467786 0.925886 -0.011478
C43   C     C_R   0.541670 0.519197 0.925955 0.092347
C44   C     C_3   0.576013 0.625451 0.911727 0.148717
C45   C     C_R   0.125359 0.383498 0.489185 0.031275
C46   C     C_3   0.575573 0.633678 0.071164 0.227839
C47   C     C_R   0.179172 0.599616 0.436258 0.398020
C48   C     C_R   0.280252 0.453108 0.370339 -0.074661
C49   C     C_R   0.330339 0.455674 0.377162 -0.181367
C50   C     C_R   0.326931 0.538065 0.613071 0.219530
C51   C     C_3   0.625929 0.614820 0.135956 -0.200846
C52   C     C_3   0.662892 0.713582 0.088540 -0.298486
C53   C     C_3   0.710564 0.699349 0.166451 -0.424355
C54   C     C_3   0.116965 0.143528 0.495194 -0.221608
C55   C     C_3   0.123246 0.091887 0.643527 -0.279672
C56   C     C_R   0.096975 0.273369 0.498917 -0.002724
C57   C     C_3   0.142684 0.960715 0.641324 -0.426822
C58   C     C_3   0.970798 0.231985 0.731105 -0.252073
C59   C     C_3   0.998723 0.309766 0.838802 -0.288331
C60   C     C_3   0.017351 0.229763 0.958538 -0.446385
C61   C     C_R   0.128800 0.603162 0.429464 -0.010117
C62   C     C_R   0.354228 0.497884 0.497787 0.054903
C63   C     C_R   0.645155 0.502303 0.500475 -0.004942
Cu1   Cu    Cu3+1 0.500000 0.499980 0.640670 1.008016
Cu2   Cu    Cu3+1 0.500000 0.500020 0.359330 0.958553
H1    H     H_    0.262397 0.420616 0.276621 0.130935
H2    H     H_    0.254611 0.566690 0.690948 0.106848
H3    H     H_    0.464069 0.887637 0.826276 0.103090
H4    H     H_    0.464617 0.110843 0.826662 0.120260
H5    H     H_    0.427076 0.442707 0.128617 0.123968
H6    H     H_    0.427070 0.442714 0.871454 0.164333
H7    H     H_    0.610394 0.594614 0.865740 0.107952
H8    H     H_    0.651726 0.371072 0.332121 0.120149
H9    H     H_    0.740505 0.376556 0.332346 0.131826
H10   H     H_    0.877686 0.237322 0.663061 0.159024
H11   H     H_    0.025430 0.199184 0.497781 0.116270
H12   H     H_    0.126718 0.787961 0.347284 0.144678
H13   H     H_    0.350428 0.423800 0.287821 0.127070
H14   H     H_    0.325722 0.606169 0.800654 0.316827
H15   H     H_    0.059300 0.870515 0.272207 0.316543
H16   H     H_    0.388381 0.118053 0.736336 0.329772
H17   H     H_    0.523334 0.739444 0.869048 0.337887
H18   H     H_    0.705035 0.710633 0.280448 0.196401
H19   H     H_    0.725933 0.606853 0.146475 0.161927
H20   H     H_    0.736689 0.771149 0.130076 0.174718
H21   H     H_    0.670032 0.705881 0.974992 0.156290
H22   H     H_    0.648695 0.807305 0.109159 0.215643
H23   H     H_    0.964389 0.818413 0.413618 0.191972
H24   H     H_    0.622893 0.623616 0.250120 0.198052
H25   H     H_    0.639447 0.521224 0.110779 0.088149
H26   H     H_    0.519014 0.738188 0.103392 0.323120
H27   H     H_    0.116483 0.897806 0.589114 0.156750
H28   H     H_    0.177707 0.958480 0.585425 0.197113
H29   H     H_    0.148206 0.927427 0.749939 0.149426
H30   H     H_    0.148365 0.151698 0.704195 0.212348
H31   H     H_    0.087858 0.090480 0.697823 0.146508
H32   H     H_    0.091565 0.081902 0.437293 0.119408
H33   H     H_    0.150841 0.139395 0.434388 0.196091
H34   H     H_    0.651229 0.638078 0.664579 0.134405
H35   H     H_    0.986820 0.183912 0.014089 0.162903
H36   H     H_    0.042003 0.158289 0.918255 0.149829
H37   H     H_    0.037488 0.288557 0.033960 0.153638
H38   H     H_    0.030038 0.357143 0.789029 0.177615
H39   H     H_    0.974691 0.381401 0.882163 0.175306
H40   H     H_    0.942148 0.180174 0.788855 0.142295
H41   H     H_    0.993726 0.158569 0.689062 0.133225
H42   H     H_    0.879513 0.811804 0.404006 0.164952
H43   H     H_    0.739739 0.640731 0.666751 0.133431
H44   H     H_    0.525796 0.115333 0.285046 0.140846
H45   H     H_    0.524522 0.891251 0.284680 0.189679
H46   H     H_    0.421135 0.886155 0.675395 0.175808
N1    N     N_R   0.201611 0.493267 0.474347 -0.390408
N2    N     N_R   0.797811 0.510580 0.501297 -0.395667
N3    N     N_R   0.500300 0.500930 0.147930 -0.239915
N4    N     N_R   0.500310 0.500890 0.852020 -0.244048
O1    O     O_R   0.500000 0.319640 0.618810 -0.491571
O2    O     O_R   0.569730 0.499960 0.618810 -0.490524
O3    O     O_R   0.569740 0.500000 0.381220 -0.515085
O4    O     O_2   0.200662 0.285691 0.541965 -0.519216
O5    O     O_3   0.350136 0.582014 0.730795 -0.704892
O6    O     O_3   0.034208 0.810853 0.304615 -0.738982
O7    O     O_3   0.413423 0.118502 0.662560 -0.684479
O8    O     O_3   0.557654 0.730188 0.843103 -0.655561
O9    O     O_3   0.554242 0.741947 0.121552 -0.689270
O10   O     O_2   0.796864 0.308733 0.593799 -0.496705
O11   O     O_2   0.205665 0.701835 0.405892 -0.507416
O12   O     O_2   0.797440 0.715583 0.418040 -0.520070
O13   O     O_R   0.500010 0.319680 0.381230 -0.511897
O14   O     O_R   0.430260 0.500000 0.618780 -0.449317
O15   O     O_R   0.430270 0.500040 0.381190 -0.530184
O16   O     O_R   0.499990 0.680320 0.618770 -0.471013
O17   O     O_R   0.500000 0.680360 0.381190 -0.488452

loop_
_geom_bond_atom_site_label_1
_geom_bond_atom_site_label_2
_ccdc_geom_bond_type
C10   C27   A    
C8    C13   A    
Cu1   O1    S    
C57   H27   S    
Cu2   N3    S    
C6    C58   S    
C35   C36   A    
C1    O13   A    
C41   N3    A    
Cu2   O15   S    
C7    C8    A    
C40   N1    A    
C23   N1    S    
C12   C23   A    
C26   C27   A    
C53   H19   S    
C25   H12   S    
C59   H39   S    
C14   H9    S    
C36   C37   S    
C22   C29   A    
C28   O2    A    
C51   H25   S    
C30   C31   A    
C19   N2    S    
C47   N1    A    
C37   H3    S    
C4    C62   S    
C1    C31   S    
C49   H13   S    
C30   C38   S    
C18   C19   A    
C41   C42   A    
C16   O16   A    
C43   N4    A    
C13   N2    A    
C20   C24   A    
C45   C56   A    
C8    C9    A    
C29   O6    S    
Cu2   O3    S    
C54   H32   S    
C49   C62   A    
C1    O1    A    
C9    C10   A    
C13   O10   S    
C38   H4    S    
C59   C60   S    
Cu1   N4    S    
C57   H28   S    
C21   C22   A    
C46   O9    S    
C2    C6    A    
C60   H37   S    
C44   C46   S    
C6    C7    A    
H15   O6    S    
C52   H22   S    
C25   C29   A    
C40   C45   A    
C12   H2    S    
C54   C56   S    
C32   H44   S    
C2    C20   A    
C51   C52   S    
Cu2   O13   S    
C55   H30   S    
C24   H11   S    
C4    O15   A    
C21   C34   A    
C60   H35   S    
C58   C59   S    
C46   C51   S    
C34   C61   A    
Cu1   O2    S    
C58   H41   S    
C16   O17   A    
C11   O12   S    
C43   C44   S    
C5    C9    A    
C37   C38   S    
C12   C50   A    
C31   C32   A    
Cu1   O16   S    
C27   H42   S    
C39   N3    A    
H14   O5    S    
C17   C18   A    
C34   C45   A    
C25   C61   A    
Cu1   O14   S    
C17   H34   S    
C38   O7    S    
C39   C46   S    
H26   O9    S    
C48   C49   A    
C15   H8    S    
C57   H29   S    
C55   C57   S    
C50   C62   A    
C50   O5    S    
C2    C5    A    
C60   H36   S    
H17   O8    S    
Cu2   O17   S    
C52   C53   S    
C47   O11   S    
C54   C55   S    
C23   C48   A    
C14   C19   A    
C3    C26   A    
C55   H31   S    
C3    C5    A    
C47   C61   A    
C7    H10   S    
C4    O14   A    
C24   C56   A    
C44   O8    S    
C30   C36   A    
H16   O7    S    
C53   H18   S    
C58   H40   S    
C59   H38   S    
C32   C33   A    
C52   H21   S    
C16   C35   S    
C28   O3    A    
C51   H24   S    
Cu1   Cu2   S    
C42   H6    S    
C33   C35   A    
C44   H7    S    
C11   N2    A    
C18   H43   S    
C37   H46   S    
C10   C11   A    
C28   C63   S    
C42   N4    A    
C40   O4    S    
C20   C21   A    
C39   C43   A    
C26   H23   S    
C15   C63   A    
C14   C15   A    
C54   H33   S    
C3    C22   A    
C53   H20   S    
C33   H45   S    
C48   H1    S    
C17   C63   A    
C41   H5    S    
