data_mof_unit_21510.cif
_audit_creation_date              2012-12-10T19:16:29-0500
_audit_creation_method            fapswitch 2.2
_symmetry_space_group_name_H-M    P1
_symmetry_Int_Tables_number       1
_space_group_crystal_system       triclinic
_cell_length_a                    10.626894
_cell_length_b                    9.682562
_cell_length_c                    27.689784
_cell_angle_alpha                 90.098213
_cell_angle_beta                  89.870527
_cell_angle_gamma                 89.937995
_cell_volume                      2849.14269101

loop_
_atom_site_label
_atom_site_type_symbol
_atom_type_description
_atom_site_fract_x
_atom_site_fract_y
_atom_site_fract_z
_atom_type_partial_charge
C1    C     C_R   0.257550 0.500302 0.500195 0.880035
C2    C     C_R   0.423850 0.410391 0.973727 0.045108
C3    C     C_R   0.646068 0.485473 0.974511 0.045171
C4    C     C_R   0.500520 0.499788 0.405883 0.871438
C5    C     C_R   0.536021 0.446611 0.948856 0.073896
C6    C     C_R   0.320230 0.361781 0.946626 -0.215535
C7    C     C_R   0.323230 0.359749 0.896605 -0.128317
C8    C     C_R   0.429845 0.404877 0.871802 -0.027212
C9    C     C_R   0.537397 0.446004 0.897696 -0.050898
C10   C     C_R   0.645553 0.488585 0.872310 -0.026876
C11   C     C_R   0.642386 0.494395 0.821812 0.522054
C12   C     C_R   0.502068 0.369696 0.278220 -0.104604
C13   C     C_R   0.431093 0.411193 0.821389 0.522773
C14   C     C_R   0.454388 0.577620 0.726860 -0.194196
C15   C     C_R   0.440981 0.589752 0.676925 0.385327
C16   C     C_R   0.742646 0.500224 0.500140 0.835809
C17   C     C_R   0.585178 0.395003 0.667056 -0.275524
C18   C     C_R   0.596172 0.383528 0.716753 -0.066716
C19   C     C_R   0.530226 0.474228 0.746606 0.247823
C20   C     C_R   0.418462 0.424532 0.024579 0.046915
C21   C     C_R   0.529335 0.459516 0.050361 0.071387
C22   C     C_R   0.644336 0.485171 0.025717 0.046086
C23   C     C_R   0.512400 0.493292 0.252599 0.324684
C24   C     C_R   0.304739 0.408238 0.050615 -0.215828
C25   C     C_R   0.748612 0.518592 0.103373 -0.135759
C26   C     C_R   0.753496 0.526343 0.947828 -0.213920
C27   C     C_R   0.752931 0.527820 0.897735 -0.130636
C28   C     C_R   0.499229 0.499988 0.594027 0.958611
C29   C     C_R   0.753668 0.510870 0.053385 -0.215472
C30   C     C_3   0.071301 0.652088 0.501823 -0.385846
C31   C     C_3   0.071955 0.422315 0.545149 -0.373696
C32   C     C_3   0.928484 0.652046 0.501919 -0.400159
C33   C     C_3   0.927553 0.422564 0.545195 -0.409694
C34   C     C_R   0.524922 0.469799 0.101384 -0.051896
C35   C     C_3   0.072698 0.430023 0.453774 -0.411708
C36   C     C_3   0.121261 0.501209 0.500274 0.162615
C37   C     C_3   0.878880 0.501135 0.500253 0.179504
C38   C     C_3   0.928252 0.429964 0.453767 -0.391496
C39   C     C_3   0.375113 0.081534 0.512968 -0.233389
C40   C     C_3   0.375019 0.919004 0.512791 -0.212803
C41   C     C_3   0.530895 0.081062 0.450532 -0.232541
C42   C     C_3   0.530898 0.918334 0.450523 -0.242243
C43   C     C_3   0.593352 0.081383 0.533395 -0.230952
C44   C     C_3   0.593730 0.918807 0.533226 -0.224084
C45   C     C_R   0.410535 0.450087 0.126212 -0.020838
C46   C     C_R   0.408166 0.460988 0.176556 0.502839
C47   C     C_R   0.628230 0.509597 0.178077 0.503769
C48   C     C_R   0.518130 0.619678 0.276980 -0.099043
C49   C     C_R   0.513409 0.622423 0.327183 -0.228805
C50   C     C_R   0.497638 0.372014 0.328287 -0.223859
C51   C     C_R   0.301189 0.420553 0.100457 -0.137763
C52   C     C_R   0.634762 0.500195 0.127691 -0.021358
C53   C     C_R   0.503296 0.498404 0.353139 -0.042420
C54   C     C_R   0.507874 0.497165 0.646611 -0.179908
H1    H     H_    0.489916 0.274954 0.347426 0.148272
H2    H     H_    0.106468 0.313686 0.544827 0.172515
H3    H     H_    0.105599 0.706162 0.534777 0.218045
H4    H     H_    0.106901 0.471597 0.578850 0.209585
H5    H     H_    0.893909 0.705491 0.535063 0.180199
H6    H     H_    0.892106 0.472679 0.578806 0.171766
H7    H     H_    0.497722 0.271975 0.259210 0.135523
H8    H     H_    0.894164 0.711292 0.470088 0.172629
H9    H     H_    0.892936 0.314060 0.545061 0.173856
H10   H     H_    0.108098 0.485389 0.421264 0.167004
H11   H     H_    0.107506 0.321658 0.451686 0.173270
H12   H     H_    0.525890 0.715326 0.256989 0.137117
H13   H     H_    0.893125 0.485306 0.421252 0.165860
H14   H     H_    0.893744 0.321574 0.451684 0.172843
H15   H     H_    0.301704 0.119402 0.487651 0.143443
H16   H     H_    0.301990 0.881678 0.487211 0.134530
H17   H     H_    0.348347 0.120286 0.549427 0.173238
H18   H     H_    0.347386 0.880038 0.548974 0.225978
H19   H     H_    0.461503 0.118602 0.423558 0.146733
H20   H     H_    0.461581 0.880669 0.423516 0.148502
H21   H     H_    0.688979 0.119729 0.524110 0.143019
H22   H     H_    0.689379 0.881003 0.523550 0.138734
H23   H     H_    0.834811 0.539278 0.122912 0.191858
H24   H     H_    0.572767 0.119475 0.570496 0.169589
H25   H     H_    0.574466 0.880168 0.570232 0.200905
H26   H     H_    0.624501 0.119773 0.438653 0.146379
H27   H     H_    0.624508 0.879302 0.438634 0.145998
H28   H     H_    0.211766 0.407128 0.118730 0.190376
H29   H     H_    0.404120 0.646766 0.750893 0.186660
H30   H     H_    0.240631 0.324012 0.877432 0.194186
H31   H     H_    0.235380 0.322767 0.962957 0.143982
H32   H     H_    0.215461 0.389582 0.033502 0.140695
H33   H     H_    0.518260 0.721067 0.345576 0.147958
H34   H     H_    0.838909 0.562238 0.964449 0.143040
H35   H     H_    0.180778 0.679599 0.703820 0.362277
H36   H     H_    0.637346 0.323550 0.644417 0.168448
H37   H     H_    0.837010 0.561683 0.878996 0.193366
H38   H     H_    0.654559 0.303179 0.732128 0.159513
H39   H     H_    0.845664 0.523427 0.037653 0.140503
H40   H     H_    0.105516 0.710862 0.469834 0.163686
N1    N     N_R   0.516135 0.489678 0.201206 -0.358313
N2    N     N_R   0.535453 0.458058 0.797702 -0.347334
N3    N     N_3   0.499750 0.138610 0.498940 -0.039894
N4    N     N_3   0.499750 0.861390 0.498940 -0.045688
O1    O     O_R   0.314910 0.616040 0.499990 -0.617906
O2    O     O_2   0.328622 0.371994 0.796107 -0.542430
O3    O     O_2   0.732946 0.537062 0.203860 -0.555509
O4    O     O_2   0.744202 0.538278 0.796994 -0.547074
O5    O     O_2   0.410325 0.842397 0.640749 -0.299427
O6    O     O_2   0.264514 0.664875 0.611985 -0.371659
O7    O     O_3   0.232842 0.762963 0.698361 -0.511166
O8    O     O_R   0.314910 0.383960 0.499990 -0.641708
O9    O     O_R   0.500140 0.616020 0.428740 -0.633619
O10   O     O_R   0.500140 0.383980 0.428740 -0.630541
O11   O     O_R   0.685320 0.616040 0.499970 -0.641424
O12   O     O_R   0.685320 0.383960 0.499970 -0.638112
O13   O     O_R   0.500090 0.616050 0.571230 -0.566120
O14   O     O_R   0.500090 0.383950 0.571230 -0.634521
O15   O     O_2   0.299072 0.443032 0.200821 -0.555152
S1    S     S_3+6 0.335983 0.717106 0.655030 0.010559
Zn1   Zn    Zn3+2 0.500150 0.654960 0.499980 0.944289
Zn2   Zn    Zn3+2 0.500150 0.345040 0.499980 0.910820

loop_
_geom_bond_atom_site_label_1
_geom_bond_atom_site_label_2
_ccdc_geom_bond_type
C10   C27   A    
C11   N2    A    
C29   H39   S    
C8    C13   A    
C47   O3    S    
C22   C29   A    
C4    C53   S    
C41   C42   S    
C49   H33   S    
C35   C36   S    
C1    O1    A    
C41   H26   S    
C16   O12   A    
C7    C8    A    
C45   C46   A    
C28   O14   A    
C43   H24   S    
C4    O10   A    
C12   C23   A    
C26   C27   A    
C6    H31   S    
C40   H16   S    
C25   H23   S    
C31   H4    S    
C42   N4    S    
C40   N4    S    
C39   N3    S    
C45   C51   A    
C30   H3    S    
C18   C19   A    
C44   H22   S    
C44   N4    S    
C46   N1    A    
C20   C24   A    
C8    C9    A    
C31   C33   S    
C27   H37   S    
C35   H10   S    
C31   H2    S    
C9    C10   A    
C1    O8    A    
C24   C51   A    
C7    H30   S    
C39   H17   S    
C21   C22   A    
C43   H21   S    
C2    C6    A    
C42   H27   S    
C14   H29   S    
C16   O11   A    
C44   H25   S    
C28   O13   A    
C25   C29   A    
C4    O9    A    
C42   H20   S    
C50   C53   A    
C13   N2    A    
C2    C20   A    
C15   C54   A    
O7    S1    S    
O5    S1    D    
C39   C40   S    
C28   C54   S    
C21   C34   A    
C33   C37   S    
O8    Zn2   S    
C43   C44   S    
C5    C9    A    
C37   C38   S    
C33   H9    S    
C35   C38   S    
C17   C18   A    
C39   H15   S    
C15   S1    S    
C34   C45   A    
C32   C37   S    
C38   H13   S    
N3    Zn2   S    
C51   H28   S    
O9    Zn1   S    
C47   C52   A    
O6    S1    D    
C48   C49   A    
C38   H14   S    
C33   H6    S    
C41   N3    S    
C2    C5    A    
O12   Zn2   S    
O14   Zn2   S    
C47   N1    A    
C23   C48   A    
C40   H18   S    
C46   O15   S    
C14   C15   A    
C14   C19   A    
C3    C26   A    
C17   H36   S    
C43   N3    S    
C3    C5    A    
C12   C50   A    
C6    C7    A    
C16   C37   S    
C34   C52   A    
C50   H1    S    
C30   C36   S    
C18   H38   S    
O10   Zn2   S    
C13   O2    S    
C25   C52   A    
C32   H8    S    
C30   H40   S    
C30   C32   S    
C12   H7    S    
N4    Zn1   S    
C49   C53   A    
O1    Zn1   S    
C23   N1    S    
C11   O4    S    
C10   C11   A    
O11   Zn1   S    
C41   H19   S    
C20   C21   A    
C26   H34   S    
H35   O7    S    
C35   H11   S    
C31   C36   S    
C3    C22   A    
O13   Zn1   S    
C32   H5    S    
C48   H12   S    
C24   H32   S    
C17   C54   A    
C19   N2    S    
C1    C36   S    
