data_mof_unit_38603.cif
_audit_creation_date              2012-12-11T14:15:44-0500
_audit_creation_method            fapswitch 2.2
_symmetry_space_group_name_H-M    P1
_symmetry_Int_Tables_number       1
_space_group_crystal_system       triclinic
_cell_length_a                    11.138853
_cell_length_b                    12.706347
_cell_length_c                    23.648597
_cell_angle_alpha                 90.378396
_cell_angle_beta                  96.542162
_cell_angle_gamma                 68.521795
_cell_volume                      3092.13749217

loop_
_atom_site_label
_atom_site_type_symbol
_atom_type_description
_atom_site_fract_x
_atom_site_fract_y
_atom_site_fract_z
_atom_type_partial_charge
C1    C     C_R   0.150395 0.616642 0.429182 0.544884
C2    C     C_2   0.169506 0.235524 0.224923 0.249828
C3    C     C_2   0.171956 0.159902 0.265660 0.049489
C4    C     C_R   0.743999 0.606776 0.405292 0.528359
C5    C     C_1   0.140500 0.196413 0.322105 0.040045
C6    C     C_1   0.205280 0.198511 0.168569 -0.034126
C7    C     C_1   0.118900 0.231231 0.369012 0.038565
C8    C     C_1   0.171562 0.757076 0.125673 0.011865
C9    C     C_2   0.143013 0.728861 0.233542 0.000002
C10   C     C_2   0.238299 0.655388 0.269921 -0.102547
C11   C     C_1   0.220806 0.642101 0.328909 -0.002700
C12   C     C_R   0.627024 0.573191 0.315641 0.186958
C13   C     C_1   0.159420 0.739954 0.174466 -0.033734
C14   C     C_1   0.195350 0.631501 0.376312 0.029258
C15   C     C_1   0.615745 0.764407 0.863221 0.007940
C16   C     C_R   0.101521 0.282447 0.423395 0.550639
C17   C     C_2   0.643090 0.750401 0.753496 0.209862
C18   C     C_2   0.688330 0.648570 0.730166 0.015231
C19   C     C_1   0.691123 0.640060 0.669755 0.011626
C20   C     C_1   0.634163 0.757755 0.814062 -0.047120
C21   C     C_1   0.707092 0.627621 0.620447 0.036875
C22   C     C_R   0.202264 0.175796 0.851944 0.081969
C23   C     C_R   0.671006 0.747144 0.321991 0.239561
C24   C     C_R   0.111389 0.216811 0.638624 -0.004246
C25   C     C_R   0.009272 0.166801 0.713826 -0.106133
C26   C     C_R   0.009437 0.188848 0.656158 -0.026252
C27   C     C_R   0.216319 0.211574 0.678152 -0.115375
C28   C     C_R   0.144996 0.614264 0.592395 0.565995
C29   C     C_R   0.211085 0.200679 0.736023 -0.045883
C30   C     C_R   0.108008 0.174909 0.754419 0.009111
C31   C     C_R   0.107964 0.156099 0.812954 0.192877
C32   C     C_R   0.286660 0.224705 0.833395 0.202235
C33   C     C_R   0.302267 0.223116 0.775566 -0.043344
C34   C     C_R   0.662539 0.754260 0.261900 0.070947
C35   C     C_R   0.123302 0.735430 0.856783 0.025745
C36   C     C_R   0.172750 0.627328 0.653440 0.017896
C37   C     C_R   0.311355 0.566465 0.743335 -0.039288
C38   C     C_R   0.295254 0.567016 0.683548 -0.092515
C39   C     C_R   0.066532 0.688339 0.682885 0.219828
C40   C     C_R   0.749375 0.601993 0.565681 0.537716
C41   C     C_R   0.084350 0.696140 0.741707 -0.017383
C42   C     C_R   0.206164 0.633840 0.772845 -0.002120
C43   C     C_R   0.219739 0.646972 0.832093 0.216214
C44   C     C_R   0.999871 0.788878 0.826311 -0.071847
C45   C     C_R   0.659836 0.659185 0.230205 -0.080640
C46   C     C_R   0.981218 0.768361 0.769329 -0.150033
C47   C     C_R   0.265554 0.109888 0.069429 0.551323
C48   C     C_R   0.598209 0.775450 0.082095 0.566343
C49   C     C_R   0.189721 0.788243 0.069899 0.546246
C50   C     C_R   0.240966 0.115405 0.907470 0.598195
C51   C     C_R   0.574217 0.776744 0.918509 0.551785
C52   C     C_R   0.100421 0.276290 0.584368 0.536267
C53   C     C_R   0.162848 0.784321 0.908516 0.551276
C54   C     C_R   0.654793 0.760026 0.142319 0.007222
C55   C     C_R   0.670341 0.648156 0.348611 -0.055896
C56   C     C_R   0.673710 0.658420 0.171762 0.217738
C57   C     C_R   0.633587 0.571972 0.257255 0.026982
C58   C     C_1   0.025921 0.806937 0.253241 0.245507
C59   C     C_1   0.750644 0.544878 0.764566 0.184097
C60   C     C_1   0.417891 0.234108 0.757942 0.195210
C61   C     C_1   0.902811 0.184339 0.616528 0.246564
C62   C     C_1   0.891379 0.867927 0.851579 0.234133
C63   C     C_1   0.438001 0.499482 0.772765 0.241250
C64   C     C_1   0.405344 0.506729 0.653140 0.230232
C65   C     C_1   0.602657 0.484478 0.226400 0.305067
C66   C     C_1   0.214052 0.039918 0.255916 0.186078
C67   C     C_R   0.651198 0.855310 0.173095 -0.181430
C68   C     C_R   0.657929 0.853044 0.232710 0.284251
C69   C     C_1   0.233905 0.162928 0.122496 0.004592
Cr1   Cr    Cr6+3 0.189770 0.415650 0.511620 1.078095
Cr2   Cr    Cr6+3 0.930400 0.667320 0.496770 1.105764
Cr3   Cr    Cr6+3 0.879870 0.417010 0.491650 1.093859
Cr4   Cr    Cr6+3 0.149500 0.973980 0.985330 1.100508
Cr5   Cr    Cr6+3 0.457000 0.976510 0.994660 1.087202
Cr6   Cr    Cr6+3 0.411170 0.724270 0.995270 1.079200
H1    H     H_    0.927799 0.149508 0.726617 0.152920
H2    H     H_    0.395771 0.609600 0.863375 0.344823
H3    H     H_    0.883126 0.718009 0.672566 0.321417
H4    H     H_    0.645861 0.010265 0.235361 0.331232
H5    H     H_    0.546561 0.528795 0.374772 0.335467
H6    H     H_    0.648628 0.834422 0.390135 0.326330
H7    H     H_    0.136158 0.391234 0.202792 0.340944
H8    H     H_    0.295813 0.230166 0.664178 0.167571
H9    H     H_    0.635711 0.933997 0.150533 0.137688
H10   H     H_    0.887318 0.816512 0.746197 0.172744
H11   H     H_    0.328039 0.600767 0.254793 0.148847
H12   H     H_    0.629827 0.547017 0.128571 0.349766
H13   H     H_    0.565680 0.913754 0.743177 0.340241
H14   H     H_    0.010480 0.056826 0.806872 0.321850
H15   H     H_    0.397621 0.311087 0.854547 0.363696
N1    N     N_1   0.933141 0.870007 0.269437 -0.210478
N2    N     N_1   0.801749 0.461968 0.791970 -0.223733
N3    N     N_1   0.510680 0.240922 0.743495 -0.236780
N4    N     N_1   0.817299 0.180684 0.584865 -0.238215
N5    N     N_1   0.804452 0.931241 0.871665 -0.241584
N6    N     N_1   0.538914 0.445901 0.796304 -0.215962
N7    N     N_1   0.493187 0.458732 0.629036 -0.249999
N8    N     N_1   0.577563 0.414249 0.202245 -0.260135
N9    N     N_1   0.248324 0.943940 0.248136 -0.300007
O1    O     O_R   0.196340 0.303200 0.448500 -0.494927
O2    O     O_R   0.555390 0.700940 0.062700 -0.495953
O3    O     O_R   0.295020 0.731920 0.049950 -0.497641
O4    O     O_R   0.199310 0.519670 0.454880 -0.491206
O5    O     O_R   0.094290 0.884230 0.921550 -0.488774
O6    O     O_R   0.168980 0.069410 0.926940 -0.451550
O7    O     O_R   0.358400 0.089990 0.927950 -0.457544
O8    O     O_R   0.544850 0.873850 0.939920 -0.483623
O9    O     O_R   0.536020 0.701900 0.936430 -0.503031
O10   O     O_R   0.277070 0.732810 0.932890 -0.471843
O11   O     O_3   0.339220 0.891590 0.991750 -0.287425
O12   O     O_R   0.811960 0.658090 0.547150 -0.476191
O13   O     O_R   0.045660 0.691380 0.441680 -0.481889
O14   O     O_R   0.811930 0.659460 0.430950 -0.485811
O15   O     O_R   0.757900 0.507620 0.421760 -0.475652
O16   O     O_R   0.988630 0.322990 0.439840 -0.479726
O17   O     O_R   0.196380 0.301720 0.573850 -0.513808
O18   O     O_R   0.199350 0.518300 0.571080 -0.505239
O19   O     O_R   0.045700 0.689900 0.567030 -0.437530
O20   O     O_3   0.710731 0.558376 0.143588 -0.652440
O21   O     O_3   0.596213 0.847542 0.718786 -0.683564
O22   O     O_3   0.021169 0.114937 0.832940 -0.645877
O23   O     O_R   0.757930 0.506140 0.547110 -0.497888
O24   O     O_3   0.361337 0.262102 0.873492 -0.638730
O25   O     O_3   0.327997 0.576987 0.865966 -0.654344
O26   O     O_3   0.944503 0.740804 0.653313 -0.650391
O27   O     O_3   0.649528 0.949296 0.262254 -0.588361
O28   O     O_3   0.585083 0.496003 0.339871 -0.657773
O29   O     O_3   0.684832 0.834501 0.353739 -0.583486
O30   O     O_3   0.132204 0.348833 0.237171 -0.670150
O31   O     O_R   0.988670 0.321620 0.556040 -0.490275
O32   O     O_3   0.000020 0.499990 0.500010 -0.278171
O33   O     O_R   0.113660 0.883270 0.047820 -0.498585
O34   O     O_R   0.186930 0.068530 0.043990 -0.492997
O35   O     O_R   0.377770 0.089040 0.054220 -0.500113
O36   O     O_R   0.562800 0.872960 0.056970 -0.510031

loop_
_geom_bond_atom_site_label_1
_geom_bond_atom_site_label_2
_ccdc_geom_bond_type
C24   C52   S    
C6    C69   T    
C8    C13   T    
C39   O26   S    
Cr3   O15   S    
C35   C53   S    
C41   C42   A    
C48   O36   A    
C24   C27   A    
C2    O30   S    
Cr4   O11   S    
C39   C41   A    
C12   O28   S    
C48   C54   S    
Cr3   O16   S    
C45   C57   A    
C29   C30   A    
C22   C32   A    
C4    O15   A    
C19   C21   T    
C26   C61   S    
C24   C26   A    
C65   N8    T    
C18   C19   S    
C28   O18   A    
C1    O13   A    
C30   C31   A    
C11   C14   T    
C43   O25   S    
C27   C29   A    
C53   O5    A    
C29   C33   A    
C17   C20   S    
Cr2   O14   S    
C9    C58   S    
H15   O24   S    
C37   C42   A    
C9    C13   S    
C47   C69   S    
C17   O21   S    
Cr5   O8    S    
Cr4   O5    S    
C45   C56   A    
Cr1   O1    S    
C51   O9    A    
Cr2   O12   S    
Cr6   O3    S    
C41   C46   A    
C15   C51   S    
H13   O21   S    
C35   C43   A    
C9    C10   D    
C1    O4    A    
C22   C50   S    
C46   H10   S    
C60   N3    T    
Cr4   O33   S    
Cr6   O9    S    
C62   N5    T    
C47   O34   A    
C32   O24   S    
C2    C6    S    
C37   C63   S    
C44   C46   A    
C40   O12   A    
C38   C64   S    
C52   O17   A    
C15   C20   T    
C49   O33   A    
C54   C56   A    
Cr6   O10   S    
C22   C31   A    
C67   C68   A    
C4    O14   A    
C31   O22   S    
C34   C68   A    
C49   O3    A    
C5    C7    T    
Cr1   O4    S    
C16   O1    A    
C54   C67   A    
Cr1   O17   S    
C25   C26   A    
C63   N6    T    
Cr5   O36   S    
C4    C55   S    
C66   N9    T    
H12   O20   S    
C37   C38   A    
Cr5   O7    S    
Cr4   O6    S    
C50   O6    A    
C23   C34   A    
Cr2   O13   S    
C17   C18   D    
C34   C45   A    
H7    O30   S    
Cr3   O31   S    
C35   C44   A    
C12   C57   A    
C64   N7    T    
H4    O27   S    
Cr4   O34   S    
C33   C60   S    
C47   O35   A    
C56   O20   S    
C3    C66   S    
C42   C43   A    
C16   O16   A    
C68   O27   S    
Cr3   O32   S    
C50   O7    A    
C58   N1    T    
C53   O10   A    
C25   C30   A    
C10   H11   S    
Cr6   O11   S    
Cr2   O19   S    
Cr3   O23   S    
C61   N4    T    
C36   C39   A    
C7    C16   S    
C57   C65   S    
C3    C5    S    
Cr5   O11   S    
C23   C55   A    
H5    O28   S    
C40   O23   A    
C25   H1    S    
C44   C62   S    
C32   C33   A    
C27   H8    S    
C2    C3    D    
C52   O31   A    
H6    O29   S    
H2    O25   S    
C28   O19   A    
C21   C40   S    
H14   O22   S    
C48   O2    A    
Cr5   O35   S    
C36   C38   A    
Cr1   O32   S    
C59   N2    T    
C12   C55   A    
C10   C11   S    
Cr2   O32   S    
C18   C59   S    
C67   H9    S    
C28   C36   S    
C51   O8    A    
Cr6   O2    S    
C1    C14   S    
Cr1   O18   S    
H3    O26   S    
C8    C49   S    
C23   O29   S    
