data_mof_unit_35344.cif
_audit_creation_date              2012-12-10T18:00:43-0500
_audit_creation_method            fapswitch 2.2
_symmetry_space_group_name_H-M    P1
_symmetry_Int_Tables_number       1
_space_group_crystal_system       triclinic
_cell_length_a                    15.883511
_cell_length_b                    10.815643
_cell_length_c                    9.525775
_cell_angle_alpha                 90.64008
_cell_angle_beta                  90.43223
_cell_angle_gamma                 90.196777
_cell_volume                      1636.27774329

loop_
_atom_site_label
_atom_site_type_symbol
_atom_type_description
_atom_site_fract_x
_atom_site_fract_y
_atom_site_fract_z
_atom_type_partial_charge
C1    C     C_R   0.499904 0.262289 0.499090 0.920265
C2    C     C_R   0.553837 0.574485 0.076479 -0.202503
C3    C     C_R   0.339865 0.499843 0.499520 0.805723
C4    C     C_R   0.660135 0.500157 0.500480 0.805724
C5    C     C_3   0.972981 0.421305 0.602357 -0.428428
C6    C     C_3   0.027019 0.578695 0.397643 -0.428428
C7    C     C_3   0.027383 0.386341 0.473213 0.468330
C8    C     C_3   0.972617 0.613659 0.526787 0.468331
C9    C     C_1   0.250333 0.500093 0.498507 -0.147898
C10   C     C_1   0.749667 0.499906 0.501493 -0.147898
C11   C     C_3   0.028927 0.537275 0.624048 0.345276
C12   C     C_R   0.500096 0.737711 0.500910 0.920264
C13   C     C_3   0.971073 0.462724 0.375952 0.345276
C14   C     C_3   0.083403 0.501070 0.497444 -0.028096
C15   C     C_3   0.916597 0.498930 0.502556 -0.028096
C16   C     C_1   0.174913 0.500506 0.497896 0.089498
C17   C     C_1   0.825087 0.499494 0.502104 0.089499
C18   C     C_R   0.544266 0.063081 0.394491 0.337276
C19   C     C_R   0.455734 0.936919 0.605509 0.337276
C20   C     C_3   0.998744 0.178709 0.446117 -0.289368
C21   C     C_3   0.001256 0.821291 0.553883 -0.289369
C22   C     C_3   0.550872 0.115966 0.163946 -0.183130
C23   C     C_R   0.548402 0.934369 0.401123 0.335336
C24   C     C_3   0.449128 0.884033 0.836053 -0.183131
C25   C     C_3   0.678494 0.854776 0.365139 -0.239645
C26   C     C_3   0.321506 0.145224 0.634860 -0.239645
C27   C     C_R   0.451598 0.065630 0.598877 0.335336
C28   C     C_R   0.501317 0.871620 0.502750 -0.360864
C29   C     C_R   0.498683 0.128380 0.497250 -0.360863
C30   C     C_R   0.445744 0.425027 0.073193 0.512985
C31   C     C_R   0.554256 0.574973 0.926807 0.512985
C32   C     C_R   0.446163 0.425515 0.923521 -0.202503
Cu1   Cu    Cu3+1 0.500000 0.500020 0.640660 1.023734
Cu2   Cu    Cu3+1 0.500000 0.499980 0.359340 1.023734
H1    H     H_    0.950548 0.359203 0.686284 0.179990
H2    H     H_    0.975008 0.909996 0.592986 0.177619
H3    H     H_    0.988018 0.405126 0.187440 0.339987
H4    H     H_    0.011982 0.594874 0.812560 0.339987
H5    H     H_    0.579143 0.184875 0.092741 0.173064
H6    H     H_    0.482256 0.136195 0.169922 0.159519
H7    H     H_    0.560734 0.023066 0.116167 0.172643
H8    H     H_    0.517744 0.863802 0.830078 0.159521
H9    H     H_    0.420856 0.815126 0.907260 0.173064
H10   H     H_    0.439267 0.976935 0.883832 0.172642
H11   H     H_    0.717628 0.801944 0.289606 0.181485
H12   H     H_    0.049451 0.640797 0.313716 0.179990
H13   H     H_    0.676121 0.800888 0.463938 0.142235
H14   H     H_    0.709870 0.945623 0.384483 0.184602
H15   H     H_    0.323879 0.199112 0.536062 0.142235
H16   H     H_    0.282372 0.198056 0.710394 0.181485
H17   H     H_    0.290130 0.054377 0.615517 0.184603
H18   H     H_    0.356891 0.301327 0.076925 0.294945
H19   H     H_    0.643109 0.698672 0.923075 0.294945
H20   H     H_    0.403406 0.366218 0.864594 0.175237
H21   H     H_    0.596594 0.633782 0.135406 0.175237
H22   H     H_    0.943578 0.201300 0.378575 0.196462
H23   H     H_    0.978688 0.164483 0.556313 0.155375
H24   H     H_    0.024992 0.090004 0.407014 0.177619
H25   H     H_    0.021312 0.835517 0.443687 0.155376
H26   H     H_    0.056422 0.798700 0.621425 0.196462
N1    N     N_R   0.500020 0.500030 0.852070 -0.181037
N2    N     N_R   0.499980 0.499970 0.147930 -0.181038
O1    O     O_R   0.500000 0.319660 0.618740 -0.564259
O2    O     O_3   0.937978 0.730092 0.560584 -0.570495
O3    O     O_3   0.938312 0.421799 0.246924 -0.710146
O4    O     O_3   0.061688 0.578201 0.753076 -0.710146
O5    O     O_3   0.591299 0.126045 0.296195 -0.550926
O6    O     O_3   0.408701 0.873955 0.703805 -0.550926
O7    O     O_3   0.597567 0.869940 0.306040 -0.572492
O8    O     O_3   0.402433 0.130060 0.693960 -0.572492
O9    O     O_3   0.391273 0.349825 0.145357 -0.708402
O10   O     O_3   0.608726 0.650175 0.854643 -0.708403
O11   O     O_R   0.500000 0.680340 0.381260 -0.564259
O12   O     O_R   0.499990 0.319630 0.381170 -0.521414
O13   O     O_R   0.500010 0.680370 0.618830 -0.521414
O14   O     O_R   0.379080 0.500000 0.618760 -0.576411
O15   O     O_R   0.620920 0.500000 0.381240 -0.576411
O16   O     O_R   0.379080 0.499970 0.381190 -0.536074
O17   O     O_R   0.620920 0.500030 0.618810 -0.536075
O18   O     O_3   0.062021 0.269908 0.439416 -0.570495

loop_
_geom_bond_atom_site_label_1
_geom_bond_atom_site_label_2
_ccdc_geom_bond_type
C4    O17   A    
C27   C29   A    
C24   H8    S    
C31   N1    A    
C20   H22   S    
C30   O9    S    
C21   H2    S    
C13   O3    S    
C12   C28   S    
C1    O12   A    
C9    C16   T    
C32   N1    A    
C21   H25   S    
C2    H21   S    
C26   H16   S    
Cu2   O15   S    
C11   C14   S    
C22   H7    S    
C10   C17   T    
Cu2   N2    S    
C23   O7    S    
C21   O2    S    
Cu1   O13   S    
C7    C14   S    
H4    O4    S    
H3    O3    S    
C19   C27   A    
C25   H13   S    
C11   O4    S    
C12   O11   A    
C1    O1    A    
C32   H20   S    
C20   O18   S    
C18   C23   A    
C21   H26   S    
C26   H15   S    
C5    C7    S    
Cu1   O17   S    
C6    C8    S    
C18   O5    S    
C2    C31   A    
C3    C9    S    
C6    C14   S    
Cu1   O14   S    
Cu1   O1    S    
C22   H6    S    
C1    C29   S    
Cu1   Cu2   S    
C19   O6    S    
C18   C29   A    
C23   C28   A    
C3    O14   A    
C25   H14   S    
C27   O8    S    
C8    O2    S    
C31   O10   S    
Cu2   O12   S    
C8    C15   S    
C30   N2    A    
C19   C28   A    
C26   O8    S    
C14   C16   S    
C25   O7    S    
C4    C10   S    
C25   H11   S    
C15   C17   S    
C6    H12   S    
C5    C11   S    
C13   C15   S    
C4    O15   A    
H18   O9    S    
C26   H17   S    
Cu2   O16   S    
C6    C13   S    
C30   C32   A    
H19   O10   S    
C8    C11   S    
C24   H10   S    
C22   H5    S    
C5    H1    S    
C22   O5    S    
C5    C15   S    
C24   O6    S    
Cu2   O11   S    
C7    C13   S    
Cu1   N1    S    
C12   O13   A    
C24   H9    S    
C20   H23   S    
C3    O16   A    
C20   H24   S    
C2    N2    A    
C7    O18   S    
