data_mof_unit_52303.cif
_audit_creation_date              2013-03-05T16:43:16-0500
_audit_creation_method            fapswitch 2.2
_symmetry_space_group_name_H-M    P1
_symmetry_Int_Tables_number       1
_space_group_crystal_system       triclinic
_cell_length_a                    15.739075
_cell_length_b                    10.704361
_cell_length_c                    9.892297
_cell_angle_alpha                 89.689078
_cell_angle_beta                  90.651002
_cell_angle_gamma                 90.347761
_cell_volume                      1666.45975957

loop_
_atom_site_label
_atom_site_type_symbol
_atom_site_description
_atom_site_fract_x
_atom_site_fract_y
_atom_site_fract_z
_atom_type_partial_charge
O1    O     O_R   0.500010 0.316790 0.614690 -0.628388
O2    O     O_R   0.500000 0.316760 0.385350 -0.591617
C1    C     C_R   0.501372 0.260036 0.500255 0.958456
O3    O     O_R   0.377150 0.500020 0.614720 -0.569933
O4    O     O_R   0.377140 0.499990 0.385380 -0.582758
C2    C     C_R   0.338431 0.499573 0.499426 0.932065
Zn1   Zn    Zn3+2 0.500010 0.500020 0.653130 1.019407
Zn2   Zn    Zn3+2 0.499990 0.499980 0.346870 1.009435
O5    O     O_R   0.500000 0.683240 0.614650 -0.624845
O6    O     O_R   0.499990 0.683210 0.385310 -0.615681
O7    O     O_R   0.622860 0.500010 0.614620 -0.591432
O8    O     O_R   0.622850 0.499980 0.385280 -0.642083
C3    C     C_R   0.503108 0.739711 0.499788 0.870005
C4    C     C_R   0.661615 0.499834 0.500633 0.891394
C5    C     C_3   0.051703 0.410121 0.624054 0.719959
C6    C     C_3   0.048198 0.437863 0.368530 -0.312655
C7    C     C_3   0.949922 0.438524 0.367579 0.235445
H1    H     H_    0.071681 0.494270 0.281498 0.183664
H2    H     H_    0.072301 0.341408 0.353678 0.287181
H3    H     H_    0.929052 0.500521 0.282304 0.110233
C8    C     C_1   0.750407 0.497764 0.502195 -0.077067
C9    C     C_3   0.083073 0.493268 0.503042 0.006945
C10   C     C_3   0.952074 0.419181 0.629977 0.075209
C11   C     C_3   0.917267 0.493671 0.503843 -0.089848
C12   C     C_3   0.951905 0.631174 0.509079 0.046389
C13   C     C_3   0.050394 0.629725 0.514655 -0.578232
C14   C     C_1   0.825659 0.495685 0.503146 0.038759
C15   C     C_1   0.174490 0.495263 0.499713 0.139447
C16   C     C_1   0.249698 0.497373 0.498499 -0.028531
H4    H     H_    0.075914 0.675372 0.607179 0.251079
H5    H     H_    0.075052 0.686504 0.428743 0.219079
H6    H     H_    0.936043 0.475225 0.719930 0.160163
H7    H     H_    0.933195 0.678083 0.412305 0.154875
C17   C     C_R   0.505893 0.061607 0.621677 -0.027746
C18   C     C_R   0.511016 0.128206 0.500786 -0.050663
C19   C     C_R   0.531575 0.065577 0.381165 -0.140819
H8    H     H_    0.541591 0.115349 0.287010 0.185284
C20   C     C_R   0.533169 0.936206 0.380811 -0.159548
H9    H     H_    0.542983 0.888141 0.286211 0.186242
C21   C     C_R   0.515741 0.870965 0.500731 -0.135173
C22   C     C_R   0.511683 0.934801 0.622437 0.138036
C23   C     C_3   0.453213 0.919524 0.739349 0.191115
C24   C     C_3   0.444942 0.061183 0.738093 0.040764
H10   H     H_    0.394342 0.865463 0.714495 0.143219
H11   H     H_    0.471294 0.107416 0.829865 0.129823
C25   C     C_R   0.426718 0.478112 0.069858 0.017367
N1    N     N_R   0.499430 0.499140 0.142800 -0.154976
C26   C     C_R   0.569394 0.537691 0.073775 -0.121215
H12   H     H_    0.625374 0.568040 0.129169 0.187190
C27   C     C_R   0.568787 0.542183 0.930472 0.478895
N2    N     N_R   0.499430 0.499180 0.857150 -0.189235
C28   C     C_R   0.426618 0.478514 0.927536 0.071940
C29   C     C_3   0.369175 0.367896 0.917453 0.109301
C30   C     C_3   0.370347 0.364431 0.072784 0.582650
H13   H     H_    0.399543 0.288277 0.866575 0.119646
N3    N     N_R   0.909398 0.297600 0.651040 0.237574
O9    O     O_R   0.861470 0.281709 0.756170 -0.337690
O10   O     O_R   0.920114 0.203849 0.570039 -0.233580
O11   O     O_3   0.089673 0.449603 0.747202 -0.727506
H14   H     H_    0.068297 0.533437 0.770433 0.351828
O12   O     O_3   0.497158 0.875599 0.853825 -0.733317
H15   H     H_    0.453869 0.865801 0.925281 0.353162
N4    N     N_R   0.357543 0.098396 0.704765 0.192862
O13   O     O_R   0.298490 0.080718 0.793893 -0.362629
O14   O     O_R   0.336990 0.146122 0.587732 -0.353714
O15   O     O_3   0.077295 0.286124 0.600899 -0.657211
H16   H     H_    0.072776 0.239580 0.687699 0.401208
O16   O     O_3   0.637770 0.594968 0.868399 -0.699914
H17   H     H_    0.615194 0.644586 0.791624 0.388367
O17   O     O_3   0.290478 0.401343 0.860765 -0.634971
H18   H     H_    0.256132 0.323409 0.858049 0.403938
N5    N     N_R   0.287811 0.388180 0.135039 0.257324
O18   O     O_R   0.252989 0.303690 0.211945 -0.307015
O19   O     O_R   0.249391 0.494486 0.116985 -0.366334
O20   O     O_3   0.410010 0.257548 0.127735 -0.725761
H19   H     H_    0.465784 0.247022 0.083301 0.291470
O21   O     O_3   0.918462 0.317743 0.342401 -0.636097
H20   H     H_    0.859965 0.326750 0.305155 0.349917
N6    N     N_R   0.915626 0.705446 0.618965 0.252503
O22   O     O_R   0.944107 0.696804 0.742661 -0.369025
O23   O     O_R   0.858848 0.789679 0.590295 -0.313610

loop_
_geom_bond_atom_site_label_1
_geom_bond_atom_site_label_2
_geom_bond_distance
_ccdc_geom_bond_type
N4    O14   1.301168 A    
C21   C22   1.389862 A    
C22   C23   1.493820 S    
C18   C19   1.405116 A    
C11   C14   1.442063 S    
C24   N4    1.467817 S    
C10   N3    1.475788 S    
O21   H20   0.992819 S    
Zn1   O7    1.974959 S    
C4    C8    1.397735 S    
C19   H8    1.083129 S    
C20   H9    1.083413 S    
O7    C4    1.288099 A    
C25   C28   1.407856 A    
C7    H3    1.118117 S    
N3    O9    1.301482 A    
C17   C18   1.391812 A    
O5    C3    1.285416 A    
C3    C21   1.417868 S    
C5    C9    1.570188 S    
O16   H17   0.988406 S    
C10   C11   1.572188 S    
O17   H18   0.991631 S    
C26   C27   1.418079 A    
O15   H16   0.993414 S    
C8    C14   1.184658 T    
O11   H14   0.989433 S    
C9    C15   1.439596 S    
C17   C22   1.360957 A    
C23   H10   1.115225 S    
O3    Zn1   1.966439 S    
C29   O17   1.401505 S    
C29   H13   1.105981 S    
C7    C11   1.567707 S    
N4    O13   1.300664 A    
N2    C28   1.363972 A    
C11   C12   1.567408 S    
O3    C2    1.287022 A    
N6    O23   1.301242 A    
C6    C7    1.546760 S    
C12   C13   1.550646 S    
C29   C30   1.536733 S    
C5    O15   1.410090 S    
C30   O20   1.410102 S    
O1    C1    1.288095 A    
O20   H19   0.993483 S    
N1    C26   1.362943 A    
C1    C18   1.420181 S    
Zn2   O8    1.966439 S    
C25   C30   1.501967 S    
C7    O21   1.404163 S    
C27   N2    1.381719 A    
C6    H1    1.114131 S    
C24   H11   1.111276 S    
C23   O12   1.400806 S    
N5    O19   1.302364 A    
C26   H12   1.081473 S    
O8    C4    1.287841 A    
C13   H4    1.109931 S    
C23   C24   1.522708 S    
C28   C29   1.488518 S    
Zn1   O5    1.995825 S    
C25   N1    1.364149 A    
C15   C16   1.183973 T    
C6    C9    1.552942 S    
O1    Zn1   1.999906 S    
C5    O11   1.416251 S    
O2    Zn2   1.995825 S    
C17   C24   1.507164 S    
N5    O18   1.301188 A    
O6    C3    1.287035 A    
C12   N6    1.472666 S    
O4    Zn2   1.974957 S    
C10   H6    1.108200 S    
C19   C20   1.385235 A    
O2    C1    1.285807 A    
Zn2   N1    2.018709 S    
Zn1   N2    2.018322 S    
C20   C21   1.402242 A    
O4    C2    1.288224 A    
C6    H2    1.113194 S    
C5    C10   1.573439 S    
N3    O10   1.300559 A    
O12   H15   0.992036 S    
N6    O22   1.301385 A    
C13   H5    1.114145 S    
C2    C16   1.396551 S    
C30   N5    1.468083 S    
Zn2   O6    1.999906 S    
C9    C13   1.556806 S    
C27   O16   1.370788 S    
C12   H7    1.116015 S    
