data_mof_unit_26376.cif
_audit_creation_date              2012-12-10T20:49:08-0500
_audit_creation_method            fapswitch 2.2
_symmetry_space_group_name_H-M    P1
_symmetry_Int_Tables_number       1
_space_group_crystal_system       triclinic
_cell_length_a                    8.927713
_cell_length_b                    8.125623
_cell_length_c                    10.54593
_cell_angle_alpha                 89.714053
_cell_angle_beta                  89.984803
_cell_angle_gamma                 90.040182
_cell_volume                      765.026083296

loop_
_atom_site_label
_atom_site_type_symbol
_atom_type_description
_atom_site_fract_x
_atom_site_fract_y
_atom_site_fract_z
_atom_type_partial_charge
C1    C     C_R   0.218079 0.499961 0.499830 0.963891
C2    C     C_3   0.628077 0.434584 0.039913 0.048595
C3    C     C_3   0.497942 0.498658 0.877512 0.007681
C4    C     C_3   0.502058 0.501342 0.122488 0.007680
C5    C     C_1   0.065219 0.499943 0.499934 -0.143355
C6    C     C_1   0.934781 0.500057 0.500066 -0.143355
C7    C     C_2   0.225806 0.638297 0.918331 0.358230
C8    C     C_2   0.774194 0.361702 0.081669 0.358230
C9    C     C_R   0.781921 0.500039 0.500170 0.963891
C10   C     C_R   0.500997 0.500483 0.256873 0.922871
C11   C     C_R   0.499003 0.499517 0.743127 0.922872
C12   C     C_3   0.488777 0.657001 0.040349 -0.220765
C13   C     C_3   0.511223 0.342999 0.959651 -0.220765
C14   C     C_3   0.616481 0.589181 0.955762 -0.265459
C15   C     C_3   0.383519 0.410819 0.044238 -0.265459
C16   C     C_3   0.371923 0.565416 0.960087 0.048595
H1    H     H_    0.479070 0.784850 0.076145 0.160641
H2    H     H_    0.520930 0.215150 0.923855 0.160641
H3    H     H_    0.711640 0.660817 0.915963 0.154772
H4    H     H_    0.288360 0.339183 0.084037 0.154772
H5    H     H_    0.147454 0.682710 0.988906 0.064441
H6    H     H_    0.852545 0.317290 0.011094 0.064441
N1    N     N_1   0.500000 0.073640 0.500000 -0.027445
N2    N     N_1   0.500000 0.926360 0.500000 -0.027445
O1    O     O_R   0.285350 0.636850 0.500000 -0.598709
O2    O     O_2   0.806271 0.352319 0.193890 -0.575295
O3    O     O_R   0.714650 0.363150 0.500000 -0.598709
O4    O     O_R   0.714650 0.636850 0.500000 -0.625364
O5    O     O_R   0.285350 0.363150 0.500000 -0.625363
O6    O     O_R   0.499970 0.636850 0.313950 -0.642234
O7    O     O_R   0.500030 0.363150 0.686050 -0.642234
O8    O     O_R   0.500030 0.636850 0.686050 -0.600073
O9    O     O_R   0.499970 0.363150 0.313950 -0.600073
O10   O     O_2   0.193729 0.647681 0.806109 -0.575294
Zn1   Zn    Zn3+2 0.500000 0.682780 0.500000 1.017577
Zn2   Zn    Zn3+2 0.500000 0.317220 0.500000 1.017577

loop_
_geom_bond_atom_site_label_1
_geom_bond_atom_site_label_2
_ccdc_geom_bond_type
C12   H1    S    
C2    C4    S    
N1    N2    T    
O3    Zn2   S    
C4    C12   S    
C8    O2    D    
C10   O6    A    
C8    H6    S    
C3    C13   S    
C6    C9    S    
C1    O5    A    
C11   O7    A    
C1    O1    A    
O5    Zn2   S    
C5    C6    T    
C3    C14   S    
C13   H2    S    
O1    Zn1   S    
C1    C5    S    
O6    Zn1   S    
C7    C16   S    
C12   C14   S    
C11   O8    A    
C10   O9    A    
C13   C15   S    
C4    C15   S    
C15   H4    S    
C2    C14   S    
C7    O10   D    
N2    Zn1   S    
C3    C11   S    
C4    C10   S    
C15   C16   S    
O8    Zn1   S    
O9    Zn2   S    
C9    O3    A    
N1    Zn2   S    
O4    Zn1   S    
C2    C13   S    
O7    Zn2   S    
C7    H5    S    
C14   H3    S    
C2    C8    S    
C3    C16   S    
C12   C16   S    
C9    O4    A    
