data_mof_unit_48624.cif
_audit_creation_date              2012-12-10T20:43:20-0500
_audit_creation_method            fapswitch 2.2
_symmetry_space_group_name_H-M    P1
_symmetry_Int_Tables_number       1
_space_group_crystal_system       triclinic
_cell_length_a                    15.807409
_cell_length_b                    10.709916
_cell_length_c                    9.941907
_cell_angle_alpha                 88.640934
_cell_angle_beta                  88.564212
_cell_angle_gamma                 91.84156
_cell_volume                      1681.22122832

loop_
_atom_site_label
_atom_site_type_symbol
_atom_type_description
_atom_site_fract_x
_atom_site_fract_y
_atom_site_fract_z
_atom_type_partial_charge
C1    C     C_R   0.499780 0.260383 0.501223 0.861873
C2    C     C_R   0.040032 0.509030 0.626119 0.473941
C3    C     C_1   0.824034 0.509363 0.495251 0.019171
C4    C     C_1   0.176325 0.506951 0.505261 0.056716
C5    C     C_1   0.251157 0.502876 0.504476 -0.114024
C6    C     C_1   0.749037 0.504726 0.495583 -0.124073
C7    C     C_R   0.472031 0.059320 0.614073 0.037962
C8    C     C_R   0.504150 0.128564 0.503121 -0.065641
C9    C     C_R   0.540121 0.069488 0.392401 -0.218305
C10   C     C_R   0.537469 0.940801 0.389038 -0.157957
C11   C     C_R   0.501024 0.871807 0.498032 -0.164583
C12   C     C_R   0.339535 0.499648 0.501464 0.867308
C13   C     C_R   0.470965 0.931107 0.611880 0.095471
C14   C     C_3   0.383450 0.919530 0.672872 0.277978
C15   C     C_3   0.384630 0.060764 0.675030 -0.559813
C16   C     C_R   0.433085 0.449438 0.075471 0.062302
C17   C     C_R   0.563170 0.564515 0.064622 0.417104
C18   C     C_R   0.559575 0.566882 0.919678 0.086231
C19   C     C_R   0.433580 0.448665 0.933762 0.201688
C20   C     C_3   0.400309 0.317082 0.932252 -0.176884
C21   C     C_3   0.399984 0.316948 0.086580 -0.155743
C22   C     C_R   0.499122 0.739576 0.498766 0.896175
C23   C     C_R   0.660474 0.500240 0.498615 0.909216
C24   C     C_R   0.952221 0.509487 0.621601 -0.251043
C25   C     C_R   0.912951 0.513993 0.497786 0.008922
C26   C     C_R   0.959491 0.519473 0.377001 -0.090453
C27   C     C_R   0.047120 0.518489 0.379032 0.041644
C28   C     C_R   0.087225 0.512291 0.503942 -0.056509
H1    H     H_    0.384131 0.098028 0.777526 0.226564
H2    H     H_    0.446806 0.253574 0.887353 0.159100
H3    H     H_    0.445854 0.251660 0.130514 0.172654
H4    H     H_    0.914187 0.504631 0.713929 0.203354
H5    H     H_    0.927752 0.522869 0.281579 0.204246
H6    H     H_    0.567263 0.122461 0.306721 0.175752
H7    H     H_    0.561605 0.896588 0.300225 0.230263
H8    H     H_    0.335925 0.878810 0.604319 0.096628
H9    H     H_    0.338306 0.103071 0.606505 0.191628
N1    N     N_R   0.499440 0.499140 0.142800 -0.174887
N2    N     N_R   0.499440 0.499180 0.857150 -0.126363
O1    O     O_R   0.500010 0.316790 0.614690 -0.616515
O2    O     O_R   0.500000 0.316760 0.385350 -0.643331
O3    O     O_R   0.378030 0.499990 0.614640 -0.555575
O4    O     O_R   0.378020 0.499950 0.385300 -0.638126
O5    O     O_R   0.500000 0.683240 0.614650 -0.566935
O6    O     O_R   0.499990 0.683210 0.385310 -0.560123
O7    O     O_R   0.621980 0.500050 0.614700 -0.624282
O8    O     O_R   0.621970 0.500010 0.385360 -0.517949
Zn1   Zn    Zn3+2 0.500010 0.500020 0.653130 1.027742
Zn2   Zn    Zn3+2 0.499990 0.499980 0.346870 1.026832
S1    S     S_3+6 0.088855 0.499082 0.784338 0.029413
O9    O     O_2   0.026088 0.522273 0.896389 -0.273048
O10   O     O_2   0.122593 0.370342 0.802239 -0.316279
O11   O     O_3   0.169384 0.605297 0.789243 -0.516576
H10   H     H_    0.195736 0.590129 0.877249 0.393954
S2    S     S_3+6 0.659348 0.628511 0.134227 0.034815
O12   O     O_2   0.715282 0.521227 0.165365 -0.303166
O13   O     O_2   0.708261 0.716287 0.038900 -0.328863
O14   O     O_3   0.643764 0.711106 0.272766 -0.550115
H11   H     H_    0.701193 0.734654 0.303194 0.368093
N3    N     N_3   0.618619 0.637385 0.834710 -0.351112
H12   H     H_    0.615639 0.732333 0.855419 0.257860
H13   H     H_    0.679277 0.602772 0.844198 0.231890
N4    N     N_3   0.316811 0.307848 0.871546 -0.379958
H14   H     H_    0.278847 0.380176 0.903612 0.250036
H15   H     H_    0.287118 0.223368 0.903741 0.247397
N5    N     N_3   0.315597 0.304502 0.151357 -0.412363
H16   H     H_    0.323692 0.291664 0.254738 0.210279
H17   H     H_    0.282697 0.387113 0.139130 0.202759
N6    N     N_3   0.094048 0.522197 0.253584 -0.387746
H18   H     H_    0.129919 0.442015 0.248670 0.198696
H19   H     H_    0.135614 0.600186 0.252025 0.210289
S3    S     S_3+6 0.380850 0.847328 0.837521 0.045114
O15   O     O_2   0.308495 0.896223 0.919562 -0.274272
O16   O     O_2   0.367777 0.708691 0.824948 -0.257072
O17   O     O_3   0.472249 0.876624 0.915827 -0.548204
H20   H     H_    0.471741 0.966539 0.936844 0.348830

loop_
_geom_bond_atom_site_label_1
_geom_bond_atom_site_label_2
_ccdc_geom_bond_type
N5    H17   S    
S2    O12   D    
N4    H15   S    
C16   C21   S    
C21   N5    S    
C1    C8    S    
C19   C20   S    
O17   H20   S    
C3    C6    T    
C7    C8    A    
O8    Zn2   S    
N1    Zn2   S    
C20   H2    S    
O11   H10   S    
C21   H3    S    
C26   C27   A    
C12   O4    A    
C14   H8    S    
N3    H13   S    
N6    H19   S    
C15   H9    S    
C12   O3    A    
C2    S1    S    
C1    O1    A    
C22   O5    A    
C8    C9    A    
S1    O10   D    
C10   H7    S    
C9    C10   A    
C17   S2    S    
C27   N6    S    
S3    O15   D    
C7    C15   S    
N5    H16   S    
C23   O7    A    
C13   C14   S    
S3    O17   S    
O2    Zn2   S    
C4    C28   S    
C15   H1    S    
O7    Zn1   S    
S1    O11   S    
C23   O8    A    
C3    C25   S    
C24   C25   A    
C5    C12   S    
S3    O16   D    
O4    Zn2   S    
S1    O9    D    
O14   H11   S    
N3    H12   S    
C18   N2    A    
C24   H4    S    
C26   H5    S    
O6    Zn2   S    
C17   C18   A    
O3    Zn1   S    
C19   N2    A    
C18   N3    S    
S2    O13   D    
C2    C24   A    
C9    H6    S    
C1    O2    A    
O1    Zn1   S    
C14   S3    S    
C4    C5    T    
C11   C22   S    
C20   N4    S    
C25   C26   A    
C11   C13   A    
C16   C19   A    
C6    C23   S    
C17   N1    A    
N6    H18   S    
C10   C11   A    
N4    H14   S    
C7    C13   A    
C22   O6    A    
C20   C21   S    
S2    O14   S    
C27   C28   A    
C14   C15   S    
C2    C28   A    
O5    Zn1   S    
C16   N1    A    
N2    Zn1   S    
