data_mof_unit_29726.cif
_audit_creation_date              2012-12-11T14:56:47-0500
_audit_creation_method            fapswitch 2.2
_symmetry_space_group_name_H-M    P1
_symmetry_Int_Tables_number       1
_space_group_crystal_system       triclinic
_cell_length_a                    10.582692
_cell_length_b                    10.701876
_cell_length_c                    17.137971
_cell_angle_alpha                 80.382773
_cell_angle_beta                  89.754903
_cell_angle_gamma                 119.323282
_cell_volume                      1660.0883257

loop_
_atom_site_label
_atom_site_type_symbol
_atom_type_description
_atom_site_fract_x
_atom_site_fract_y
_atom_site_fract_z
_atom_type_partial_charge
C1    C     C_R   0.222713 0.854328 0.128699 0.548869
C2    C     C_1   0.652345 0.346968 0.707777 -0.031814
C3    C     C_R   0.625602 0.713741 0.804682 -0.132755
C4    C     C_R   0.636018 0.279266 0.086542 0.544681
C5    C     C_R   0.614001 0.697858 0.726614 -0.125931
C6    C     C_R   0.670623 0.821657 0.665524 0.040097
C7    C     C_R   0.746378 0.961832 0.682749 -0.118479
C8    C     C_R   0.755101 0.977975 0.761446 -0.122313
C9    C     C_R   0.689037 0.853480 0.822477 0.028303
C10   C     C_R   0.263920 0.967519 0.757979 -0.087503
C11   C     C_R   0.248703 0.954260 0.679404 0.213334
C12   C     C_R   0.797850 0.419856 0.263560 -0.130584
C13   C     C_R   0.160117 0.815595 0.661624 0.041320
C14   C     C_R   0.100975 0.690159 0.722484 -0.168578
C15   C     C_R   0.119447 0.704179 0.801195 -0.152995
C16   C     C_R   0.640313 0.858460 0.125401 0.551124
C17   C     C_R   0.195064 0.843448 0.818928 -0.000775
C18   C     C_R   0.686743 0.809744 0.357164 0.548733
C19   C     C_R   0.689776 0.396956 0.394449 0.566522
C20   C     C_R   0.103533 0.810237 0.359146 0.552390
C21   C     C_R   0.678013 0.799669 0.585657 0.541519
C22   C     C_R   0.679621 0.383910 0.624720 0.600720
C23   C     C_R   0.787744 0.406139 0.185203 -0.135525
C24   C     C_R   0.100609 0.802217 0.585668 0.580882
C25   C     C_R   0.224830 0.864043 0.899008 0.544276
C26   C     C_R   0.637549 0.284814 0.861037 0.538634
C27   C     C_R   0.646959 0.867134 0.899294 0.544962
C28   C     C_R   0.525212 0.302370 0.206092 -0.127007
C29   C     C_R   0.535754 0.318172 0.284862 -0.130337
C30   C     C_R   0.671451 0.370689 0.314461 0.030663
C31   C     C_R   0.650865 0.340078 0.157299 0.026880
C32   C     C_1   0.668811 0.848627 0.205432 -0.025768
C33   C     C_1   0.680481 0.839074 0.274794 -0.027745
C34   C     C_1   0.180427 0.825678 0.211206 -0.045275
C35   C     C_1   0.151037 0.819729 0.279739 -0.043259
C36   C     C_1   0.644764 0.324647 0.778305 -0.059143
Cl1   Cl    Cl    0.339325 0.113754 0.605366 -0.603911
Cr1   Cr    Cr6+3 0.402240 0.783890 0.019450 1.031737
Cr2   Cr    Cr6+3 0.382360 0.097900 0.991800 1.025329
Cr3   Cr    Cr6+3 0.715380 0.118170 0.988700 1.027386
Cr4   Cr    Cr6+3 0.936650 0.882420 0.465510 1.063934
Cr5   Cr    Cr6+3 0.605770 0.565620 0.493360 1.080370
Cr6   Cr    Cr6+3 0.921340 0.550490 0.496380 1.033853
H1    H     H_    0.418072 0.251521 0.185245 0.146189
H2    H     H_    0.803878 0.087061 0.774258 0.145449
H3    H     H_    0.331354 0.075216 0.771416 0.161345
H4    H     H_    0.032431 0.582047 0.709908 0.150225
H5    H     H_    0.071503 0.607710 0.848024 0.136995
H6    H     H_    0.438560 0.285792 0.322964 0.145144
H7    H     H_    0.905277 0.469103 0.284223 0.144478
H8    H     H_    0.885919 0.438343 0.147995 0.136738
H9    H     H_    0.575529 0.616750 0.851223 0.132830
H10   H     H_    0.562805 0.588445 0.714061 0.142133
H11   H     H_    0.796296 0.057743 0.635572 0.140054
O1    O     O_R   0.521780 0.757110 0.108900 -0.508608
O2    O     O_R   0.805020 0.410040 0.421340 -0.520407
O3    O     O_R   0.049240 0.685450 0.403290 -0.504124
O4    O     O_R   0.275160 0.783810 0.101120 -0.497655
O5    O     O_R   0.077520 0.903010 0.551800 -0.452313
O6    O     O_R   0.802980 0.872780 0.546830 -0.501075
O7    O     O_R   0.578090 0.681300 0.569920 -0.514507
O8    O     O_R   0.608530 0.436370 0.586530 -0.456333
O9    O     O_R   0.798770 0.401880 0.597100 -0.523432
O10   O     O_R   0.043450 0.677890 0.566230 -0.521339
O11   O     O_3   0.821250 0.666180 0.485090 -0.283048
O12   O     O_R   0.513330 0.228330 0.898660 -0.504092
O13   O     O_R   0.237900 0.972600 0.090980 -0.510821
O14   O     O_R   0.511190 0.220540 0.061620 -0.509328
O15   O     O_R   0.736920 0.257720 0.063840 -0.517229
O16   O     O_R   0.710450 0.984050 0.081720 -0.494982
O17   O     O_R   0.524090 0.765520 0.933110 -0.515390
O18   O     O_R   0.277300 0.791600 0.938160 -0.496306
O19   O     O_R   0.240210 0.981010 0.915190 -0.519083
O20   O     O_R   0.739230 0.266130 0.888050 -0.518146
O21   O     O_R   0.712580 0.991850 0.918770 -0.505978
O22   O     O_3   0.499990 0.999980 0.999980 -0.256584
O23   O     O_R   0.083770 0.911170 0.376030 -0.501444
O24   O     O_R   0.808770 0.880340 0.383890 -0.498577
O25   O     O_R   0.584340 0.689460 0.394160 -0.506248
O26   O     O_R   0.614320 0.443940 0.423590 -0.481352

loop_
_geom_bond_atom_site_label_1
_geom_bond_atom_site_label_2
_ccdc_geom_bond_type
C19   O2    A    
Cr5   O26   S    
Cr2   O14   S    
Cr6   O9    S    
C7    C8    A    
C29   H6    S    
C12   C23   A    
Cr3   O16   S    
C20   O23   A    
C5    H10   S    
C28   C29   A    
Cr4   O23   S    
C5    C6    A    
C10   C17   A    
C1    C34   S    
C34   C35   T    
C11   Cl1   S    
C8    H2    S    
C26   O20   A    
C22   O9    A    
Cr1   O4    S    
C20   C35   S    
Cr1   O1    S    
C18   O25   A    
C10   H3    S    
Cr5   O11   S    
Cr5   O8    S    
C21   O7    A    
C18   O24   A    
Cr5   O25   S    
C24   O10   A    
C13   C14   A    
Cr1   O22   S    
C15   H5    S    
C27   O21   A    
C4    O15   A    
Cr6   O10   S    
Cr1   O18   S    
Cr3   O15   S    
C26   O12   A    
C16   O16   A    
Cr4   O5    S    
C21   O6    A    
Cr4   O24   S    
C4    O14   A    
C8    C9    A    
Cr4   O11   S    
C6    C21   S    
C28   H1    S    
Cr3   O22   S    
C13   C24   S    
C23   C31   A    
C2    C22   S    
C29   C30   A    
C3    C9    A    
C22   O8    A    
C23   H8    S    
Cr6   O11   S    
C25   O18   A    
Cr2   O22   S    
Cr5   O7    S    
C6    C7    A    
C26   C36   S    
Cr2   O12   S    
C27   O17   A    
C9    C27   S    
C2    C36   T    
C15   C17   A    
Cr1   O17   S    
C12   C30   A    
Cr2   O13   S    
C28   C31   A    
Cr4   O6    S    
C3    C5    A    
C12   H7    S    
C3    H9    S    
C14   H4    S    
C16   C32   S    
Cr3   O21   S    
C17   C25   S    
C32   C33   T    
C16   O1    A    
C1    O4    A    
C11   C13   A    
C24   O5    A    
C1    O13   A    
Cr3   O20   S    
C25   O19   A    
Cr2   O19   S    
C19   O26   A    
C18   C33   S    
C4    C31   S    
C10   C11   A    
Cr6   O3    S    
Cr6   O2    S    
C14   C15   A    
C7    H11   S    
C20   O3    A    
C19   C30   S    
