data_mof_unit_30987.cif
_audit_creation_date              2012-10-26T18:27:34-0400
_audit_creation_method            fapswitch 2.2
_symmetry_space_group_name_H-M    P1
_symmetry_Int_Tables_number       1
_space_group_crystal_system       triclinic
_cell_length_a                    10.769021
_cell_length_b                    11.034729
_cell_length_c                    9.83494
_cell_angle_alpha                 111.027064
_cell_angle_beta                  98.138912
_cell_angle_gamma                 91.003116
_cell_volume                      1076.95161593

loop_
_atom_site_label
_atom_site_type_symbol
_atom_type_description
_atom_site_fract_x
_atom_site_fract_y
_atom_site_fract_z
_atom_type_partial_charge
C1    C     C_R   0.490743 0.254191 0.440762 0.555392
C2    C     C_2   0.497006 0.930452 0.483485 -0.156573
C3    C     C_2   0.510723 0.510482 0.081217 -0.018023
C4    C     C_R   0.262729 0.500549 0.501286 0.537003
C5    C     C_2   0.488937 0.489882 0.918890 -0.019901
C6    C     C_R   0.509074 0.745806 0.559256 0.541536
C7    C     C_R   0.737252 0.502858 0.499452 0.533831
C8    C     C_R   0.156428 0.737325 0.669058 -0.122072
C9    C     C_R   0.104521 0.851157 0.748349 -0.112648
C10   C     C_R   0.974655 0.853064 0.746564 0.108698
C11   C     C_R   0.896876 0.740395 0.664856 -0.046170
C12   C     C_R   0.079211 0.621835 0.586942 -0.002663
C13   C     C_R   0.947901 0.623687 0.584706 -0.016545
C14   C     C_R   0.129147 0.505229 0.503958 0.016104
C15   C     C_R   0.049747 0.393047 0.417679 0.069812
C16   C     C_R   0.921359 0.396549 0.415682 -0.089012
C17   C     C_R   0.870787 0.509344 0.499127 -0.029257
C18   C     C_2   0.485422 0.114916 0.407459 -0.130441
C19   C     C_2   0.501778 0.069555 0.516692 -0.158481
C20   C     C_2   0.513951 0.885069 0.592661 -0.129494
Cu1   Cu    Cu3+1 0.521920 0.521810 0.644910 0.933885
Cu2   Cu    Cu3+1 0.478080 0.478190 0.355090 0.931549
H1    H     H_    0.468163 0.048954 0.292803 0.105147
H2    H     H_    0.257143 0.741547 0.671895 0.139449
H3    H     H_    0.165394 0.938436 0.810541 0.109256
H4    H     H_    0.960627 0.999073 0.937581 0.240484
H5    H     H_    0.945475 0.042075 0.787975 0.233990
H6    H     H_    0.860588 0.309486 0.351079 0.146154
H7    H     H_    0.479552 0.864808 0.368628 0.158805
H8    H     H_    0.519026 0.135206 0.631552 0.158852
H9    H     H_    0.415209 0.418264 0.846299 0.147292
H10   H     H_    0.624919 0.621229 0.933898 0.207530
H11   H     H_    0.376074 0.377655 0.065824 0.200536
H12   H     H_    0.796519 0.745936 0.663396 0.148892
H13   H     H_    0.531425 0.950985 0.707330 0.111103
H14   H     H_    0.164062 0.246414 0.404719 0.231898
H15   H     H_    0.141957 0.287414 0.252605 0.251022
H16   H     H_    0.583994 0.582607 0.153938 0.149676
N1    N     N_2   0.445130 0.445430 0.137370 -0.350991
N2    N     N_2   0.554930 0.554500 0.862630 -0.349762
N3    N     N_3   0.097662 0.273043 0.334075 -0.636143
N4    N     N_3   0.920386 0.969676 0.826490 -0.635781
O1    O     O_R   0.511700 0.332330 0.577400 -0.493880
O2    O     O_R   0.474680 0.295500 0.332650 -0.492445
O3    O     O_R   0.338160 0.518420 0.622400 -0.503913
O4    O     O_R   0.301140 0.481590 0.377650 -0.494619
O5    O     O_R   0.525320 0.704500 0.667350 -0.499979
O6    O     O_R   0.488300 0.667670 0.422600 -0.494913
O7    O     O_R   0.698860 0.518410 0.622350 -0.489383
O8    O     O_R   0.661840 0.481580 0.377600 -0.494811

loop_
_geom_bond_atom_site_label_1
_geom_bond_atom_site_label_2
_ccdc_geom_bond_type
C16   H6    S    
Cu2   O6    S    
C10   N4    S    
C6    C20   S    
C9    C10   A    
C1    O2    A    
C13   C17   A    
C8    C12   A    
Cu1   O7    S    
H14   N3    S    
C3    N1    D    
C4    O4    A    
Cu1   Cu2   S    
C4    C14   S    
C11   C13   A    
H5    N4    S    
C15   N3    S    
C1    C18   S    
H11   N1    S    
Cu1   N2    S    
C6    O6    A    
C2    H7    S    
Cu2   N1    S    
C8    H2    S    
C12   C14   A    
Cu1   O3    S    
C4    O3    A    
H10   N2    S    
H4    N4    S    
H15   N3    S    
Cu1   O5    S    
C6    O5    A    
C9    H3    S    
C15   C16   A    
Cu2   O8    S    
C12   C13   A    
C7    O7    A    
C1    O1    A    
C18   C19   D    
C10   C11   A    
C5    N2    D    
C7    O8    A    
C14   C15   A    
C8    C9    A    
C5    H9    S    
Cu2   O4    S    
C2    C19   S    
Cu1   O1    S    
C19   H8    S    
C2    C20   D    
C20   H13   S    
C11   H12   S    
Cu2   O2    S    
C18   H1    S    
C3    H16   S    
C16   C17   A    
C3    C5    S    
C7    C17   S    
