data_mof_unit_29260.cif
_audit_creation_date              2012-12-10T16:48:48-0500
_audit_creation_method            fapswitch 2.2
_symmetry_space_group_name_H-M    P1
_symmetry_Int_Tables_number       1
_space_group_crystal_system       triclinic
_cell_length_a                    17.280622
_cell_length_b                    8.670272
_cell_length_c                    7.442213
_cell_angle_alpha                 103.074321
_cell_angle_beta                  90.198551
_cell_angle_gamma                 92.828013
_cell_volume                      1084.69929656

loop_
_atom_site_label
_atom_site_type_symbol
_atom_type_description
_atom_site_fract_x
_atom_site_fract_y
_atom_site_fract_z
_atom_type_partial_charge
C1    C     C_R   0.497272 0.199685 0.453664 0.961004
C2    C     C_R   0.502201 0.800305 0.546535 0.914490
C3    C     C_2   0.496206 0.031670 0.427563 -0.350047
C4    C     C_2   0.503102 0.968284 0.572825 -0.278891
C5    C     C_R   0.351583 0.505825 0.526662 0.841739
C6    C     C_R   0.648637 0.498409 0.473917 0.869105
C7    C     C_R   0.267468 0.508573 0.540262 -0.151681
C8    C     C_R   0.732961 0.500806 0.459921 -0.154103
C9    C     C_R   0.223029 0.376157 0.436420 -0.098026
C10   C     C_R   0.777401 0.625816 0.577734 -0.212802
C11   C     C_R   0.144101 0.391314 0.398363 -0.043253
C12   C     C_R   0.858270 0.615428 0.593469 -0.048525
C13   C     C_R   0.110479 0.537560 0.470079 0.049741
C14   C     C_R   0.893010 0.480708 0.489073 0.071523
C15   C     C_R   0.154403 0.665553 0.575308 -0.135191
C16   C     C_R   0.849480 0.363360 0.365956 -0.139129
C17   C     C_R   0.232592 0.653616 0.613425 -0.058833
C18   C     C_R   0.769651 0.371326 0.348840 -0.054350
C19   C     C_2   0.027578 0.558630 0.451110 -0.130695
C20   C     C_2   0.975669 0.458393 0.501947 -0.110366
Cu1   Cu    Cu3+1 0.508700 0.517250 0.683000 1.038472
Cu2   Cu    Cu3+1 0.491300 0.482750 0.317000 1.012444
H1    H     H_    0.993587 0.354438 0.546583 0.179000
H2    H     H_    0.009127 0.664441 0.411236 0.168045
H3    H     H_    0.126503 0.775249 0.631120 0.199506
H4    H     H_    0.878153 0.262349 0.285516 0.190062
H5    H     H_    0.489731 0.959882 0.287652 0.179285
H6    H     H_    0.509498 0.040066 0.712756 0.183007
H7    H     H_    0.439226 0.379023 0.958063 0.237976
H8    H     H_    0.560790 0.620955 0.041914 0.236365
N1    N     N_2   0.478180 0.456750 0.041980 -0.208334
N2    N     N_2   0.521820 0.543250 0.958020 -0.206774
O1    O     O_R   0.505650 0.286040 0.618880 -0.585636
O2    O     O_R   0.494350 0.713960 0.381120 -0.598651
O3    O     O_R   0.490960 0.256910 0.309800 -0.574856
O4    O     O_R   0.509040 0.743090 0.690200 -0.559725
O5    O     O_R   0.394600 0.516230 0.672450 -0.539895
O6    O     O_R   0.605400 0.483770 0.327550 -0.577170
O7    O     O_R   0.379910 0.487100 0.363380 -0.591148
O8    O     O_R   0.620090 0.512900 0.636620 -0.581800
C21   C     C_2   0.260991 0.224742 0.361254 0.916038
O9    O     O_2   0.252008 0.157115 0.198960 -0.568688
O10   O     O_R   0.308118 0.161533 0.476573 -0.762306
H9    H     H_    0.329378 0.057034 0.411141 0.334320
C22   C     C_2   0.738414 0.765156 0.688359 0.957483
O11   O     O_2   0.699696 0.844797 0.609915 -0.541850
O12   O     O_R   0.744269 0.805298 0.880925 -0.686411
H10   H     H_    0.773433 0.726159 0.932819 0.299175
C23   C     C_2   0.726931 0.237399 0.221422 0.887025
O13   O     O_2   0.754574 0.178721 0.071909 -0.516527
O14   O     O_R   0.657157 0.173603 0.274014 -0.754426
H11   H     H_    0.634706 0.081341 0.175701 0.345968
C24   C     C_2   0.275680 0.797781 0.723006 0.837159
O15   O     O_2   0.332823 0.786572 0.815369 -0.573183
O16   O     O_R   0.248800 0.947845 0.725584 -0.712354
H12   H     H_    0.282313 0.036585 0.805589 0.374332
C25   C     C_2   0.906138 0.742623 0.719931 0.822981
O17   O     O_2   0.897613 0.881931 0.720482 -0.537000
O18   O     O_R   0.961116 0.702697 0.837806 -0.740016
H13   H     H_    0.990300 0.799186 0.915840 0.343171
C26   C     C_2   0.097410 0.256429 0.281400 0.875406
O19   O     O_2   0.057939 0.277832 0.153331 -0.553715
O20   O     O_R   0.098040 0.105686 0.319313 -0.728983
H14   H     H_    0.063845 0.024229 0.230737 0.340518

loop_
_geom_bond_atom_site_label_1
_geom_bond_atom_site_label_2
_ccdc_geom_bond_type
C22   O11   D    
C2    C4    S    
O10   H9    S    
C6    O6    A    
C5    O5    A    
C11   C13   A    
C21   O9    D    
C9    C21   S    
C19   C20   D    
C20   H1    S    
O16   H12   S    
N1    N2    D    
C2    O2    A    
C10   C22   S    
C3    H5    S    
C19   H2    S    
C1    O1    A    
O18   H13   S    
H7    N1    S    
Cu1   O4    S    
C26   O20   S    
Cu1   Cu2   S    
H8    N2    S    
Cu2   O3    S    
C21   O10   S    
C9    C11   A    
C25   O17   D    
Cu1   O8    S    
C10   C12   A    
Cu2   O7    S    
C8    C10   A    
C4    H6    S    
C12   C14   A    
C7    C9    A    
C24   O16   S    
C13   C15   A    
C16   H4    S    
C26   O19   D    
Cu2   O2    S    
Cu1   N2    S    
C14   C16   A    
C25   O18   S    
Cu1   O1    S    
Cu2   N1    S    
C12   C25   S    
O14   H11   S    
Cu2   O6    S    
O12   H10   S    
C17   C24   S    
C6    O8    A    
Cu1   O5    S    
C1    O3    A    
C14   C20   S    
C15   C17   A    
C23   O13   D    
C22   O12   S    
C2    O4    A    
C1    C3    S    
C5    C7    S    
C5    O7    A    
C13   C19   S    
C6    C8    S    
C15   H3    S    
C23   O14   S    
C24   O15   D    
C16   C18   A    
C8    C18   A    
C3    C4    D    
C18   C23   S    
O20   H14   S    
C11   C26   S    
C7    C17   A    
