data_mof_unit_30329.cif
_audit_creation_date              2012-12-10T18:22:29-0500
_audit_creation_method            fapswitch 2.2
_symmetry_space_group_name_H-M    P1
_symmetry_Int_Tables_number       1
_space_group_crystal_system       triclinic
_cell_length_a                    23.564001
_cell_length_b                    10.837578
_cell_length_c                    9.486184
_cell_angle_alpha                 91.933814
_cell_angle_beta                  91.35378
_cell_angle_gamma                 89.298192
_cell_volume                      2420.33586121

loop_
_atom_site_label
_atom_site_type_symbol
_atom_type_description
_atom_site_fract_x
_atom_site_fract_y
_atom_site_fract_z
_atom_type_partial_charge
C1    C     C_R   0.500554 0.259684 0.497713 0.845962
C2    C     C_R   0.499371 0.740154 0.502104 0.858705
C3    C     C_R   0.237571 0.584964 0.419012 0.427129
C4    C     C_R   0.761653 0.424360 0.414436 0.423998
C5    C     C_R   0.296890 0.595267 0.431377 0.012184
C6    C     C_R   0.702024 0.414170 0.418745 -0.018156
C7    C     C_R   0.328716 0.502061 0.499854 -0.341842
C8    C     C_R   0.671331 0.497829 0.507144 -0.275587
C9    C     C_R   0.299938 0.414897 0.580014 0.346852
C10   C     C_R   0.701156 0.573713 0.608118 0.340611
C11   C     C_R   0.241100 0.423019 0.592280 0.424192
C12   C     C_R   0.759966 0.560934 0.624158 0.391983
C13   C     C_R   0.209019 0.503118 0.505515 0.014254
C14   C     C_R   0.790904 0.491397 0.522215 0.084319
C15   C     C_3   0.535405 0.044842 0.598160 0.296294
C16   C     C_3   0.464688 0.954383 0.400517 0.310125
C17   C     C_3   0.551756 0.953980 0.477612 0.306141
C18   C     C_3   0.448221 0.045014 0.520760 0.313442
C19   C     C_3   0.499120 0.876438 0.505948 -0.252119
C20   C     C_3   0.500815 0.123065 0.492905 -0.264209
C21   C     C_3   0.482449 0.968241 0.627884 0.032071
C22   C     C_3   0.517519 0.031168 0.370682 0.032709
C23   C     C_R   0.391293 0.501424 0.499293 0.800793
C24   C     C_R   0.608722 0.499240 0.501731 0.841105
C25   C     C_3   0.540868 0.563461 0.054222 0.511943
C26   C     C_3   0.459495 0.435978 0.945529 0.514274
C27   C     C_3   0.494849 0.611692 0.952691 -0.213372
C28   C     C_3   0.505586 0.387919 0.047079 -0.225238
C29   C     C_3   0.546873 0.453321 0.951708 0.127662
C30   C     C_3   0.453384 0.546262 0.047064 0.142142
C31   C     C_R   0.879819 0.602047 0.523738 0.549230
C32   C     C_R   0.119341 0.396597 0.481450 0.537720
C33   C     C_R   0.882040 0.383014 0.529395 0.625368
C34   C     C_R   0.118942 0.609946 0.545887 0.560731
C35   C     C_R   0.941824 0.381375 0.517157 -0.074062
C36   C     C_R   0.058684 0.613257 0.541430 -0.063021
C37   C     C_R   0.970267 0.495712 0.531546 -0.078743
C38   C     C_R   0.030025 0.499643 0.528037 -0.074269
C39   C     C_R   0.938887 0.606361 0.547791 -0.093161
C40   C     C_R   0.061286 0.389520 0.510147 -0.081792
C41   C     C_R   0.974382 0.270655 0.498353 0.153823
C42   C     C_R   0.026313 0.724238 0.554945 0.160960
C43   C     C_R   0.033939 0.275871 0.520512 0.135137
C44   C     C_R   0.967440 0.717771 0.581384 0.136394
Cu1   Cu    Cu3+1 0.500010 0.499990 0.643150 0.976739
Cu2   Cu    Cu3+1 0.499990 0.500010 0.356850 0.975348
H1    H     H_    0.490622 0.704738 0.910035 0.134565
H2    H     H_    0.509925 0.294842 0.089712 0.134231
N1    N     N_R   0.852253 0.492046 0.524777 -0.430924
N2    N     N_R   0.147731 0.503819 0.508953 -0.455227
N3    N     N_3   0.500040 0.499970 0.858290 -0.207650
N4    N     N_3   0.499960 0.500030 0.141710 -0.206879
O1    O     O_R   0.500030 0.316850 0.620870 -0.524406
O2    O     O_R   0.499970 0.683150 0.379130 -0.517080
O3    O     O_R   0.500000 0.316860 0.379090 -0.617301
O4    O     O_R   0.500000 0.683140 0.620910 -0.619476
O5    O     O_R   0.417890 0.499960 0.620920 -0.524765
O6    O     O_R   0.582110 0.500040 0.379080 -0.522990
O7    O     O_R   0.417870 0.499970 0.379140 -0.609402
O8    O     O_R   0.582130 0.500030 0.620860 -0.616827
O9    O     O_2   0.850280 0.705906 0.494397 -0.513821
O10   O     O_2   0.147101 0.297963 0.424500 -0.522161
O11   O     O_2   0.853763 0.278033 0.549606 -0.527717
O12   O     O_2   0.148775 0.709728 0.589997 -0.531363
C45   C     C_3   0.948445 0.150593 0.440412 -0.381557
C46   C     C_3   0.922409 0.164757 0.292567 -0.725593
H3    H     H_    0.886834 0.232325 0.292569 0.303935
H4    H     H_    0.955198 0.195594 0.219622 0.233421
H5    H     H_    0.905936 0.074343 0.252350 0.244713
H6    H     H_    0.981224 0.078104 0.427513 0.190130
H7    H     H_    0.917397 0.113515 0.513331 0.245796
C47   C     C_3   0.051083 0.847511 0.519384 -0.385037
C48   C     C_3   0.067702 0.848574 0.364280 -0.768286
H8    H     H_    0.101103 0.778788 0.340668 0.276871
H9    H     H_    0.029992 0.829099 0.294925 0.241150
H10   H     H_    0.084343 0.940151 0.338543 0.245094
H11   H     H_    0.019366 0.921071 0.533923 0.189599
H12   H     H_    0.086732 0.874876 0.591144 0.258198
O13   O     O_3   0.584935 0.632421 0.117203 -0.689459
H13   H     H_    0.604800 0.669206 0.038111 0.314966
O14   O     O_3   0.415666 0.366359 0.882714 -0.681620
H14   H     H_    0.395592 0.330278 0.961908 0.311054
C49   C     C_3   0.602280 0.400227 0.893106 -0.323632
C50   C     C_3   0.639135 0.340818 0.006100 -0.866660
H15   H     H_    0.651342 0.411411 0.088343 0.277785
H16   H     H_    0.616196 0.264236 0.053545 0.247172
H17   H     H_    0.678434 0.302615 0.958249 0.259751
H18   H     H_    0.592420 0.329995 0.808547 0.260893
H19   H     H_    0.626922 0.476039 0.849718 0.244287
C51   C     C_3   0.397686 0.603054 0.097144 -0.390824
C52   C     C_3   0.361911 0.652613 0.974662 -0.797679
H20   H     H_    0.384372 0.728180 0.924082 0.241981
H21   H     H_    0.352605 0.577992 0.894668 0.293989
H22   H     H_    0.321024 0.689909 0.014432 0.250409
H23   H     H_    0.372743 0.532157 0.149092 0.224175
H24   H     H_    0.407926 0.680436 0.172040 0.252464
C53   C     C_3   0.066441 0.168592 0.584740 -0.365814
C54   C     C_3   0.039582 0.128769 0.720897 -0.884106
H25   H     H_    0.036591 0.208669 0.796988 0.270192
H26   H     H_    0.996503 0.091484 0.700408 0.257066
H27   H     H_    0.066551 0.056426 0.769724 0.256399
H28   H     H_    0.070413 0.092120 0.506517 0.209780
H29   H     H_    0.110409 0.193883 0.616900 0.265407
C55   C     C_3   0.937758 0.821402 0.666003 -0.356530
C56   C     C_3   0.967966 0.846966 0.808348 -0.866463
H30   H     H_    0.966865 0.763566 0.873167 0.264439
H31   H     H_    0.012835 0.872483 0.795226 0.257125
H32   H     H_    0.946101 0.924076 0.865853 0.259194
H33   H     H_    0.933756 0.906537 0.605028 0.197807
H34   H     H_    0.894085 0.796601 0.693798 0.265370
O15   O     O_3   0.208691 0.659098 0.325068 -0.711895
H35   H     H_    0.171834 0.620613 0.299295 0.328450
O16   O     O_3   0.792739 0.366916 0.309187 -0.709638
H36   H     H_    0.769443 0.366397 0.220857 0.320918
C57   C     C_3   0.323979 0.712081 0.381758 -0.340357
C58   C     C_3   0.306397 0.824163 0.473466 -0.650189
H37   H     H_    0.259607 0.837393 0.471406 0.290203
H38   H     H_    0.321484 0.812606 0.584171 0.235421
H39   H     H_    0.325622 0.908481 0.433026 0.270795
H40   H     H_    0.370812 0.707331 0.388180 0.214991
H41   H     H_    0.311242 0.727436 0.270310 0.239292
C59   C     C_3   0.673820 0.299007 0.354757 -0.434692
C60   C     C_3   0.663964 0.206501 0.468960 -0.709196
H42   H     H_    0.704720 0.182310 0.523085 0.278317
H43   H     H_    0.633954 0.245118 0.547787 0.255346
H44   H     H_    0.645749 0.121298 0.419896 0.277549
H45   H     H_    0.632776 0.320638 0.302229 0.223336
H46   H     H_    0.699951 0.251534 0.273463 0.229303
O17   O     O_3   0.327605 0.323418 0.654011 -0.613631
H47   H     H_    0.365855 0.309009 0.616224 0.359749
O18   O     O_3   0.674444 0.658033 0.697588 -0.680059
H48   H     H_    0.637991 0.684325 0.653781 0.313517
O19   O     O_3   0.216332 0.348846 0.688688 -0.648023
H49   H     H_    0.179256 0.385313 0.715551 0.317986
O20   O     O_3   0.785942 0.621656 0.738214 -0.647769
H50   H     H_    0.823484 0.582790 0.756951 0.313790
O21   O     O_3   0.606201 0.905109 0.456544 -0.710715
H51   H     H_    0.619663 0.877360 0.550030 0.325272
O22   O     O_3   0.393158 0.090578 0.539792 -0.711586
H52   H     H_    0.382583 0.131487 0.450878 0.308579
O23   O     O_3   0.573308 0.093104 0.700817 -0.738518
H53   H     H_    0.587869 0.021124 0.752896 0.322348
O24   O     O_3   0.426931 0.905973 0.297687 -0.751434
H54   H     H_    0.411423 0.978122 0.247469 0.315567
C61   C     C_3   0.463966 0.935635 0.774844 -0.357227
C62   C     C_3   0.445711 0.049411 0.862349 -0.712121
H55   H     H_    0.480832 0.116737 0.873095 0.271069
H56   H     H_    0.408048 0.094504 0.813052 0.312659
H57   H     H_    0.434219 0.021109 0.969270 0.211550
H58   H     H_    0.428310 0.869718 0.764939 0.207963
H59   H     H_    0.500577 0.891500 0.829264 0.181235
C63   C     C_3   0.535089 0.064259 0.222992 -0.368075
C64   C     C_3   0.553998 0.951144 0.135330 -0.710018
H60   H     H_    0.592423 0.908169 0.183502 0.304896
H61   H     H_    0.519570 0.882057 0.126148 0.273394
H62   H     H_    0.564535 0.979671 0.027840 0.213166
H63   H     H_    0.497877 0.106854 0.169309 0.183352
H64   H     H_    0.570056 0.131873 0.231171 0.202199

loop_
_geom_bond_atom_site_label_1
_geom_bond_atom_site_label_2
_ccdc_geom_bond_type
C46   H4    S    
Cu1   O8    S    
C57   H41   S    
Cu2   O7    S    
C18   C21   S    
C41   C43   A    
C48   H8    S    
C31   O9    S    
C56   H30   S    
C36   C42   A    
O15   H35   S    
C50   H17   S    
C30   C51   S    
C53   C54   S    
C44   C55   S    
C60   H42   S    
Cu1   Cu2   S    
C23   O7    A    
C56   H31   S    
Cu1   O5    S    
C47   H11   S    
C28   C29   S    
C35   C37   A    
C50   H16   S    
C29   C49   S    
C11   O19   S    
C55   H33   S    
C60   H43   S    
C46   H5    S    
Cu1   N3    S    
C33   N1    A    
C57   C58   S    
Cu2   N4    S    
C58   H37   S    
C7    C9    A    
C59   H45   S    
C1    O1    A    
C10   O18   S    
C47   H12   S    
C33   C35   A    
C15   O23   S    
C40   C43   A    
Cu1   O4    S    
C3    O15   S    
C12   O20   S    
Cu2   O3    S    
C64   H61   S    
C18   C20   S    
C53   H28   S    
C3    C13   A    
C24   O8    A    
C46   H3    S    
Cu1   O1    S    
C38   C40   A    
C5    C57   S    
C27   C30   S    
C4    C14   A    
C48   H9    S    
C42   C44   A    
C31   N1    A    
C42   C47   S    
C55   C56   S    
C27   N3    S    
C61   C62   S    
C62   H56   S    
C59   C60   S    
C25   C29   S    
C15   C20   S    
C49   H19   S    
C56   H32   S    
C22   C63   S    
C53   H29   S    
C34   N2    A    
C62   H55   S    
C24   O6    A    
C43   C53   S    
C4    O16   S    
O20   H50   S    
C16   O24   S    
C50   H15   S    
C4    C6    A    
C2    O2    A    
C52   H20   S    
C5    C7    A    
C17   C19   S    
C60   H44   S    
C41   C45   S    
C45   H7    S    
O14   H14   S    
C13   N2    S    
C21   C61   S    
C37   C38   A    
C52   H21   S    
C62   H57   S    
C49   C50   S    
C33   O11   S    
Cu2   O2    S    
C34   O12   S    
C61   H59   S    
C64   H62   S    
C9    C11   A    
C32   N2    A    
O16   H36   S    
C10   C12   A    
C63   H64   S    
C23   O5    A    
C8    C10   A    
C12   C14   A    
C57   H40   S    
C26   O14   S    
C54   H26   S    
O19   H49   S    
C48   H10   S    
C45   C46   S    
C6    C59   S    
O18   H48   S    
O17   H47   S    
C29   N3    S    
C27   H1    S    
C15   C17   S    
C30   N4    S    
C63   H63   S    
C28   H2    S    
C1    C20   S    
C16   C22   S    
C19   C21   S    
C2    C19   S    
C25   O13   S    
C61   H58   S    
C20   C22   S    
C47   C48   S    
C3    C5    A    
C51   H23   S    
C6    C8    A    
O22   H52   S    
C51   H24   S    
C39   C44   A    
C28   N4    S    
C9    O17   S    
C25   C27   S    
C54   H27   S    
O21   H51   S    
C26   C28   S    
C17   C22   S    
C58   H39   S    
C36   C38   A    
O24   H54   S    
C1    O3    A    
C25   N4    S    
C32   O10   S    
C37   C39   A    
C2    O4    A    
O23   H53   S    
C52   H22   S    
C55   H34   S    
C11   C13   A    
C51   C52   S    
C16   C19   S    
C7    C23   S    
C8    C24   S    
C58   H38   S    
C49   H18   S    
C34   C36   A    
C32   C40   A    
C59   H46   S    
C18   O22   S    
C35   C41   A    
O13   H13   S    
C14   N1    S    
C15   C21   S    
C63   C64   S    
C16   C18   S    
C54   H25   S    
C31   C39   A    
C17   O21   S    
C64   H60   S    
C26   N3    S    
Cu2   O6    S    
C45   H6    S    
C26   C30   S    
