data_mof_unit_47522.cif
_audit_creation_date              2012-12-10T17:50:13-0500
_audit_creation_method            fapswitch 2.2
_symmetry_space_group_name_H-M    P1
_symmetry_Int_Tables_number       1
_space_group_crystal_system       triclinic
_cell_length_a                    10.625755
_cell_length_b                    14.657995
_cell_length_c                    14.791331
_cell_angle_alpha                 64.580994
_cell_angle_beta                  103.737904
_cell_angle_gamma                 103.170022
_cell_volume                      2000.31375024

loop_
_atom_site_label
_atom_site_type_symbol
_atom_type_description
_atom_site_fract_x
_atom_site_fract_y
_atom_site_fract_z
_atom_type_partial_charge
C1    C     C_R   0.479712 0.120302 0.312196 0.888191
C2    C     C_R   0.521286 0.879582 0.688138 0.900440
C3    C     C_R   0.504467 0.293913 0.172542 0.336772
C4    C     C_R   0.521004 0.705818 0.830173 0.373550
C5    C     C_R   0.447120 0.360995 0.077648 -0.064278
C6    C     C_R   0.481654 0.640068 0.924480 -0.065259
C7    C     C_R   0.379702 0.321470 0.003695 -0.035508
C8    C     C_R   0.486737 0.680209 0.997333 -0.037608
C9    C     C_R   0.458336 0.466951 0.052679 0.143569
C10   C     C_R   0.443463 0.534209 0.950236 0.138802
C11   C     C_R   0.379338 0.494954 0.877048 -0.112894
C12   C     C_R   0.471000 0.506775 0.126208 -0.109660
C13   C     C_R   0.344633 0.390414 0.903706 -0.069997
C14   C     C_R   0.479213 0.611496 0.098389 -0.047875
C15   C     C_R   0.733864 0.289042 0.658984 0.336414
C16   C     C_R   0.264431 0.710352 0.341954 0.361397
C17   C     C_R   0.688868 0.204234 0.634560 0.042941
C18   C     C_R   0.302525 0.790658 0.373812 0.021663
C19   C     C_R   0.519881 0.285965 0.509835 0.124695
C20   C     C_R   0.493713 0.722878 0.475478 0.128789
C21   C     C_R   0.561319 0.377048 0.527611 -0.072792
C22   C     C_R   0.459584 0.635618 0.450970 -0.089377
C23   C     C_R   0.259412 0.000434 0.499399 0.845646
C24   C     C_R   0.740597 0.999777 0.500268 0.905579
C25   C     C_R   0.673480 0.379179 0.602988 -0.042708
C26   C     C_R   0.344133 0.631420 0.378976 -0.035045
C27   C     C_R   0.493736 0.464695 0.473634 0.052930
C28   C     C_R   0.535068 0.552285 0.497485 0.051002
C29   C     C_R   0.650796 0.553896 0.567227 -0.190273
C30   C     C_R   0.387408 0.468167 0.395047 -0.262275
C31   C     C_R   0.719924 0.471178 0.617933 0.412884
C32   C     C_R   0.314903 0.549085 0.347521 0.420555
C33   C     C_3   0.009024 0.924459 0.473830 -0.225411
C34   C     C_3   0.991091 0.076150 0.525314 -0.184255
C35   C     C_3   0.932646 0.014882 0.407750 0.449831
C36   C     C_3   0.067441 0.985694 0.591415 0.436048
C37   C     C_3   0.877382 0.000075 0.500218 -0.144791
C38   C     C_3   0.122672 0.000453 0.498992 -0.140977
C39   C     C_3   0.952505 0.909577 0.567487 -0.233668
C40   C     C_3   0.047688 0.091024 0.431629 -0.233437
C41   C     C_R   0.458074 0.188795 0.204359 -0.216043
C42   C     C_R   0.520985 0.811434 0.796291 -0.231038
C43   C     C_R   0.348956 0.214486 0.032465 0.422534
C44   C     C_R   0.499690 0.787295 0.966409 0.438566
C45   C     C_R   0.381951 0.150059 0.133841 -0.271573
C46   C     C_R   0.509679 0.850969 0.864880 -0.230498
Cu1   Cu    Cu3+1 0.465750 0.918270 0.475680 1.028694
Cu2   Cu    Cu3+1 0.534250 0.081730 0.524320 1.030355
H1    H     H_    0.582364 0.735467 0.523957 0.177966
H2    H     H_    0.436095 0.277133 0.455446 0.127035
H3    H     H_    0.242442 0.850722 0.345605 0.170074
H4    H     H_    0.736374 0.136579 0.675153 0.172380
H5    H     H_    0.693143 0.620194 0.583510 0.190213
H6    H     H_    0.358766 0.409156 0.366278 0.157954
H7    H     H_    0.018143 0.862992 0.451858 0.204389
H8    H     H_    0.981908 0.137610 0.547270 0.205554
H9    H     H_    0.912605 0.835489 0.623409 0.231249
H10   H     H_    0.088861 0.164711 0.375644 0.191033
H11   H     H_    0.291924 0.365050 0.844662 0.223406
H12   H     H_    0.482834 0.637308 0.157380 0.209339
H13   H     H_    0.510589 0.932211 0.839342 0.242188
H14   H     H_    0.349409 0.068816 0.157871 0.231326
H15   H     H_    0.347295 0.545409 0.800101 0.195917
H16   H     H_    0.464722 0.456695 0.204376 0.171640
N1    N     N_R   0.585750 0.204560 0.560800 -0.214164
N2    N     N_R   0.414250 0.795440 0.439200 -0.224888
O1    O     O_R   0.454850 0.022100 0.338110 -0.583315
O2    O     O_R   0.545150 0.977900 0.661890 -0.591807
O3    O     O_R   0.512700 0.160150 0.379180 -0.547278
O4    O     O_R   0.487300 0.839850 0.620820 -0.531356
O5    O     O_R   0.287930 0.931000 0.479440 -0.600790
O6    O     O_R   0.712070 0.069000 0.520560 -0.576623
O7    O     O_R   0.345780 0.069050 0.520520 -0.575865
O8    O     O_R   0.654220 0.930950 0.479480 -0.569238
Cl1   Cl    Cl    0.839715 0.034092 0.285331 -0.476475
Cl2   Cl    Cl    0.160313 0.966105 0.713981 -0.531849
Cl3   Cl    Cl    0.859177 0.270269 0.764789 -0.409538
Cl4   Cl    Cl    0.111086 0.713325 0.262795 -0.421904
S1    S     S_3+6 0.609052 0.659694 0.773341 0.009525
O9    O     O_2   0.516617 0.625597 0.696188 -0.361645
O10   O     O_2   0.713314 0.742149 0.722604 -0.307517
O11   O     O_3   0.680989 0.560210 0.862741 -0.453058
H17   H     H_    0.705786 0.527142 0.824817 0.405913
S2    S     S_3+6 0.659871 0.335553 0.232856 0.046955
O12   O     O_2   0.642969 0.360151 0.317572 -0.321255
O13   O     O_2   0.744664 0.252534 0.275567 -0.238811
O14   O     O_3   0.735477 0.440060 0.148150 -0.460617
H18   H     H_    0.817137 0.460536 0.188037 0.413417
S3    S     S_3+6 0.265055 0.158043 0.946007 0.059562
O15   O     O_2   0.133077 0.192843 0.902372 -0.197518
O16   O     O_2   0.342908 0.190899 0.861793 -0.260382
O17   O     O_3   0.244778 0.029902 0.004389 -0.478229
H19   H     H_    0.210727 0.005356 0.949100 0.427192
S4    S     S_3+6 0.497401 0.844212 0.050269 0.055221
O18   O     O_2   0.371360 0.803934 0.092845 -0.237765
O19   O     O_2   0.610473 0.817581 0.135623 -0.252883
O20   O     O_3   0.509808 0.971962 0.989422 -0.469919
H20   H     H_    0.513111 0.997012 0.042515 0.409079
Cl5   Cl    Cl    0.869114 0.495029 0.693279 -0.489895
Cl6   Cl    Cl    0.194744 0.541678 0.244502 -0.488551

loop_
_geom_bond_atom_site_label_1
_geom_bond_atom_site_label_2
_ccdc_geom_bond_type
C25   C31   A    
C38   C40   S    
O14   H18   S    
C26   C32   A    
C34   C37   S    
S2    O14   S    
Cu2   O3    S    
O20   H20   S    
C34   H8    S    
C30   H6    S    
C35   Cl1   S    
C43   S3    S    
C4    C42   A    
C34   C40   S    
C20   N2    A    
C28   C29   A    
C35   C37   S    
S2    O13   D    
C2    O2    A    
C12   H16   S    
C15   C25   A    
C39   H9    S    
C45   H14   S    
C42   C46   A    
C36   Cl2   S    
C1    O1    A    
C7    C43   A    
Cu2   N1    S    
S3    O16   D    
C9    C10   A    
Cu1   N2    S    
C34   C36   S    
C21   C27   A    
C22   C28   A    
C27   C30   A    
C23   O7    A    
C17   H4    S    
Cu1   O1    S    
C44   C46   A    
C18   H3    S    
C16   C26   A    
C40   H10   S    
C46   H13   S    
C23   O5    A    
S2    O12   D    
C4    S1    S    
C4    C6    A    
C5    C7    A    
C6    C8    A    
S4    O20   S    
C1    O3    A    
C32   Cl6   S    
Cu1   O4    S    
C5    C9    A    
C20   H1    S    
Cu1   Cu2   S    
C24   C37   S    
C33   H7    S    
C16   C18   A    
C33   C39   S    
Cu2   O2    S    
S3    O17   S    
S4    O19   D    
C43   C45   A    
Cu1   O5    S    
C1    C41   S    
C12   C14   A    
C31   Cl5   S    
Cu2   O6    S    
C3    S2    S    
C24   O6    A    
S1    O10   D    
C15   C17   A    
C21   C25   A    
C3    C41   A    
C8    C14   A    
C19   C21   A    
C17   N1    A    
Cu2   O7    S    
C36   C39   S    
C8    C44   A    
Cu1   O8    S    
C20   C22   A    
C3    C5    A    
C6    C10   A    
S1    O11   S    
C13   H11   S    
C18   N2    A    
C23   C38   S    
C14   H12   S    
C11   H15   S    
C33   C38   S    
C36   C38   S    
C35   C40   S    
C37   C39   S    
C30   C32   A    
C11   C13   A    
C19   H2    S    
C24   O8    A    
C15   Cl3   S    
C29   H5    S    
C2    C42   S    
O17   H19   S    
C33   C35   S    
C19   N1    A    
C16   Cl4   S    
S4    O18   D    
C9    C12   A    
C44   S4    S    
C10   C11   A    
S1    O9    D    
C7    C13   A    
C29   C31   A    
O11   H17   S    
C22   C26   A    
C27   C28   A    
C41   C45   A    
S3    O15   D    
C2    O4    A    
