data_mof_unit_67285.cif
_audit_creation_date              2013-03-05T16:01:59-0500
_audit_creation_method            fapswitch 2.2
_symmetry_space_group_name_H-M    P1
_symmetry_Int_Tables_number       1
_space_group_crystal_system       triclinic
_cell_length_a                    8.60335
_cell_length_b                    14.977759
_cell_length_c                    15.414365
_cell_angle_alpha                 95.249933
_cell_angle_beta                  98.625934
_cell_angle_gamma                 92.260271
_cell_volume                      1952.71944073

loop_
_atom_site_label
_atom_site_type_symbol
_atom_site_description
_atom_site_fract_x
_atom_site_fract_y
_atom_site_fract_z
_atom_type_partial_charge
P1    P     P_3+3 0.018620 0.416870 0.295980 0.589062
O1    O     O_2   0.841250 0.444240 0.280450 -0.259146
O2    O     O_3   0.112870 0.447390 0.393710 -0.338767
O3    O     O_3   0.597960 0.615760 0.327700 -0.328579
O4    O     O_2   0.695690 0.556004 0.182988 -0.315010
O5    O     O_3   0.988747 0.301764 0.264318 -0.574335
O6    O     O_3   0.572471 0.710202 0.180900 -0.490347
H1    H     H_    0.496946 0.759659 0.297668 0.093649
C1    C     C_3   0.487499 0.859177 0.207812 0.647289
P2    P     P_3+3 0.635650 0.716500 0.560900 0.506651
P3    P     P_3+3 0.048930 0.782641 0.390324 0.518439
O7    O     O_2   0.802240 0.729720 0.532850 -0.395802
O8    O     O_3   0.017190 0.664840 0.371090 -0.383783
O9    O     O_2   0.915400 0.821709 0.435763 -0.344525
O10   O     O_3   0.678617 0.746531 0.673161 -0.542134
O11   O     O_3   0.012502 0.828638 0.289240 -0.459400
C2    C     C_3   0.006760 0.761421 0.219084 0.298311
H2    H     H_    0.891258 0.723057 0.207890 0.158102
H3    H     H_    0.101804 0.714234 0.232392 0.019168
C3    C     C_3   0.030483 0.805903 0.136443 0.091030
H4    H     H_    0.116263 0.862410 0.149360 0.200749
C4    C     C_3   0.170475 0.759448 0.671783 0.583505
H5    H     H_    0.123578 0.727613 0.604538 0.008224
C5    C     C_3   0.063432 0.828706 0.705697 -0.165556
H6    H     H_    0.060318 0.887721 0.666894 0.113894
H7    H     H_    0.943122 0.799826 0.697438 0.127065
Ba1   Ba    Ba6+2 0.833410 0.543320 0.453520 1.677902
C6    C     C_3   0.011994 0.246391 0.332354 0.445430
H8    H     H_    0.137167 0.235648 0.349121 0.106205
C7    C     C_3   0.921813 0.157173 0.297245 0.273771
H9    H     H_    0.795051 0.167798 0.280682 0.176782
C8    C     C_3   0.715141 0.674643 0.722383 0.211630
H10   H     H_    0.801456 0.632065 0.693918 0.011662
H11   H     H_    0.606327 0.634277 0.725849 0.165313
C9    C     C_3   0.787494 0.716743 0.814407 0.156517
H12   H     H_    0.915934 0.726191 0.817623 0.094880
P4    P     P_3+3 0.171070 0.583210 0.704020 0.515505
O12   O     O_2   0.348460 0.555790 0.719610 -0.325293
O13   O     O_3   0.076820 0.552690 0.606290 -0.408132
O14   O     O_3   0.591740 0.384320 0.672310 -0.404484
O15   O     O_3   0.199728 0.699082 0.735212 -0.521182
P5    P     P_3+3 0.127610 0.217065 0.627655 0.511818
O16   O     O_3   0.629090 0.386360 0.459240 -0.301651
O17   O     O_3   0.172500 0.335240 0.628910 -0.325151
O18   O     O_2   0.240790 0.169851 0.571537 -0.352438
O19   O     O_3   0.190864 0.182177 0.732025 -0.546299
Ba2   Ba    Ba6+2 0.356410 0.456750 0.546480 1.682737
P6    P     P_3+3 0.551671 0.601984 0.211863 0.566548
C10   C     C_3   0.470566 0.761840 0.224975 0.136794
H13   H     H_    0.347527 0.736795 0.202079 0.034658
O20   O     O_3   0.560600 0.613720 0.540760 -0.372058
C11   C     C_3   0.456025 0.270879 0.275685 0.500665
H14   H     H_    0.334588 0.260536 0.287893 0.015474
C12   C     C_3   0.462440 0.233560 0.179978 0.361225
H15   H     H_    0.366119 0.261151 0.135516 0.067948
P7    P     P_3+3 0.562536 0.269388 0.447488 0.569293
O21   O     O_2   0.387470 0.270310 0.467210 -0.345851
O22   O     O_3   0.560593 0.227795 0.335760 -0.531716
C13   C     C_3   0.106002 0.224304 0.794411 0.451472
H16   H     H_    0.002837 0.260145 0.765288 -0.062970
C14   C     C_3   0.048761 0.158939 0.855794 0.212780
H17   H     H_    0.975082 0.195945 0.898668 0.105097
P8    P     P_3+3 0.650281 0.399432 0.785640 0.492855
C15   C     C_3   0.611192 0.227008 0.775735 0.244447
H18   H     H_    0.736152 0.221285 0.767399 0.013803
O23   O     O_2   0.540064 0.470169 0.816644 -0.319840
O24   O     O_3   0.594588 0.303570 0.832513 -0.457762
H19   H     H_    0.538015 0.229453 0.710154 0.109424
H20   H     H_    0.569677 0.082215 0.771804 0.116367
C16   C     C_3   0.553408 0.143785 0.814436 0.045486
H21   H     H_    0.426994 0.146232 0.816847 0.210318
C17   C     C_R   0.347274 0.545119 0.166860 0.179636
C18   C     C_R   0.107285 0.473018 0.205099 0.208964
C19   C     C_R   0.940760 0.480698 0.768129 -0.485329
C20   C     C_R   0.857322 0.439349 0.825550 0.240187
C21   C     C_R   0.922252 0.437423 0.914728 -0.200986
C22   C     C_R   0.067508 0.483141 0.951166 0.068881
C23   C     C_R   0.153667 0.527130 0.890754 -0.118175
C24   C     C_R   0.129845 0.487827 0.045971 0.063603
C25   C     C_R   0.286065 0.525494 0.075018 -0.151425
C26   C     C_R   0.377876 0.543178 0.011053 0.218366
C27   C     C_R   0.306650 0.563007 0.927295 0.344968
C28   C     C_R   0.047065 0.455487 0.112995 -0.235416
C29   C     C_R   0.246497 0.527281 0.228285 -0.122870
C30   C     C_R   0.087213 0.526127 0.796491 0.285024
H22   H     H_    0.935777 0.417668 0.095474 0.192826
H23   H     H_    0.886760 0.480058 0.699975 0.155448
H24   H     H_    0.856144 0.400730 0.955026 0.178758
C31   C     C_R   0.707081 0.938618 0.545195 -0.064086
C32   C     C_R   0.514085 0.802694 0.507768 0.329689
C33   C     C_R   0.357198 0.772419 0.480009 -0.456934
C34   C     C_R   0.242628 0.828492 0.449674 0.207725
C35   C     C_R   0.279438 0.919724 0.457157 -0.116942
C36   C     C_R   0.436333 0.955532 0.481862 -0.018227
C37   C     C_R   0.555753 0.897906 0.511666 -0.018754
H25   H     H_    0.318488 0.707147 0.494311 0.174254
C38   C     C_R   0.621639 0.090023 0.511800 -0.117820
C39   C     C_R   0.739437 0.033226 0.547463 0.057013
C40   C     C_R   0.660122 0.186227 0.519754 0.297550
C41   C     C_R   0.796869 0.220152 0.575704 -0.487763
C42   C     C_R   0.922806 0.165474 0.592182 0.292684
C43   C     C_R   0.892958 0.071558 0.579486 -0.149967
C44   C     C_R   0.473501 0.047024 0.472619 0.394601
H26   H     H_    0.183597 0.961453 0.438989 0.227921
H27   H     H_    0.989228 0.028533 0.595746 0.152242
H28   H     H_    0.817948 0.292092 0.590529 0.170285
H29   H     H_    0.799849 0.897723 0.571673 0.152641
I1    I     I_    0.146568 0.872001 0.844322 -0.001302
Br1   Br    Br    0.946188 0.296096 0.438164 -0.434258
Br2   Br    Br    0.941180 0.069160 0.380279 -0.448373
I2    I     I_    0.000219 0.101928 0.179398 -0.008388
Br3   Br    Br    0.686455 0.912147 0.265643 -0.313865
I3    I     I_    0.760312 0.636226 0.915426 -0.245226
I4    I     I_    0.688596 0.843052 0.847616 0.017448
Br4   Br    Br    0.340819 0.922253 0.264155 -0.486973
Br5   Br    Br    0.504590 0.396590 0.282380 -0.437737
Br6   Br    Br    0.433779 0.105322 0.163436 -0.240156
Br7   Br    Br    0.659099 0.264215 0.139666 -0.348471
Br8   Br    Br    0.443851 0.876683 0.083603 -0.226517
I5    I     I_    0.113546 0.719229 0.043723 -0.325210
I6    I     I_    0.260881 0.320372 0.871920 -0.258439
Br9   Br    Br    0.213551 0.108081 0.933902 -0.290031
I7    I     I_    0.905901 0.050662 0.785043 -0.327129
Br10  Br    Br    0.654963 0.135951 0.934454 -0.272081
I8    I     I_    0.302826 0.584420 0.358001 -0.206336
I9    I     I_    0.567516 0.458043 0.014009 -0.164251
Br11  Br    Br    0.381716 0.675361 0.898138 -0.315687
Br12  Br    Br    0.326578 0.099711 0.389544 -0.423553
I10   I     I_    0.836950 0.866284 0.074198 0.030464
Br13  Br    Br    0.363463 0.829976 0.676946 -0.490230

loop_
_geom_bond_atom_site_label_1
_geom_bond_atom_site_label_2
_geom_bond_distance
_ccdc_geom_bond_type
P2    Ba1   3.573465 S    
C13   I6    2.080855 S    
O14   Ba2   2.901439 S    
C35   C36   1.416338 A    
O19   C13   1.411314 S    
C9    H12   1.101592 S    
C3    I10   2.075845 S    
C38   C39   1.428086 A    
O10   C8    1.392273 S    
C22   C23   1.459973 A    
C42   C43   1.410316 A    
O14   P8    1.735312 S    
C7    Br2   1.914628 S    
C15   H19   1.112333 S    
P4    C30   1.940636 S    
C6    H8    1.090966 S    
C5    H7    1.090757 S    
P2    O10   1.727981 S    
C7    H9    1.103395 S    
C26   I9    2.107698 S    
P3    O9    1.540170 D    
C4    O15   1.393800 S    
C2    C3    1.526706 S    
P7    O21   1.580933 D    
C9    I4    2.155313 S    
P1    O1    1.584830 D    
P5    O19   1.752453 S    
O2    Ba2   2.896805 S    
C41   C42   1.390914 A    
C43   H27   1.083260 S    
C2    H3    1.109968 S    
C33   H25   1.072869 S    
P3    C34   1.850154 S    
O5    C6    1.391770 S    
Ba1   O13   2.896126 S    
O11   C2    1.402230 S    
O1    Ba1   2.942980 S    
C5    I1    2.179316 S    
C15   C16   1.527389 S    
C19   H23   1.082118 S    
P4    Ba2   3.547561 S    
C21   H24   1.074777 S    
C18   C29   1.401568 A    
O17   Ba2   2.868664 S    
C1    Br3   1.913048 S    
C22   C24   1.473526 A    
P8    O23   1.540314 D    
C13   H16   1.113386 S    
C4    Br13  1.919789 S    
H20   C16   1.108479 S    
P5    O17   1.794425 S    
P6    C17   1.925296 S    
P2    O20   1.630059 S    
C35   H26   1.073485 S    
C38   C40   1.455592 A    
C11   C12   1.538779 S    
C26   C27   1.406347 A    
C11   Br5   1.902590 S    
C11   O22   1.410148 S    
O4    P6    1.544107 D    
P8    O24   1.747161 S    
C13   C14   1.538672 S    
C19   C20   1.392163 A    
O7    Ba1   2.982336 S    
P1    O5    1.746415 S    
C1    Br4   1.874025 S    
C8    C9    1.528953 S    
C32   C37   1.450285 A    
C1    C10   1.510641 S    
C5    H6    1.110683 S    
O6    C10   1.401564 S    
C33   C34   1.376398 A    
Ba2   O20   2.894811 S    
C39   C43   1.417936 A    
C17   C29   1.412039 A    
C14   Br9   1.944436 S    
P1    O2    1.616839 S    
P5    O18   1.546455 D    
C8    H11   1.105015 S    
C31   C37   1.418380 A    
C20   C21   1.407358 A    
C15   O24   1.402904 S    
P4    O12   1.585255 D    
C16   Br10  1.939747 S    
Ba2   O21   2.982384 S    
P3    O11   1.751466 S    
C23   C27   1.415891 A    
C40   C41   1.397996 A    
C31   H29   1.079512 S    
C2    H2    1.110303 S    
C36   C37   1.418634 A    
C38   C44   1.427243 A    
C21   C22   1.413375 A    
C44   Br12  1.907455 S    
O12   Ba2   2.943697 S    
C16   H21   1.095717 S    
P2    O7    1.568272 D    
C23   C30   1.477987 A    
C36   C44   1.419587 A    
C12   Br7   1.940588 S    
C1    Br8   1.938920 S    
C4    C5    1.522493 S    
P5    C42   1.878033 S    
C3    I5    2.068489 S    
O3    Ba1   2.902048 S    
C11   H14   1.096584 S    
O13   Ba2   3.065330 S    
O3    P6    1.761290 S    
Ba1   Ba2   4.718035 S    
C29   I8    2.080557 S    
C12   H15   1.111609 S    
C25   C26   1.389650 A    
C6    Br1   1.903404 S    
C7    I2    2.139154 S    
C41   H28   1.083151 S    
C31   C39   1.429529 A    
C14   I7    2.108815 S    
P1    C18   1.933156 S    
O6    P6    1.741058 S    
O2    Ba1   3.064311 S    
P4    O13   1.616840 S    
C8    H10   1.111105 S    
C24   C28   1.447172 A    
P3    O8    1.765655 S    
C32   C33   1.397685 A    
P8    C20   1.851681 S    
C15   H18   1.107393 S    
C6    C7    1.529853 S    
C34   C35   1.380898 A    
Ba1   O20   3.051467 S    
P7    O22   1.774426 S    
C9    I3    2.089104 S    
C19   C30   1.397990 A    
P4    O15   1.755537 S    
C14   H17   1.110017 S    
C27   Br11  1.894900 S    
C24   C25   1.427799 A    
Ba1   O16   2.895339 S    
O16   P7    1.806046 S    
C28   H22   1.078036 S    
C3    H4    1.084623 S    
P2    C32   1.863945 S    
C17   C25   1.433841 A    
C10   H13   1.103710 S    
C12   Br6   1.915485 S    
P1    Ba1   3.546846 S    
C4    H5    1.110621 S    
O8    Ba1   2.868098 S    
P7    C40   1.884945 S    
O16   Ba2   3.050466 S    
H1    C10   1.113167 S    
C18   C28   1.432968 A    
