data_mof_unit_23590.cif
_audit_creation_date              2012-12-10T17:53:20-0500
_audit_creation_method            fapswitch 2.2
_symmetry_space_group_name_H-M    P1
_symmetry_Int_Tables_number       1
_space_group_crystal_system       triclinic
_cell_length_a                    23.429835
_cell_length_b                    10.664045
_cell_length_c                    9.871788
_cell_angle_alpha                 90.145344
_cell_angle_beta                  89.767605
_cell_angle_gamma                 91.333928
_cell_volume                      2465.83743235

loop_
_atom_site_label
_atom_site_type_symbol
_atom_type_description
_atom_site_fract_x
_atom_site_fract_y
_atom_site_fract_z
_atom_type_partial_charge
C1    C     C_R   0.504121 0.259655 0.500437 0.867699
C2    C     C_R   0.966634 0.279806 0.548222 -0.122924
C3    C     C_R   0.025866 0.277892 0.548908 -0.140544
C4    C     C_R   0.057902 0.388492 0.526208 -0.011709
C5    C     C_R   0.029965 0.502238 0.502880 -0.015300
C6    C     C_R   0.062057 0.613197 0.480229 -0.057924
C7    C     C_R   0.034298 0.725845 0.457335 -0.185723
C8    C     C_R   0.974897 0.730403 0.456184 0.211852
C9    C     C_R   0.117509 0.388447 0.525777 0.508123
C10   C     C_R   0.121616 0.608623 0.480927 0.529724
C11   C     C_R   0.237963 0.506000 0.379493 -0.093559
C12   C     C_R   0.389331 0.498766 0.500267 0.874075
C13   C     C_R   0.297190 0.506496 0.378575 -0.211647
C14   C     C_R   0.327107 0.496536 0.500870 -0.037797
C15   C     C_R   0.297077 0.484434 0.623718 -0.190381
C16   C     C_R   0.237840 0.483831 0.624213 -0.088899
C17   C     C_R   0.208410 0.495163 0.502249 0.309070
C18   C     C_R   0.762155 0.512548 0.620748 -0.118762
C19   C     C_R   0.702956 0.511114 0.621542 -0.199935
C20   C     C_R   0.672945 0.501415 0.499107 -0.083239
C21   C     C_R   0.702861 0.492965 0.376027 -0.233885
C22   C     C_R   0.762177 0.494013 0.375109 0.219605
C23   C     C_R   0.492310 0.738517 0.500935 0.918426
C24   C     C_R   0.791700 0.504084 0.498045 0.261729
C25   C     C_R   0.528852 0.109408 0.749132 -0.146238
C26   C     C_R   0.517004 0.051026 0.872545 -0.177437
C27   C     C_R   0.481617 0.944614 0.875926 -0.178263
C28   C     C_R   0.463381 0.888421 0.755070 0.187982
C29   C     C_R   0.482888 0.937534 0.628823 0.048376
C30   C     C_R   0.506689 0.058779 0.626845 0.066405
C31   C     C_R   0.505687 0.124900 0.502504 -0.102258
C32   C     C_R   0.494629 0.062021 0.380602 -0.210875
C33   C     C_R   0.485026 0.934933 0.381123 -0.197632
C34   C     C_R   0.610681 0.500430 0.499719 0.896363
C35   C     C_R   0.481899 0.871124 0.504340 -0.110032
C36   C     C_R   0.426261 0.333689 0.140631 -0.179424
C37   C     C_R   0.390386 0.251009 0.070274 -0.197756
C38   C     C_R   0.390265 0.251300 0.930150 -0.173768
C39   C     C_R   0.426051 0.334205 0.859684 -0.152742
C40   C     C_R   0.463635 0.418045 0.927652 0.172489
C41   C     C_R   0.463692 0.417953 0.072501 0.169468
C42   C     C_R   0.534573 0.578776 0.071502 -0.117847
C43   C     C_R   0.534563 0.578732 0.928114 -0.098986
C44   C     C_R   0.881614 0.615508 0.479073 0.564455
C45   C     C_R   0.879062 0.394743 0.522496 0.542404
C46   C     C_R   0.938397 0.392230 0.524563 -0.009975
C47   C     C_R   0.969946 0.504717 0.502046 -0.048497
C48   C     C_R   0.941725 0.618971 0.478746 -0.084206
H1    H     H_    0.680811 0.517934 0.717715 0.172072
H2    H     H_    0.494100 0.110413 0.284224 0.171387
H3    H     H_    0.555821 0.193058 0.750666 0.171157
H4    H     H_    0.532553 0.092433 0.966010 0.155309
H5    H     H_    0.467505 0.907178 0.972574 0.157430
H6    H     H_    0.481700 0.886410 0.284768 0.169909
H7    H     H_    0.423137 0.328756 0.247920 0.209222
H8    H     H_    0.362267 0.186835 0.125016 0.168615
H9    H     H_    0.362095 0.187294 0.875511 0.171599
H10   H     H_    0.422786 0.329697 0.752440 0.206100
H11   H     H_    0.562708 0.643038 0.873828 0.153785
H12   H     H_    0.058858 0.811631 0.439783 0.210684
H13   H     H_    0.214926 0.514472 0.285193 0.146002
H14   H     H_    0.319431 0.515471 0.282555 0.172875
H15   H     H_    0.319232 0.475742 0.719201 0.177527
H16   H     H_    0.785246 0.520122 0.715355 0.163136
N1    N     N_R   0.852383 0.504769 0.499498 -0.359016
N2    N     N_R   0.147761 0.497419 0.503152 -0.361107
N3    N     N_R   0.499460 0.498800 0.142780 -0.121945
N4    N     N_R   0.499440 0.498720 0.857170 -0.117653
O1    O     O_R   0.500000 0.316780 0.614690 -0.651478
O2    O     O_2   0.847951 0.288205 0.542771 -0.520688
O3    O     O_2   0.145166 0.280608 0.546800 -0.543006
O4    O     O_2   0.153312 0.714240 0.460225 -0.534827
O5    O     O_R   0.500000 0.316750 0.385360 -0.640648
O6    O     O_R   0.416160 0.499970 0.614690 -0.620985
O7    O     O_R   0.416150 0.499950 0.385360 -0.642748
O8    O     O_R   0.500000 0.683250 0.614640 -0.600812
O9    O     O_R   0.500000 0.683220 0.385310 -0.620993
O10   O     O_R   0.583850 0.500050 0.614640 -0.624369
O11   O     O_R   0.583840 0.500030 0.385310 -0.615408
O12   O     O_2   0.851940 0.720446 0.459361 -0.491408
Zn1   Zn    Zn3+2 0.500000 0.500020 0.653130 0.952055
Zn2   Zn    Zn3+2 0.500000 0.499980 0.346870 0.944710
H17   H     H_    0.943047 0.192882 0.566261 0.212950
H18   H     H_    0.680366 0.485044 0.280651 0.179642
I1    I     I_    0.805463 0.478712 0.187092 -0.289365
I2    I     I_    0.393024 0.760271 0.772823 -0.362171
H19   H     H_    0.562774 0.643028 0.125505 0.153187
H20   H     H_    0.046399 0.189569 0.567121 0.202293
I3    I     I_    0.943086 0.912748 0.417579 -0.218886
H21   H     H_    0.214728 0.475479 0.719107 0.145784

loop_
_geom_bond_atom_site_label_1
_geom_bond_atom_site_label_2
_ccdc_geom_bond_type
C16   H21   S    
C12   O6    A    
O5    Zn2   S    
C19   C20   A    
C23   O8    A    
C25   H3    S    
C36   C41   A    
C7    C8    A    
C41   N3    A    
C45   C46   A    
C2    C46   A    
C5    C47   A    
C26   C27   A    
C29   C30   A    
C18   C24   A    
N4    Zn1   S    
C28   C29   A    
C38   C39   A    
C16   C17   A    
C15   C16   A    
C1    C31   S    
C18   C19   A    
C22   I1    S    
C9    N2    A    
C37   H8    S    
C11   C17   A    
C13   H14   S    
C31   C32   A    
C43   N4    A    
C43   H11   S    
C20   C34   S    
C3    H20   S    
C21   C22   A    
C2    H17   S    
C10   N2    A    
C44   O12   S    
C39   C40   A    
C25   C30   A    
C25   C26   A    
C39   H10   S    
C1    O1    A    
C8    C48   A    
C37   C38   A    
C26   H4    S    
C34   O11   A    
C38   H9    S    
C19   H1    S    
C47   C48   A    
C21   H18   S    
C30   C31   A    
C17   N2    S    
C23   O9    A    
C32   H2    S    
C24   N1    S    
C40   C41   A    
C12   C14   S    
C23   C35   S    
C28   I2    S    
C42   N3    A    
C22   C24   A    
C42   C43   A    
O6    Zn1   S    
C3    C4    A    
C7    H12   S    
C33   H6    S    
C46   C47   A    
C36   C37   A    
C45   O2    S    
C9    O3    S    
C4    C5    A    
C11   H13   S    
O8    Zn1   S    
C6    C10   A    
O11   Zn2   S    
C27   H5    S    
O7    Zn2   S    
C6    C7    A    
C42   H19   S    
C29   C35   A    
C1    O5    A    
C32   C33   A    
C2    C3    A    
C36   H7    S    
C34   O10   A    
C45   N1    A    
C11   C13   A    
O10   Zn1   S    
C18   H16   S    
C5    C6    A    
O9    Zn2   S    
C44   N1    A    
C33   C35   A    
O1    Zn1   S    
C20   C21   A    
N3    Zn2   S    
C40   N4    A    
C12   O7    A    
C27   C28   A    
C15   H15   S    
C14   C15   A    
C8    I3    S    
C4    C9    A    
C13   C14   A    
C44   C48   A    
C10   O4    S    
