data_mof_unit_18314.cif
_audit_creation_date              2012-12-10T17:04:34-0500
_audit_creation_method            fapswitch 2.2
_symmetry_space_group_name_H-M    P1
_symmetry_Int_Tables_number       1
_space_group_crystal_system       triclinic
_cell_length_a                    14.931792
_cell_length_b                    10.739344
_cell_length_c                    10.02384
_cell_angle_alpha                 89.436894
_cell_angle_beta                  90.10125
_cell_angle_gamma                 90.204935
_cell_volume                      1607.30911275

loop_
_atom_site_label
_atom_site_type_symbol
_atom_type_description
_atom_site_fract_x
_atom_site_fract_y
_atom_site_fract_z
_atom_type_partial_charge
C1    C     C_R   0.500215 0.262722 0.500468 0.967350
C2    C     C_R   0.906707 0.622501 0.475623 0.025355
C3    C     C_R   0.950784 0.292879 0.587730 0.218925
C4    C     C_R   0.043588 0.290476 0.581357 -0.289678
C5    C     C_R   0.092360 0.397214 0.544574 0.043996
C6    C     C_R   0.046803 0.509417 0.512570 -0.004676
C7    C     C_R   0.094994 0.618866 0.478714 0.031584
C8    C     C_R   0.048985 0.730093 0.453627 -0.267583
C9    C     C_R   0.955679 0.733943 0.452032 0.216095
C10   C     C_R   0.185959 0.394297 0.538012 0.113959
C11   C     C_R   0.231929 0.502402 0.500131 -0.140321
C12   C     C_R   0.327308 0.500380 0.499891 0.982057
C13   C     C_R   0.188651 0.614715 0.471759 0.106554
C14   C     C_2   0.489573 0.937635 0.381969 0.259388
C15   C     C_2   0.483164 0.868934 0.494832 -0.405975
C16   C     C_2   0.477308 0.070554 0.391854 -0.209077
C17   C     C_2   0.504673 0.131050 0.500075 -0.372948
C18   C     C_2   0.545845 0.578857 0.924279 -0.122992
C19   C     C_2   0.541323 0.583484 0.074195 -0.147262
C20   C     C_R   0.497129 0.737556 0.498664 0.939817
C21   C     C_R   0.672736 0.501861 0.500144 0.879139
C22   C     C_R   0.812748 0.617346 0.462351 0.133797
C23   C     C_R   0.767899 0.508213 0.501783 -0.125526
C24   C     C_R   0.812676 0.403562 0.546866 -0.282149
C25   C     C_R   0.905254 0.402327 0.550369 0.103281
C26   C     C_R   0.952947 0.511708 0.513358 -0.036090
H1    H     H_    0.464473 0.910101 0.589252 0.136118
H2    H     H_    0.449654 0.119768 0.306006 0.175874
H3    H     H_    0.534858 0.085356 0.586027 0.149117
H4    H     H_    0.588395 0.646623 0.874130 0.158196
H5    H     H_    0.575542 0.659649 0.123011 0.173707
H6    H     H_    0.774163 0.321470 0.574548 0.180402
H7    H     H_    0.076485 0.203794 0.606254 0.151518
N1    N     N_2   0.500970 0.501330 0.852150 -0.191913
N2    N     N_2   0.500990 0.501360 0.147810 -0.195789
O1    O     O_R   0.499990 0.319060 0.613040 -0.615571
O2    O     O_R   0.500010 0.319100 0.386900 -0.621139
O3    O     O_R   0.367830 0.499950 0.613080 -0.615482
O4    O     O_R   0.367860 0.499990 0.386940 -0.626318
O5    O     O_R   0.499990 0.680900 0.613100 -0.625061
O6    O     O_R   0.500010 0.680940 0.386960 -0.594925
O7    O     O_R   0.632140 0.500010 0.613060 -0.617343
O8    O     O_R   0.632170 0.500050 0.386920 -0.607461
Zn1   Zn    Zn3+2 0.499980 0.499970 0.650990 0.946902
Zn2   Zn    Zn3+2 0.500020 0.500030 0.349010 0.938982
N3    N     N_2   0.763726 0.718971 0.405797 -0.291344
H8    H     H_    0.701354 0.734053 0.446395 0.217720
C27   C     C_3   0.763426 0.722568 0.261403 -0.703989
H9    H     H_    0.728392 0.807601 0.225985 0.232821
H10   H     H_    0.728466 0.639554 0.221321 0.237734
H11   H     H_    0.832949 0.725083 0.222231 0.246844
H12   H     H_    0.456765 0.441727 0.898366 0.162434
H13   H     H_    0.472752 0.425284 0.102885 0.161468
N4    N     N_2   0.903591 0.183509 0.628791 -0.317934
H14   H     H_    0.933961 0.101884 0.600352 0.227565
C28   C     C_3   0.880108 0.181165 0.768747 -0.810538
H15   H     H_    0.941661 0.178209 0.831237 0.240975
H16   H     H_    0.839147 0.096972 0.790783 0.238934
H17   H     H_    0.840225 0.264549 0.794902 0.255700
N5    N     N_2   0.235639 0.284939 0.571656 -0.305519
H18   H     H_    0.216873 0.240838 0.659058 0.224330
C29   C     C_3   0.250878 0.201316 0.461815 -0.812947
H19   H     H_    0.186300 0.164021 0.423818 0.236734
H20   H     H_    0.292857 0.122147 0.496275 0.240791
H21   H     H_    0.286686 0.250511 0.379661 0.251909
N6    N     N_2   0.241098 0.723221 0.443105 -0.314986
H22   H     H_    0.226574 0.799457 0.500793 0.216891
C30   C     C_3   0.251766 0.752320 0.302770 -0.774240
H23   H     H_    0.186026 0.773169 0.255868 0.232798
H24   H     H_    0.283190 0.673230 0.250206 0.267059
H25   H     H_    0.295689 0.835271 0.291255 0.224594
H26   H     H_    0.085379 0.815550 0.436126 0.169720
N7    N     N_2   0.910949 0.850780 0.438002 -0.275505
H27   H     H_    0.882998 0.883666 0.524752 0.227560
C31   C     C_3   0.947966 0.945086 0.349577 -0.808126
H28   H     H_    0.895319 0.014416 0.325165 0.252384
H29   H     H_    0.970981 0.902603 0.255057 0.247703
H30   H     H_    0.004336 0.994417 0.398809 0.218932
N8    N     N_2   0.506614 0.883793 0.254455 -0.272419
H31   H     H_    0.451035 0.843251 0.211576 0.233989
C32   C     C_3   0.560795 0.954952 0.161197 -0.814813
H32   H     H_    0.581847 0.893941 0.078285 0.227331
H33   H     H_    0.621873 0.991045 0.211396 0.258076
H34   H     H_    0.521730 0.033570 0.118354 0.232528

loop_
_geom_bond_atom_site_label_1
_geom_bond_atom_site_label_2
_ccdc_geom_bond_type
C16   H2    S    
N6    C30   S    
N2    H13   S    
C17   H3    S    
N7    H27   S    
N4    H14   S    
C19   H5    S    
C32   H32   S    
C7    C8    A    
C9    N7    S    
C5    C6    A    
C20   O5    A    
C3    N4    S    
C16   C17   D    
C28   H15   S    
N5    C29   S    
C18   C19   S    
N3    H8    S    
C29   H20   S    
C21   O8    A    
C27   H11   S    
C8    C9    A    
C2    C22   A    
C23   C24   A    
C18   H4    S    
C1    O2    A    
O4    Zn2   S    
C27   H10   S    
N6    H22   S    
N7    C31   S    
O7    Zn1   S    
C32   H33   S    
C20   O6    A    
N4    C28   S    
C13   N6    S    
C18   N1    D    
C15   C20   S    
N3    C27   S    
C8    H26   S    
C3    C25   A    
N1    Zn1   S    
C24   C25   A    
N8    C32   S    
C30   H23   S    
C25   C26   A    
C21   O7    A    
N5    H18   S    
C10   N5    S    
C31   H28   S    
C24   H6    S    
O3    Zn1   S    
C29   H19   S    
C31   H29   S    
C15   H1    S    
O5    Zn1   S    
C2    C26   A    
C14   N8    S    
O8    Zn2   S    
C27   H9    S    
C22   N3    S    
C21   C23   S    
C14   C16   S    
O1    Zn1   S    
O2    Zn2   S    
C3    C4    A    
N2    Zn2   S    
C32   H34   S    
C4    H7    S    
C29   H21   S    
C14   C15   D    
N1    H12   S    
C4    C5    A    
C11   C12   S    
C6    C7    A    
C1    C17   S    
C28   H17   S    
C12   O4    A    
C5    C10   A    
C19   N2    D    
C11   C13   A    
C6    C26   A    
C30   H25   S    
C28   H16   S    
C12   O3    A    
C31   H30   S    
C10   C11   A    
N8    H31   S    
C7    C13   A    
C30   H24   S    
O6    Zn2   S    
C22   C23   A    
C2    C9    A    
C1    O1    A    
