data_mof_unit_28306.cif
_audit_creation_date              2012-12-11T17:07:51-0500
_audit_creation_method            fapswitch 2.2
_symmetry_space_group_name_H-M    P1
_symmetry_Int_Tables_number       1
_space_group_crystal_system       triclinic
_cell_length_a                    17.085096
_cell_length_b                    17.224517
_cell_length_c                    17.296017
_cell_angle_alpha                 90.00011
_cell_angle_beta                  90.000303
_cell_angle_gamma                 90.000062
_cell_volume                      5089.91558104

loop_
_atom_site_label
_atom_site_type_symbol
_atom_type_description
_atom_site_fract_x
_atom_site_fract_y
_atom_site_fract_z
_atom_type_partial_charge
C1    C     C_R   0.394207 0.302351 0.898461 -0.049220
C2    C     C_R   0.168863 0.924199 0.355349 -0.151036
C3    C     C_R   0.681079 0.772647 0.348743 -0.162101
C4    C     C_R   0.135051 0.225596 0.800855 -0.155521
C5    C     C_R   0.318919 0.772640 0.651252 -0.162107
C6    C     C_R   0.864949 0.774401 0.800853 -0.155527
C7    C     C_R   0.681081 0.227360 0.651252 -0.162107
C8    C     C_R   0.635051 0.274401 0.699147 -0.155525
C9    C     C_R   0.818919 0.727360 0.848748 -0.162110
C10   C     C_R   0.364949 0.725598 0.699147 -0.155524
C11   C     C_R   0.181081 0.272637 0.848750 -0.162104
C12   C     C_R   0.635048 0.725606 0.300849 -0.155524
C13   C     C_R   0.105793 0.197649 0.398460 -0.049220
C14   C     C_R   0.818919 0.272640 0.151253 -0.162098
C15   C     C_R   0.364948 0.274402 0.300853 -0.155525
C16   C     C_R   0.181081 0.727359 0.151252 -0.162104
C17   C     C_R   0.831137 0.075800 0.355349 -0.151044
C18   C     C_R   0.894206 0.197650 0.601539 -0.049222
C19   C     C_R   0.168862 0.075800 0.644651 -0.151041
C20   C     C_R   0.105793 0.802351 0.601539 -0.049223
C21   C     C_R   0.831138 0.924200 0.644651 -0.151040
C22   C     C_3   0.862810 0.343434 0.702855 0.243485
C23   C     C_3   0.687098 0.895944 0.747039 0.237803
C24   C     C_3   0.137190 0.656565 0.702854 0.243497
C25   C     C_R   0.668863 0.424200 0.855349 -0.151041
C26   C     C_3   0.312905 0.104056 0.747037 0.237828
C27   C     C_3   0.862803 0.656539 0.297175 0.243494
C28   C     C_3   0.687099 0.104053 0.252957 0.237804
C29   C     C_3   0.137188 0.343430 0.297138 0.243486
C30   C     C_3   0.312902 0.895946 0.252958 0.237806
C31   C     C_3   0.362810 0.843435 0.202854 0.243488
C32   C     C_3   0.187096 0.395941 0.247035 0.237796
C33   C     C_3   0.637190 0.156564 0.202854 0.243480
C34   C     C_3   0.812894 0.604029 0.247071 0.237831
C35   C     C_3   0.362813 0.156567 0.797140 0.243506
C36   C     C_R   0.605793 0.697649 0.898461 -0.049222
C37   C     C_3   0.187098 0.604054 0.752958 0.237809
C38   C     C_3   0.637189 0.843433 0.797142 0.243480
C39   C     C_3   0.812902 0.395945 0.752959 0.237803
C40   C     C_R   0.420337 0.670692 0.855812 -0.125704
C41   C     C_R   0.302097 0.392949 0.896695 -0.145646
C42   C     C_R   0.579663 0.329307 0.855812 -0.125702
C43   C     C_R   0.697903 0.607051 0.896694 -0.145646
C44   C     C_R   0.420337 0.329307 0.144187 -0.125702
C45   C     C_R   0.302097 0.607051 0.103305 -0.145648
C46   C     C_R   0.579663 0.670693 0.144187 -0.125703
C47   C     C_R   0.331137 0.575800 0.855349 -0.151041
C48   C     C_R   0.697903 0.392949 0.103306 -0.145628
C49   C     C_R   0.920337 0.170692 0.355812 -0.125697
C50   C     C_R   0.802097 0.892949 0.396694 -0.145636
C51   C     C_R   0.079663 0.829307 0.355813 -0.125715
C52   C     C_R   0.197902 0.107051 0.396694 -0.145647
C53   C     C_R   0.920337 0.829307 0.644188 -0.125704
C54   C     C_R   0.802097 0.107051 0.603305 -0.145646
C55   C     C_R   0.079663 0.170692 0.644188 -0.125703
C56   C     C_R   0.197903 0.892949 0.603305 -0.145653
C57   C     C_R   0.316954 0.315609 0.880665 0.073801
C58   C     C_R   0.394206 0.697649 0.101539 -0.049224
C59   C     C_R   0.638620 0.363873 0.812033 0.057036
C60   C     C_R   0.683046 0.684390 0.880665 0.073808
C61   C     C_R   0.361380 0.636127 0.812033 0.057035
C62   C     C_R   0.316954 0.684390 0.119335 0.073805
C63   C     C_R   0.638619 0.636128 0.187967 0.057042
C64   C     C_R   0.683046 0.315609 0.119335 0.073808
C65   C     C_R   0.361381 0.363873 0.187967 0.057034
C66   C     C_R   0.816953 0.815609 0.380665 0.073792
C67   C     C_R   0.138620 0.863873 0.312034 0.057033
C68   C     C_R   0.183045 0.184390 0.380664 0.073809
C69   C     C_R   0.668863 0.575801 0.144652 -0.151040
C70   C     C_R   0.861380 0.136126 0.312033 0.057037
C71   C     C_R   0.816954 0.184391 0.619334 0.073805
C72   C     C_R   0.138619 0.136126 0.687967 0.057031
C73   C     C_R   0.183046 0.815609 0.619335 0.073802
C74   C     C_R   0.861381 0.863873 0.687967 0.057034
C75   C     C_R   0.742104 0.364611 0.711035 -0.045008
C76   C     C_R   0.712168 0.817381 0.834954 -0.110861
C77   C     C_R   0.257896 0.635388 0.711034 -0.045035
C78   C     C_R   0.287834 0.182617 0.834955 -0.110858
C79   C     C_R   0.742093 0.635383 0.288980 -0.045030
C80   C     C_R   0.605793 0.302351 0.101539 -0.049229
C81   C     C_R   0.712168 0.182617 0.165043 -0.110863
C82   C     C_R   0.257894 0.364610 0.288963 -0.045003
C83   C     C_R   0.287831 0.817382 0.165044 -0.110859
C84   C     C_R   0.242103 0.864611 0.211034 -0.045015
C85   C     C_R   0.212166 0.317381 0.334952 -0.110860
C86   C     C_R   0.757897 0.135388 0.211033 -0.045000
C87   C     C_R   0.787822 0.682612 0.334971 -0.110861
C88   C     C_R   0.242106 0.135387 0.788965 -0.045054
C89   C     C_R   0.212168 0.682618 0.665044 -0.110855
C90   C     C_R   0.757896 0.864611 0.788965 -0.044998
C91   C     C_R   0.331137 0.424200 0.144651 -0.151041
C92   C     C_R   0.787832 0.317382 0.665044 -0.110860
C93   C     C_R   0.669353 0.337906 0.737645 0.062345
C94   C     C_R   0.738874 0.744212 0.858146 0.079757
C95   C     C_R   0.330647 0.662093 0.737644 0.062352
C96   C     C_R   0.261126 0.255786 0.858148 0.079757
C97   C     C_R   0.669347 0.662094 0.262359 0.062356
C98   C     C_R   0.738874 0.255788 0.141853 0.079755
C99   C     C_R   0.330646 0.337906 0.262355 0.062344
C100  C     C_R   0.261126 0.744212 0.141853 0.079755
C101  C     C_R   0.169353 0.837905 0.237645 0.062348
C102  C     C_R   0.894206 0.802350 0.398461 -0.049257
C103  C     C_R   0.238873 0.244212 0.358145 0.079755
C104  C     C_R   0.830648 0.162093 0.237644 0.062341
C105  C     C_R   0.761122 0.755788 0.358150 0.079761
C106  C     C_R   0.169353 0.162092 0.762356 0.062356
C107  C     C_R   0.238874 0.755787 0.641853 0.079757
C108  C     C_R   0.830647 0.837906 0.762355 0.062342
C109  C     C_R   0.761126 0.244212 0.641852 0.079757
C110  C     C_R   0.135051 0.774400 0.199148 -0.155531
C111  C     C_R   0.318918 0.227360 0.348747 -0.162107
C112  C     C_R   0.864949 0.225598 0.199147 -0.155521
H1    H     H_    0.422008 0.246659 0.906658 0.093848
H2    H     H_    0.212003 0.966093 0.338160 0.157118
H3    H     H_    0.077992 0.253340 0.406657 0.093849
H4    H     H_    0.787997 0.033906 0.338159 0.157121
H5    H     H_    0.922007 0.253341 0.593341 0.093855
H6    H     H_    0.212002 0.033906 0.661841 0.157115
H7    H     H_    0.077992 0.746659 0.593342 0.093855
H8    H     H_    0.787998 0.966094 0.661841 0.157123
H9    H     H_    0.902905 0.374548 0.662817 0.109211
H10   H     H_    0.684473 0.881261 0.684487 0.114436
H11   H     H_    0.097094 0.625450 0.662815 0.109217
H12   H     H_    0.712003 0.466093 0.838160 0.157121
H13   H     H_    0.315529 0.118742 0.684484 0.114428
H14   H     H_    0.902886 0.625422 0.337226 0.109210
H15   H     H_    0.684473 0.118735 0.315509 0.114435
H16   H     H_    0.097090 0.374543 0.337175 0.109214
H17   H     H_    0.315528 0.881263 0.315511 0.114435
H18   H     H_    0.402905 0.874549 0.162816 0.109211
H19   H     H_    0.184473 0.381257 0.184483 0.114436
H20   H     H_    0.597095 0.125451 0.162815 0.109209
H21   H     H_    0.815534 0.618704 0.184516 0.114417
H22   H     H_    0.402912 0.125452 0.837177 0.109214
H23   H     H_    0.577992 0.753340 0.906658 0.093852
H24   H     H_    0.184472 0.618737 0.815510 0.114433
H25   H     H_    0.597093 0.874546 0.837180 0.109209
H26   H     H_    0.815528 0.381262 0.815511 0.114434
H27   H     H_    0.456999 0.719148 0.839841 0.134446
H28   H     H_    0.245273 0.420225 0.900641 0.115640
H29   H     H_    0.543001 0.280851 0.839841 0.134446
H30   H     H_    0.754727 0.579775 0.900641 0.115639
H31   H     H_    0.456999 0.280851 0.160158 0.134448
H32   H     H_    0.245273 0.579775 0.099358 0.115642
H33   H     H_    0.543000 0.719148 0.160158 0.134444
H34   H     H_    0.287997 0.533906 0.838159 0.157117
H35   H     H_    0.754727 0.420225 0.099358 0.115627
H36   H     H_    0.956999 0.219148 0.339841 0.134445
H37   H     H_    0.745273 0.920226 0.400642 0.115636
H38   H     H_    0.043001 0.780851 0.339842 0.134462
H39   H     H_    0.254727 0.079774 0.400641 0.115641
H40   H     H_    0.956999 0.780852 0.660158 0.134448
H41   H     H_    0.745273 0.079775 0.599357 0.115641
H42   H     H_    0.043001 0.219148 0.660159 0.134449
H43   H     H_    0.254727 0.920225 0.599358 0.115643
H44   H     H_    0.076509 0.755112 0.213267 0.164523
H45   H     H_    0.422007 0.753341 0.093341 0.093854
H46   H     H_    0.343854 0.173853 0.370248 0.139142
H47   H     H_    0.923492 0.244886 0.213267 0.164529
H48   H     H_    0.656146 0.826159 0.370235 0.139143
H49   H     H_    0.076507 0.244883 0.786737 0.164526
H50   H     H_    0.343854 0.826148 0.629753 0.139142
H51   H     H_    0.923491 0.755113 0.786733 0.164527
H52   H     H_    0.656145 0.173852 0.629752 0.139142
H53   H     H_    0.576509 0.255113 0.713266 0.164529
H54   H     H_    0.843854 0.673852 0.870247 0.139141
H55   H     H_    0.423492 0.744886 0.713266 0.164528
H56   H     H_    0.712002 0.533907 0.161841 0.157099
H57   H     H_    0.156145 0.326145 0.870251 0.139139
H58   H     H_    0.576509 0.744898 0.286723 0.164527
H59   H     H_    0.843854 0.326148 0.129753 0.139138
H60   H     H_    0.423491 0.255115 0.286734 0.164527
H61   H     H_    0.156146 0.673852 0.129753 0.139141
H62   H     H_    0.861405 0.256143 0.776442 0.323059
H63   H     H_    0.682168 0.985896 0.817046 0.318968
H64   H     H_    0.138594 0.743856 0.776441 0.323058
H65   H     H_    0.317818 0.014097 0.817043 0.318951
H66   H     H_    0.861427 0.743821 0.223574 0.323052
H67   H     H_    0.577992 0.246659 0.093342 0.093856
H68   H     H_    0.682172 0.014102 0.182948 0.318968
H69   H     H_    0.138599 0.256137 0.223553 0.323059
H70   H     H_    0.317822 0.985898 0.182951 0.318967
H71   H     H_    0.361406 0.756144 0.276441 0.323061
H72   H     H_    0.182166 0.485894 0.317041 0.318972
H73   H     H_    0.638595 0.243855 0.276441 0.323062
H74   H     H_    0.817779 0.514082 0.317093 0.318960
H75   H     H_    0.361402 0.243863 0.723556 0.323056
H76   H     H_    0.182185 0.514099 0.682951 0.318965
H77   H     H_    0.638597 0.756141 0.723556 0.323060
H78   H     H_    0.287998 0.466094 0.161840 0.157124
H79   H     H_    0.817826 0.485896 0.682952 0.318964
H80   H     H_    0.922007 0.746659 0.406660 0.093892
N1    N     N_R   0.425360 0.368540 0.922560 -0.050652
N2    N     N_R   0.131460 0.925360 0.422560 -0.042903
N3    N     N_R   0.074640 0.131460 0.422560 -0.050654
N4    N     N_R   0.868540 0.074640 0.422560 -0.042905
N5    N     N_R   0.925360 0.131460 0.577440 -0.050653
N6    N     N_R   0.131460 0.074640 0.577440 -0.042903
N7    N     N_R   0.074640 0.868540 0.577440 -0.050653
N8    N     N_R   0.868540 0.925360 0.577440 -0.042904
N9    N     N_R   0.425340 0.631500 0.922560 -0.047240
N10   N     N_R   0.368500 0.425340 0.922560 -0.043380
N11   N     N_R   0.574660 0.368500 0.922560 -0.047240
N12   N     N_R   0.631460 0.425360 0.922560 -0.042905
N13   N     N_R   0.631500 0.574660 0.922560 -0.043380
N14   N     N_R   0.425340 0.368500 0.077440 -0.047240
N15   N     N_R   0.368500 0.574660 0.077440 -0.043380
N16   N     N_R   0.574660 0.631500 0.077440 -0.047240
N17   N     N_R   0.631500 0.425340 0.077440 -0.043381
N18   N     N_R   0.925340 0.131500 0.422560 -0.047241
N19   N     N_R   0.868500 0.925340 0.422560 -0.043380
N20   N     N_R   0.074660 0.868500 0.422560 -0.047239
N21   N     N_R   0.131500 0.074660 0.422560 -0.043380
N22   N     N_R   0.925340 0.868500 0.577440 -0.047240
N23   N     N_R   0.574640 0.631460 0.922560 -0.050653
N24   N     N_R   0.868500 0.074660 0.577440 -0.043380
N25   N     N_R   0.074660 0.131500 0.577440 -0.047240
N26   N     N_R   0.131500 0.925340 0.577440 -0.043379
N27   N     N_R   0.368540 0.574640 0.922560 -0.042904
N28   N     N_R   0.425360 0.631460 0.077440 -0.050653
N29   N     N_R   0.631460 0.574640 0.077440 -0.042904
N30   N     N_R   0.574640 0.368540 0.077440 -0.050653
N31   N     N_R   0.368540 0.425360 0.077440 -0.042904
N32   N     N_R   0.925360 0.868540 0.422560 -0.050654
Ni1   Ni    Ni4+2 0.500000 0.369720 0.000000 0.209644
Ni2   Ni    Ni4+2 0.630280 0.500000 0.000000 0.218522
Ni3   Ni    Ni4+2 0.500000 0.630280 0.000000 0.209644
Ni4   Ni    Ni4+2 0.369720 0.500000 0.000000 0.218525
Ni5   Ni    Ni4+2 0.000000 0.869720 0.500000 0.209645
Ni6   Ni    Ni4+2 0.130280 1.000000 0.500000 0.218525
Ni7   Ni    Ni4+2 0.000000 0.130280 0.500000 0.209644
Ni8   Ni    Ni4+2 0.869720 1.000000 0.500000 0.218525
O1    O     O_3   0.901069 0.285234 0.745999 -0.760489
O2    O     O_3   0.173852 0.475434 0.261141 -0.748943
O3    O     O_3   0.598931 0.214764 0.245999 -0.760486
O4    O     O_3   0.826119 0.524535 0.261193 -0.748924
O5    O     O_3   0.401069 0.214771 0.753995 -0.760485
O6    O     O_3   0.173855 0.524561 0.738850 -0.748937
O7    O     O_3   0.598932 0.785232 0.753998 -0.760486
O8    O     O_3   0.826144 0.475438 0.738852 -0.748938
O9    O     O_3   0.673856 0.975437 0.761146 -0.748944
O10   O     O_3   0.098930 0.714764 0.745999 -0.760491
O11   O     O_3   0.326153 0.024563 0.761142 -0.748924
O12   O     O_3   0.901081 0.714726 0.254026 -0.760492
O13   O     O_3   0.673858 0.024560 0.238848 -0.748945
O14   O     O_3   0.098933 0.285227 0.253993 -0.760485
O15   O     O_3   0.326143 0.975438 0.238851 -0.748942
O16   O     O_3   0.401070 0.785235 0.245999 -0.760489

loop_
_geom_bond_atom_site_label_1
_geom_bond_atom_site_label_2
_ccdc_geom_bond_type
C11   C96   A    
C58   C62   A    
C55   H42   S    
N11   N12   A    
C40   H27   S    
C67   C101  S    
C53   N22   A    
C84   C101  A    
C112  H47   S    
C43   N13   A    
C29   O14   S    
N2    Ni6   S    
C1    N1    A    
C53   C74   A    
C35   O5    S    
C68   C103  S    
C25   N12   A    
C86   C104  A    
C27   O12   S    
C54   H41   S    
C56   N26   A    
C42   N11   A    
C102  N32   A    
C7    C8    A    
C55   N25   A    
C32   O2    S    
C3    C105  A    
C54   N24   A    
C77   C89   A    
N15   N28   A    
C82   C85   A    
C9    H54   S    
C111  H46   S    
C29   C32   S    
H62   O1    S    
C52   H39   S    
C36   N23   A    
C63   C69   A    
C30   C31   S    
C27   H14   S    
C70   C104  S    
C92   C109  A    
C73   C107  S    
C46   H33   S    
C41   C57   A    
C81   C98   A    
C22   C39   S    
C48   H35   S    
C71   C109  S    
C45   C62   A    
H79   O8    S    
C31   C83   S    
C103  C111  A    
C82   C99   A    
C66   C102  A    
N26   Ni6   S    
C41   H28   S    
C80   N30   A    
C3    C12   A    
C76   C94   A    
C38   O7    S    
C33   C81   S    
C58   N28   A    
C51   N20   A    
C54   C71   A    
N4    Ni8   S    
C51   H38   S    
C78   C96   A    
C10   H55   S    
C57   C96   S    
C49   N18   A    
C15   H60   S    
C53   H40   S    
N8    N22   A    
N18   Ni7   S    
C24   O10   S    
C39   C75   S    
N27   Ni4   S    
C23   O9    S    
H66   O12   S    
C55   C72   A    
C52   C68   A    
C28   H15   S    
C28   O13   S    
N4    N18   A    
H68   O13   S    
C64   C98   S    
C39   H26   S    
C34   O4    S    
C17   C70   A    
C45   N15   A    
C24   C89   S    
C30   C84   S    
N17   N30   A    
C64   C80   A    
C44   C65   A    
N7    N26   A    
C1    H1    S    
C6    C9    A    
C56   H43   S    
C35   H22   S    
C79   C87   A    
C39   O8    S    
H75   O5    S    
C14   C98   A    
C23   H10   S    
H74   O4    S    
N5    Ni7   S    
C27   C34   S    
C91   H78   S    
C18   N5    A    
C23   C90   S    
N3    N21   A    
C30   O15   S    
C43   H30   S    
C16   C110  A    
N31   Ni4   S    
C80   H67   S    
C15   C111  A    
H76   O6    S    
C65   C99   S    
C2    C67   A    
N19   Ni8   S    
N22   Ni5   S    
C104  C112  A    
C26   O11   S    
C16   C100  A    
C12   H58   S    
N30   Ni1   S    
N16   N29   A    
C47   N27   A    
C21   C74   A    
C77   C95   A    
C24   H11   S    
C40   C61   A    
C7    C109  A    
N28   Ni3   S    
C2    N2    A    
C26   H13   S    
C42   C59   A    
C14   C112  A    
C20   N7    A    
C46   N16   A    
C1    C57   A    
C34   C79   S    
C45   H32   S    
C22   O1    S    
C88   C106  A    
N15   Ni4   S    
C102  H80   S    
C83   C84   A    
C87   C105  A    
C40   N9    A    
H63   O9    S    
N14   N31   A    
C89   C107  A    
C42   H29   S    
C44   N14   A    
C24   C37   S    
C37   H24   S    
N3    Ni7   S    
N13   Ni2   S    
C51   C67   A    
C48   N17   A    
C4    C11   A    
C27   C87   S    
C50   C66   A    
C18   H5    S    
H72   O2    S    
C12   C97   A    
C13   H3    S    
N5    N24   A    
C43   C60   A    
C4    C106  A    
C62   C100  S    
C75   C92   A    
C33   H20   S    
C26   C88   S    
H65   O11   S    
C38   C76   S    
C72   C106  S    
C28   C33   S    
C11   H57   S    
C90   C108  A    
C49   C70   A    
C16   H61   S    
C28   C86   S    
C3    H48   S    
C31   O16   S    
N6    N25   A    
N17   Ni2   S    
C66   C105  S    
C91   N31   A    
H77   O7    S    
C36   H23   S    
N6    Ni6   S    
N11   Ni1   S    
C75   C93   A    
C22   H9    S    
H64   O10   S    
C5    C107  A    
C78   C88   A    
C18   C71   A    
C65   C91   A    
C19   N6    A    
C6    C108  A    
C56   C73   A    
H73   O3    S    
H69   O14   S    
N14   Ni1   S    
C29   C85   S    
C79   C97   A    
C110  H44   S    
C8    C93   A    
C81   C86   A    
C15   C99   A    
C14   H59   S    
C36   C60   A    
C58   H45   S    
C33   O3    S    
C85   C103  A    
C47   C61   A    
N10   Ni4   S    
C61   C95   S    
C83   C100  A    
C31   H18   S    
C30   H17   S    
C32   C82   S    
C7    H52   S    
C35   C78   S    
N9    N27   A    
C34   H21   S    
C23   C38   S    
C46   C63   A    
C19   C72   A    
N13   N23   A    
C59   C93   S    
C5    H50   S    
C101  C110  A    
C69   H56   S    
N1    Ni1   S    
C5    C10   A    
N16   Ni3   S    
N32   Ni5   S    
N25   Ni7   S    
N20   Ni5   S    
C2    H2    S    
C50   H37   S    
C37   O6    S    
C37   C77   S    
C10   C95   A    
C44   H31   S    
N19   N32   A    
N29   Ni2   S    
C52   N21   A    
N24   Ni8   S    
C38   H25   S    
N9    Ni3   S    
C20   C73   A    
C69   N29   A    
H71   O16   S    
C20   H7    S    
C9    C94   A    
N7    Ni5   S    
C25   H12   S    
C47   H34   S    
N2    N20   A    
C48   C64   A    
C8    H53   S    
N1    N10   A    
C74   C108  S    
N23   Ni3   S    
C26   C35   S    
N8    Ni8   S    
C6    H51   S    
C49   H36   S    
C63   C97   S    
C13   N3    A    
C29   H16   S    
C19   H6    S    
C22   C92   S    
C4    H49   S    
C17   N4    A    
C25   C59   A    
C21   N8    A    
C41   N10   A    
H70   O15   S    
C50   N19   A    
N12   Ni2   S    
C21   H8    S    
C32   H19   S    
N21   Ni6   S    
C17   H4    S    
C76   C90   A    
C13   C68   A    
C60   C94   S    
