data_mof_unit_24559.cif
_audit_creation_date              2013-03-05T16:24:39-0500
_audit_creation_method            fapswitch 2.2
_symmetry_space_group_name_H-M    P1
_symmetry_Int_Tables_number       1
_space_group_crystal_system       triclinic
_cell_length_a                    27.596868
_cell_length_b                    15.709718
_cell_length_c                    14.93156
_cell_angle_alpha                 89.919792
_cell_angle_beta                  90.058311
_cell_angle_gamma                 90.094033
_cell_volume                      6473.39540101

loop_
_atom_site_label
_atom_site_type_symbol
_atom_site_description
_atom_site_fract_x
_atom_site_fract_y
_atom_site_fract_z
_atom_type_partial_charge
O1    O     O_R   0.500000 0.376780 0.574460 -0.611222
O2    O     O_R   0.500000 0.623220 0.425540 -0.612176
O3    O     O_R   0.500010 0.376780 0.425520 -0.609128
O4    O     O_R   0.499990 0.623220 0.574480 -0.606770
C1    C     C_R   0.500029 0.337471 0.500070 0.910777
C2    C     C_R   0.499979 0.662512 0.499980 0.909286
O5    O     O_R   0.428750 0.500010 0.574460 -0.614919
O6    O     O_R   0.571250 0.499990 0.425540 -0.609357
O7    O     O_R   0.428760 0.500020 0.425520 -0.616180
O8    O     O_R   0.571240 0.499980 0.574480 -0.623319
C3    C     C_R   0.405700 0.500841 0.499925 0.862791
C4    C     C_R   0.594243 0.499277 0.499997 0.858651
Zn1   Zn    Zn3+2 0.499990 0.500000 0.599450 0.960879
Zn2   Zn    Zn3+2 0.500010 0.500000 0.400550 0.970500
C5    C     C_R   0.175885 0.423153 0.479162 0.496897
C6    C     C_R   0.824019 0.577617 0.482678 0.496894
O9    O     O_2   0.199072 0.355978 0.515727 -0.586513
O10   O     O_2   0.801096 0.643767 0.521527 -0.586460
N1    N     N_R   0.200869 0.496988 0.466097 -0.340468
N2    N     N_R   0.798873 0.504324 0.467576 -0.340514
C7    C     C_R   0.178771 0.570711 0.440371 0.492262
C8    C     C_R   0.820834 0.431268 0.439669 0.490775
C9    C     C_R   0.273098 0.542346 0.549157 -0.127061
C10   C     C_R   0.726486 0.454787 0.547500 -0.100707
C11   C     C_R   0.323562 0.545183 0.559613 0.060423
C12   C     C_R   0.675810 0.451111 0.557212 0.051516
C13   C     C_R   0.330952 0.453007 0.428366 -0.249317
C14   C     C_R   0.668955 0.551709 0.432247 -0.238603
C15   C     C_R   0.281106 0.451581 0.418897 -0.127750
C16   C     C_R   0.718770 0.553287 0.423103 -0.125001
C17   C     C_R   0.252171 0.496577 0.478677 0.309974
C18   C     C_R   0.747552 0.504630 0.480134 0.298552
C19   C     C_R   0.101623 0.496876 0.444637 -0.107931
C20   C     C_R   0.898103 0.504625 0.445809 -0.107932
C21   C     C_R   0.125964 0.419177 0.460907 -0.082181
C22   C     C_R   0.873853 0.581964 0.463975 -0.081716
C23   C     C_R   0.099165 0.341842 0.466281 0.096540
C24   C     C_R   0.900663 0.659182 0.470633 0.096722
C25   C     C_R   0.128023 0.573454 0.429393 -0.039311
C26   C     C_R   0.871610 0.428414 0.429147 -0.038345
C27   C     C_R   0.352752 0.499551 0.497793 -0.061040
C28   C     C_R   0.647121 0.501135 0.498351 -0.077439
H1    H     H_    0.352678 0.417674 0.380811 0.163256
H2    H     H_    0.647231 0.589846 0.386952 0.160047
H3    H     H_    0.264833 0.416212 0.364357 0.135594
H4    H     H_    0.735143 0.591644 0.370905 0.136517
C29   C     C_R   0.973631 0.425348 0.436335 0.036272
C30   C     C_R   0.026063 0.576332 0.437480 0.036193
C31   C     C_R   0.975750 0.579367 0.454794 -0.010488
C32   C     C_R   0.024019 0.421976 0.453001 -0.010406
C33   C     C_R   0.949073 0.503435 0.444465 0.034200
C34   C     C_R   0.050650 0.498090 0.443823 0.034353
C35   C     C_R   0.947918 0.354233 0.406511 -0.244508
C36   C     C_R   0.051654 0.647980 0.408570 -0.244425
C37   C     C_R   0.897354 0.353808 0.402465 0.114270
C38   C     C_R   0.102196 0.648398 0.403880 0.114933
O11   O     O_2   0.793172 0.362020 0.424787 -0.595864
O12   O     O_2   0.206235 0.640742 0.428449 -0.595144
C39   C     C_R   0.048510 0.346369 0.479043 0.065921
C40   C     C_R   0.951387 0.654445 0.482568 0.065905
H5    H     H_    0.750327 0.418592 0.590499 0.127596
H6    H     H_    0.249761 0.577064 0.594525 0.132011
C41   C     C_3   0.544736 0.971804 0.495187 -0.161197
C42   C     C_3   0.453021 0.028105 0.506532 -0.162498
C43   C     C_3   0.519182 0.028196 0.424607 -0.164353
C44   C     C_3   0.478581 0.971632 0.577123 -0.166514
H7    H     H_    0.452240 0.946888 0.372463 0.134870
H8    H     H_    0.545533 0.052993 0.629247 0.133179
C45   C     C_1   0.499708 0.248578 0.500341 -0.190738
C46   C     C_1   0.499421 0.751363 0.500042 -0.188245
C47   C     C_3   0.524553 0.027867 0.571541 -0.161647
C48   C     C_3   0.473214 0.972006 0.430176 -0.165114
C49   C     C_3   0.499001 0.082477 0.500942 0.208218
C50   C     C_3   0.498775 0.917406 0.500751 0.207983
C51   C     C_1   0.499353 0.173279 0.500690 -0.081284
C52   C     C_1   0.498986 0.826636 0.500373 -0.084071
C53   C     C_3   0.537292 0.454237 0.970897 0.180330
C54   C     C_3   0.462962 0.545726 0.028986 0.171993
C55   C     C_3   0.541782 0.534441 0.030451 -0.195617
C56   C     C_3   0.458468 0.465531 0.969461 -0.198356
N3    N     N_1   0.500020 0.500000 0.268010 -0.091117
N4    N     N_1   0.499980 0.500000 0.731990 -0.094939
C57   C     C_3   0.495912 0.419540 0.030649 -0.197736
C58   C     C_3   0.504337 0.580429 0.969255 -0.198438
C59   C     C_3   0.499984 0.500242 0.089493 0.054806
C60   C     C_3   0.500254 0.499717 0.910428 0.058581
C61   C     C_1   0.499979 0.500153 0.189752 0.029510
C62   C     C_1   0.500131 0.499832 0.810224 0.021508
H9    H     H_    0.582194 0.946535 0.490548 0.136908
H10   H     H_    0.415569 0.053395 0.511176 0.137216
H11   H     H_    0.576207 0.562504 0.055220 0.132986
H12   H     H_    0.424019 0.437554 0.944685 0.133497
C63   C     C_3   0.579889 0.401343 0.937066 -0.450033
C64   C     C_3   0.610437 0.367465 0.015109 -0.329756
C65   C     C_3   0.652376 0.313009 0.981670 -0.884881
H13   H     H_    0.638361 0.256399 0.945395 0.261788
H14   H     H_    0.676084 0.350659 0.936354 0.266678
H15   H     H_    0.674300 0.290849 0.039553 0.253650
H16   H     H_    0.625376 0.421645 0.054242 0.222691
H17   H     H_    0.587438 0.328253 0.060288 0.222367
H18   H     H_    0.565463 0.347318 0.897087 0.201516
H19   H     H_    0.602705 0.441809 0.892828 0.202205
C66   C     C_3   0.420284 0.598322 0.062875 -0.431487
C67   C     C_3   0.390662 0.634797 0.984914 -0.344977
C68   C     C_3   0.348081 0.687379 0.018915 -0.870148
H20   H     H_    0.323511 0.647200 0.060065 0.264054
H21   H     H_    0.361321 0.741628 0.059893 0.261717
H22   H     H_    0.327332 0.712938 0.961098 0.245886
H23   H     H_    0.414088 0.676027 0.942554 0.220433
H24   H     H_    0.376476 0.582065 0.942745 0.220262
H25   H     H_    0.396882 0.556947 0.105086 0.204039
H26   H     H_    0.434505 0.651049 0.104969 0.203244
H27   H     H_    0.507540 0.646787 0.944285 0.133028
H28   H     H_    0.492728 0.353164 0.055573 0.133561
C69   C     C_3   0.122998 0.255388 0.449249 -0.355640
C70   C     C_3   0.095676 0.202231 0.378760 -0.405932
C71   C     C_3   0.121906 0.118674 0.359719 -0.882044
H29   H     H_    0.158766 0.131290 0.332941 0.265624
H30   H     H_    0.124868 0.080169 0.421942 0.264767
H31   H     H_    0.101237 0.081515 0.309256 0.249190
H32   H     H_    0.058536 0.186547 0.401654 0.223309
H33   H     H_    0.092747 0.239227 0.315445 0.229344
H34   H     H_    0.159781 0.263738 0.420959 0.247344
H35   H     H_    0.126597 0.219410 0.512963 0.208569
C72   C     C_3   0.876714 0.745939 0.455625 -0.355910
C73   C     C_3   0.903569 0.800401 0.385568 -0.405663
C74   C     C_3   0.877219 0.884291 0.368473 -0.881977
H36   H     H_    0.840179 0.872164 0.342200 0.265610
H37   H     H_    0.874683 0.921673 0.431394 0.264740
H38   H     H_    0.897547 0.922356 0.318253 0.249091
H39   H     H_    0.940859 0.815660 0.408033 0.223290
H40   H     H_    0.906078 0.764578 0.321565 0.229366
H41   H     H_    0.839734 0.738138 0.427932 0.246991
H42   H     H_    0.873541 0.780717 0.520032 0.208510
C75   C     C_3   0.651686 0.392881 0.625837 -0.389844
C76   C     C_3   0.685323 0.330253 0.674706 -0.369784
C77   C     C_3   0.656283 0.269846 0.734243 -0.889718
H43   H     H_    0.634003 0.306533 0.782452 0.267582
H44   H     H_    0.632065 0.229282 0.692813 0.262934
H45   H     H_    0.681396 0.228070 0.772260 0.253712
H46   H     H_    0.705827 0.291714 0.625199 0.238489
H47   H     H_    0.711251 0.366053 0.717530 0.220406
H48   H     H_    0.633537 0.433106 0.676932 0.220464
H49   H     H_    0.623479 0.354816 0.590660 0.206106
C78   C     C_3   0.344403 0.599646 0.634166 -0.423518
C79   C     C_3   0.367698 0.681291 0.597270 -0.302513
C80   C     C_3   0.392301 0.732145 0.671557 -0.875142
H50   H     H_    0.365526 0.750244 0.723638 0.254167
H51   H     H_    0.421672 0.693977 0.702835 0.270378
H52   H     H_    0.408413 0.791042 0.642999 0.246989
H53   H     H_    0.395143 0.666102 0.545518 0.213523
H54   H     H_    0.339299 0.721384 0.565482 0.224634
H55   H     H_    0.315301 0.618470 0.681661 0.188554
H56   H     H_    0.370601 0.562337 0.674585 0.227507
C81   C     C_3   0.874078 0.271921 0.369689 -0.351075
C82   C     C_3   0.863799 0.211265 0.448123 -0.299276
C83   C     C_3   0.838954 0.129980 0.416071 -0.878426
H57   H     H_    0.803598 0.145281 0.384331 0.278309
H58   H     H_    0.862236 0.096223 0.366992 0.254942
H59   H     H_    0.832398 0.087126 0.474022 0.246342
H60   H     H_    0.898525 0.194024 0.481325 0.199171
H61   H     H_    0.840435 0.242604 0.498770 0.253902
H62   H     H_    0.841431 0.284402 0.328500 0.241880
H63   H     H_    0.899026 0.239127 0.322507 0.164928
C84   C     C_3   0.125362 0.730300 0.370790 -0.352967
C85   C     C_3   0.134952 0.791629 0.448781 -0.297918
C86   C     C_3   0.159541 0.873078 0.416369 -0.879927
H64   H     H_    0.195120 0.858120 0.385485 0.277775
H65   H     H_    0.136322 0.906137 0.366480 0.255075
H66   H     H_    0.165611 0.916420 0.473995 0.246375
H67   H     H_    0.099997 0.808555 0.481149 0.198777
H68   H     H_    0.158255 0.760942 0.500150 0.255725
H69   H     H_    0.158342 0.717957 0.330631 0.241137
H70   H     H_    0.100549 0.762319 0.322592 0.165651
H71   H     H_    0.967549 0.299191 0.382744 0.136096
H72   H     H_    0.031945 0.703415 0.385805 0.136326
C87   C     C_3   0.023689 0.278850 0.537521 -0.422652
C88   C     C_3   0.001446 0.318040 0.622288 -0.321475
C89   C     C_3   0.978871 0.249769 0.681990 -0.896362
H73   H     H_    0.949567 0.215863 0.645413 0.258313
H74   H     H_    0.006790 0.203181 0.703586 0.262462
H75   H     H_    0.963096 0.279976 0.742470 0.251482
H76   H     H_    0.030056 0.352070 0.660684 0.223229
H77   H     H_    0.972752 0.364494 0.604452 0.231008
H78   H     H_    0.995923 0.242196 0.500750 0.187606
H79   H     H_    0.050202 0.230642 0.560562 0.207231
C90   C     C_3   0.976533 0.720927 0.541774 -0.422544
C91   C     C_3   0.999241 0.680259 0.625543 -0.321382
C92   C     C_3   0.022210 0.747468 0.685946 -0.895681
H80   H     H_    0.051326 0.781926 0.649433 0.258638
H81   H     H_    0.994452 0.793741 0.708718 0.262305
H82   H     H_    0.038312 0.716214 0.745686 0.251519
H83   H     H_    0.970831 0.645638 0.663855 0.223135
H84   H     H_    0.027798 0.634056 0.606522 0.231222
H85   H     H_    0.004090 0.758221 0.505176 0.187397
H86   H     H_    0.950164 0.768730 0.566021 0.207173
H87   H     H_    0.535775 0.053560 0.362325 0.135340
H88   H     H_    0.461983 0.946159 0.639356 0.131844

loop_
_geom_bond_atom_site_label_1
_geom_bond_atom_site_label_2
_geom_bond_distance
_ccdc_geom_bond_type
C72   H42   1.110329 S    
C16   C18   1.392525 A    
C41   C43   1.546187 S    
C85   H68   1.110513 S    
C63   C64   1.532841 S    
C90   H86   1.108008 S    
C13   C15   1.382857 A    
C65   H13   1.110710 S    
C42   H10   1.110158 S    
C42   C48   1.546876 S    
N1    C17   1.428019 S    
C44   H88   1.110240 S    
C8    O11   1.346552 S    
C74   H37   1.110970 S    
C88   C89   1.526206 S    
C65   H15   1.110399 S    
C87   H78   1.103983 S    
C75   C76   1.536781 S    
C86   H65   1.110978 S    
C84   C85   1.534973 S    
C19   C34   1.406901 A    
C37   C81   1.518365 S    
C68   H21   1.110936 S    
C12   C28   1.419684 A    
C20   C33   1.406915 A    
C19   C25   1.423579 A    
C31   C40   1.421156 A    
C70   H33   1.112006 S    
C73   C74   1.527274 S    
O1    C1    1.271634 A    
C32   C39   1.421122 A    
C73   H39   1.108039 S    
C82   C83   1.525756 S    
C80   H51   1.111159 S    
C58   C60   1.547385 S    
C30   C34   1.407998 A    
C90   H85   1.103945 S    
C71   H30   1.110959 S    
C67   H23   1.111685 S    
C60   C62   1.496195 S    
C53   C57   1.547840 S    
C84   H69   1.107948 S    
C69   C70   1.540286 S    
C44   C50   1.530445 S    
C43   C49   1.530382 S    
C70   C71   1.527234 S    
C66   H25   1.111341 S    
H7    C48   1.110179 S    
C36   H72   1.081728 S    
O4    Zn1   1.970818 S    
C92   H81   1.110812 S    
C4    C28   1.459756 S    
C12   C75   1.525371 S    
C66   C67   1.532777 S    
N1    C7    1.364317 A    
C9    H6    1.083610 S    
C80   H50   1.110878 S    
C31   C33   1.409301 A    
C38   C84   1.518054 S    
C32   C34   1.409079 A    
C42   C49   1.530736 S    
C45   C51   1.182952 T    
C64   H17   1.111667 S    
C29   C32   1.413459 A    
C55   H11   1.109989 S    
C88   H76   1.111944 S    
C6    N2    1.362332 A    
C76   H47   1.111725 S    
C29   C35   1.395738 A    
C89   H75   1.110373 S    
C78   H55   1.112601 S    
C53   C55   1.547917 S    
C72   C73   1.540285 S    
C77   H43   1.109786 S    
C91   H84   1.109717 S    
C85   H67   1.112190 S    
C83   H58   1.110969 S    
C83   H57   1.110825 S    
C49   C51   1.426489 S    
C57   H28   1.110053 S    
O2    C2    1.272159 A    
C56   C57   1.556673 S    
C5    C21   1.405411 A    
C67   C68   1.525308 S    
C68   H22   1.110479 S    
C78   C79   1.535562 S    
C86   H66   1.110412 S    
C35   C37   1.396651 A    
C77   H45   1.110364 S    
C36   C38   1.396644 A    
C69   H34   1.107409 S    
C70   H32   1.108015 S    
C59   C61   1.497009 S    
C30   C36   1.395939 A    
C39   C87   1.533933 S    
C80   H52   1.110664 S    
C48   C50   1.530283 S    
C71   H31   1.110459 S    
C11   C27   1.421320 A    
C86   H64   1.110828 S    
C47   C49   1.530505 S    
C29   C33   1.407917 A    
C81   H62   1.107936 S    
C84   H70   1.113074 S    
C1    C45   1.396498 S    
Zn1   N4    1.979029 S    
C14   H2    1.083963 S    
C87   H79   1.108074 S    
C89   H73   1.111091 S    
C15   H3    1.083183 S    
C66   H26   1.111350 S    
C42   C44   1.547105 S    
C56   H12   1.110023 S    
C92   H82   1.110371 S    
C5    N1    1.362314 A    
O7    Zn2   2.001684 S    
C10   C18   1.400146 A    
C76   H46   1.111935 S    
C54   C58   1.547596 S    
C77   H44   1.111000 S    
C13   C27   1.403788 A    
O5    C3    1.281385 A    
C44   C47   1.547040 S    
C7    C25   1.410603 A    
C73   H40   1.112009 S    
O6    C4    1.279568 A    
C26   C37   1.428907 A    
C8    C26   1.410971 A    
C41   H9    1.110195 S    
C54   C56   1.547571 S    
C64   C65   1.525235 S    
C25   C38   1.428364 A    
N3    C61   1.168519 T    
O7    C3    1.280992 A    
C23   C39   1.412980 A    
O3    Zn2   1.970820 S    
O8    C4    1.281201 A    
C10   H5    1.080636 S    
C79   H54   1.111880 S    
C78   H56   1.109053 S    
C54   C59   1.539284 S    
O4    C2    1.271426 A    
C75   H49   1.112645 S    
C57   C59   1.547383 S    
C41   C47   1.546421 S    
C53   C60   1.539218 S    
C87   C88   1.537159 S    
C83   H59   1.110403 S    
C46   C52   1.182614 T    
C85   C86   1.525764 S    
C24   C40   1.413011 A    
O1    Zn1   1.971902 S    
C50   C52   1.426007 S    
C63   H18   1.111290 S    
C74   H36   1.110786 S    
C55   C59   1.547605 S    
C24   C72   1.531806 S    
C35   H71   1.081630 S    
C79   C80   1.526036 S    
N2    C18   1.428860 S    
C72   H41   1.107414 S    
C2    C46   1.395941 S    
C30   C31   1.413500 A    
O6    Zn2   2.000725 S    
C69   H35   1.110348 S    
C21   C23   1.423475 A    
C54   C66   1.526935 S    
C16   H4    1.083154 S    
C10   C12   1.407226 A    
N2    C8    1.364649 A    
C76   C77   1.526328 S    
O3    C1    1.272210 A    
O8    Zn1   2.001684 S    
C63   H19   1.111425 S    
C82   H60   1.112206 S    
C11   C78   1.517164 S    
C65   H14   1.110972 S    
C5    O9    1.349474 S    
C23   C69   1.531697 S    
C41   C50   1.530502 S    
C81   H63   1.113060 S    
C40   C90   1.533912 S    
C43   C48   1.546525 S    
C68   H20   1.110883 S    
C56   C60   1.547220 S    
C14   C16   1.381832 A    
C74   H38   1.110453 S    
C7    O12   1.346658 S    
C15   C17   1.392517 A    
C58   H27   1.110055 S    
C71   H29   1.110790 S    
C6    C22   1.405144 A    
C22   C24   1.423397 A    
C67   H24   1.111699 S    
C53   C63   1.527474 S    
C55   C58   1.556746 S    
C64   H16   1.111579 S    
H8    C47   1.110241 S    
N4    C62   1.168166 T    
C14   C28   1.402136 A    
C75   H48   1.111483 S    
C19   C21   1.414818 A    
C3    C27   1.461630 S    
C20   C22   1.414772 A    
C9    C11   1.401835 A    
C92   H80   1.111104 S    
O2    Zn2   1.971901 S    
C82   H61   1.110464 S    
C79   H53   1.109055 S    
C13   H1    1.083907 S    
O5    Zn1   2.000725 S    
C6    O10   1.349508 S    
C91   H83   1.111940 S    
C81   C82   1.535155 S    
C20   C26   1.423893 A    
C90   C91   1.537161 S    
Zn2   N3    1.979029 S    
C43   H87   1.110195 S    
C91   C92   1.526201 S    
C88   H77   1.109740 S    
C9    C17   1.399121 A    
C89   H74   1.110820 S    
