data_mof_unit_47201.cif
_audit_creation_date              2013-03-05T15:46:33-0500
_audit_creation_method            fapswitch 2.2
_symmetry_space_group_name_H-M    P1
_symmetry_Int_Tables_number       1
_space_group_crystal_system       triclinic
_cell_length_a                    10.255805
_cell_length_b                    10.563728
_cell_length_c                    10.774105
_cell_angle_alpha                 90.153738
_cell_angle_beta                  94.216955
_cell_angle_gamma                 79.149345
_cell_volume                      1143.21452357

loop_
_atom_site_label
_atom_site_type_symbol
_atom_site_description
_atom_site_fract_x
_atom_site_fract_y
_atom_site_fract_z
_atom_type_partial_charge
O1    O     O_R   0.568940 0.489660 0.307530 -0.627659
O2    O     O_R   0.431060 0.510340 0.692470 -0.621051
O3    O     O_R   0.348880 0.522640 0.340350 -0.606000
O4    O     O_R   0.651120 0.477360 0.659650 -0.606795
C1    C     C_R   0.445151 0.503869 0.267510 0.937433
C2    C     C_R   0.555263 0.487360 0.732528 0.936911
O5    O     O_R   0.610030 0.300280 0.483580 -0.600170
O6    O     O_R   0.389970 0.699720 0.516420 -0.596091
O7    O     O_R   0.389970 0.333270 0.516400 -0.617404
O8    O     O_R   0.610030 0.666730 0.483600 -0.615161
C3    C     C_R   0.507257 0.258889 0.517287 0.883485
C4    C     C_R   0.492893 0.741232 0.483089 0.891391
Zn1   Zn    Zn3+2 0.646940 0.477980 0.478080 0.953221
Zn2   Zn    Zn3+2 0.353060 0.522020 0.521920 0.956513
H1    H     H_    0.129404 0.163276 0.732043 0.151370
H2    H     H_    0.871135 0.838027 0.268665 0.152402
C5    C     C_R   0.757599 0.055224 0.488121 0.063177
C6    C     C_R   0.243083 0.945631 0.512928 0.063898
C7    C     C_R   0.844088 0.986345 0.406551 -0.206640
C8    C     C_R   0.156423 0.014970 0.594128 -0.205874
C9    C     C_R   0.804434 0.890334 0.332505 -0.156660
C10   C     C_R   0.196263 0.110646 0.668514 -0.156365
C11   C     C_R   0.681946 0.856127 0.346731 -0.131657
C12   C     C_R   0.319062 0.144320 0.654768 -0.130412
C13   C     C_R   0.594554 0.923728 0.429981 0.070061
C14   C     C_R   0.406444 0.076456 0.571676 0.070854
C15   C     C_R   0.624682 0.034934 0.486929 0.043712
C16   C     C_R   0.376193 0.965352 0.514627 0.043369
C17   C     C_R   0.480111 0.879946 0.461309 -0.245080
C18   C     C_R   0.520634 0.120317 0.540047 -0.241447
H3    H     H_    0.942782 0.005668 0.401131 0.137831
H4    H     H_    0.057383 0.996428 0.598889 0.136924
H5    H     H_    0.655176 0.777150 0.292457 0.135981
H6    H     H_    0.345936 0.223328 0.708964 0.132461
H7    H     H_    0.390311 0.446007 0.894668 0.183532
H8    H     H_    0.615258 0.409721 0.106204 0.203459
C19   C     C_2   0.415326 0.491782 0.135937 -0.362667
C20   C     C_2   0.586854 0.465124 0.864018 -0.355562
C21   C     C_2   0.514059 0.442464 0.066452 -0.153562
C22   C     C_2   0.490612 0.446368 0.933938 -0.160648
H9    H     H_    0.687082 0.465580 0.903724 0.151618
H10   H     H_    0.314447 0.524720 0.095709 0.154751
H11   H     H_    0.891396 0.555788 0.595607 0.175531
H12   H     H_    0.108431 0.445069 0.403830 0.177364
N1    N     N_2   0.157300 0.551390 0.551120 -0.136821
N2    N     N_2   0.842700 0.448610 0.448880 -0.135648
C23   C     C_2   0.072136 0.497325 0.484837 -0.125085
C24   C     C_2   0.927739 0.503165 0.514792 -0.122600
C25   C     C_1   0.811613 0.131328 0.583747 0.133829
N3    N     N_1   0.853849 0.192510 0.660549 -0.225775
C26   C     C_1   0.189009 0.870171 0.416777 0.131814
N4    N     N_1   0.146719 0.809504 0.339549 -0.226573
C27   C     C_R   0.881717 0.393285 0.333797 0.277758
C28   C     C_R   0.957025 0.268062 0.331059 -0.201964
C29   C     C_R   0.002508 0.216369 0.219078 -0.146043
C30   C     C_R   0.974903 0.290521 0.109677 -0.102054
C31   C     C_R   0.901922 0.416305 0.112396 -0.209118
C32   C     C_R   0.854553 0.467409 0.223932 -0.163240
H13   H     H_    0.984010 0.213078 0.416543 0.141327
H14   H     H_    0.060989 0.119770 0.217561 0.142443
H15   H     H_    0.011454 0.251201 0.023191 0.131458
H16   H     H_    0.883257 0.474709 0.028406 0.140682
H17   H     H_    0.799544 0.565425 0.225546 0.132876
C33   C     C_R   0.117904 0.606959 0.665961 0.283815
C34   C     C_R   0.140922 0.531941 0.775231 -0.158846
C35   C     C_R   0.095271 0.584215 0.886960 -0.194299
C36   C     C_R   0.026385 0.711577 0.889978 -0.099748
C37   C     C_R   0.001270 0.786114 0.780727 -0.147296
C38   C     C_R   0.045947 0.733487 0.668795 -0.197667
H18   H     H_    0.191041 0.432277 0.772685 0.116443
H19   H     H_    0.111756 0.525475 0.970758 0.137343
H20   H     H_    0.990772 0.751773 0.976488 0.130370
H21   H     H_    0.945500 0.883841 0.782352 0.142030
H22   H     H_    0.020892 0.788838 0.583398 0.140243

loop_
_geom_bond_atom_site_label_1
_geom_bond_atom_site_label_2
_geom_bond_distance
_ccdc_geom_bond_type
C23   C24   1.528663 S    
O5    C3    1.290222 A    
O7    Zn2   1.959843 S    
C2    C20   1.439715 S    
H2    C9    1.082224 S    
C30   H15   1.082592 S    
C1    C19   1.438521 S    
C4    C17   1.464392 S    
C13   C15   1.398891 A    
H11   C24   1.083141 S    
N1    C33   1.420947 S    
C14   C16   1.398835 A    
C35   H19   1.081580 S    
H12   C23   1.082985 S    
O6    C4    1.290867 A    
C27   C32   1.402227 A    
C7    H3    1.075235 S    
C33   C34   1.401227 A    
C29   C30   1.398375 A    
C11   C13   1.411242 A    
C35   C36   1.398428 A    
H1    C10   1.082231 S    
C31   H16   1.081301 S    
C19   C21   1.329652 D    
C27   C28   1.402047 A    
C15   C18   1.415779 A    
C20   C22   1.328453 D    
O7    C3    1.306478 A    
C29   H14   1.082691 S    
C31   C32   1.398274 A    
O2    C2    1.292696 A    
O3    Zn2   1.953570 S    
O8    C4    1.306032 A    
C20   H9    1.084819 S    
C36   C37   1.398524 A    
O1    C1    1.291631 A    
N2    C27   1.421302 S    
C16   C17   1.416008 A    
C5    C7    1.398867 A    
C8    C10   1.390591 A    
C6    C26   1.446952 S    
C14   C18   1.402191 A    
Zn2   N1    2.020854 S    
C6    C8    1.399146 A    
C28   H13   1.080322 S    
C9    C11   1.389852 A    
C32   H17   1.082623 S    
C38   H22   1.079812 S    
Zn1   N2    2.020852 S    
O2    Zn2   1.944099 S    
C10   C12   1.389584 A    
O1    Zn1   1.944097 S    
C21   C22   1.429686 S    
H7    C22   1.083814 S    
C34   H18   1.082387 S    
C5    C15   1.418355 A    
N2    C24   1.301165 D    
O5    Zn1   1.985452 S    
C36   H20   1.082600 S    
C6    C16   1.418010 A    
C30   C31   1.398293 A    
C3    C18   1.463955 S    
C13   C17   1.403166 A    
O4    C2    1.291564 A    
C34   C35   1.398280 A    
C8    H4    1.074869 S    
N1    C23   1.301133 D    
C5    C25   1.447052 S    
C19   H10   1.085651 S    
C25   N3    1.157529 T    
C28   C29   1.398120 A    
O6    Zn2   1.985453 S    
C7    C9    1.390593 A    
C37   H21   1.082724 S    
C33   C38   1.401358 A    
H8    C21   1.086526 S    
C12   H6    1.083437 S    
C11   H5    1.083211 S    
C26   N4    1.157525 T    
O4    Zn1   1.953571 S    
C12   C14   1.411093 A    
C37   C38   1.398257 A    
O3    C1    1.292076 A    
O8    Zn1   1.959844 S    
