data_mof_unit_59620.cif
_audit_creation_date              2012-12-10T18:00:18-0500
_audit_creation_method            fapswitch 2.2
_symmetry_space_group_name_H-M    P1
_symmetry_Int_Tables_number       1
_space_group_crystal_system       triclinic
_cell_length_a                    10.76076
_cell_length_b                    9.631289
_cell_length_c                    10.64282
_cell_angle_alpha                 89.581659
_cell_angle_beta                  91.523933
_cell_angle_gamma                 89.59482
_cell_volume                      1102.57309909

loop_
_atom_site_label
_atom_site_type_symbol
_atom_type_description
_atom_site_fract_x
_atom_site_fract_y
_atom_site_fract_z
_atom_type_partial_charge
C1    C     C_R   0.871142 0.498228 0.500795 -0.217389
C2    C     C_R   0.128859 0.501770 0.499206 -0.217390
C3    C     C_R   0.262841 0.500528 0.499170 0.793780
C4    C     C_R   0.737159 0.499472 0.500830 0.793781
C5    C     C_R   0.500432 0.500362 0.259791 0.791370
C6    C     C_R   0.499568 0.499638 0.740209 0.791369
C7    C     C_3   0.387786 0.544930 0.038883 -0.203489
C8    C     C_3   0.612214 0.455069 0.961117 -0.203490
C9    C     C_3   0.477126 0.630284 0.956091 -0.221377
C10   C     C_3   0.522874 0.369716 0.043909 -0.221376
C11   C     C_3   0.412876 0.416325 0.958578 0.203763
C12   C     C_3   0.587124 0.583674 0.041422 0.203763
C13   C     C_3   0.499942 0.499449 0.876752 -0.026292
C14   C     C_3   0.500058 0.500551 0.123248 -0.026292
C15   C     C_R   0.429683 0.077164 0.414039 0.261704
C16   C     C_R   0.570317 0.922836 0.585962 0.261706
C17   C     C_R   0.569182 0.070653 0.587887 0.157595
C18   C     C_R   0.430817 0.929347 0.412113 0.157595
C19   C     C_R   0.061522 0.470655 0.387907 0.149271
C20   C     C_R   0.938478 0.529343 0.612094 0.149270
C21   C     C_R   0.932307 0.467624 0.388983 0.149108
C22   C     C_R   0.067694 0.532370 0.611019 0.149107
Cu1   Cu    Cu3+1 0.500000 0.640660 0.500000 0.945158
Cu2   Cu    Cu3+1 0.500000 0.359340 0.500000 0.945157
H1    H     H_    0.295603 0.580139 0.070771 0.148827
H2    H     H_    0.704397 0.419860 0.929229 0.148824
H3    H     H_    0.460719 0.737240 0.919406 0.144988
H4    H     H_    0.539281 0.262760 0.080594 0.144989
N1    N     N_R   0.500000 0.852070 0.500000 -0.193741
N2    N     N_R   0.500000 0.147930 0.500000 -0.193741
O1    O     O_R   0.319640 0.618740 0.499990 -0.598024
O2    O     O_R   0.680360 0.381260 0.500010 -0.598025
O3    O     O_R   0.680360 0.618740 0.500010 -0.547510
O4    O     O_R   0.319640 0.381260 0.499990 -0.547512
O5    O     O_R   0.499970 0.618770 0.316850 -0.596944
O6    O     O_R   0.500030 0.381230 0.683150 -0.596945
O7    O     O_R   0.500030 0.618770 0.683150 -0.560172
O8    O     O_R   0.499970 0.381230 0.316850 -0.560172
N3    N     N_3   0.353657 0.153384 0.325002 -0.528286
H5    H     H_    0.261555 0.122007 0.334591 0.213375
H6    H     H_    0.381362 0.128031 0.234531 0.202447
N4    N     N_3   0.646343 0.846617 0.674998 -0.528286
H7    H     H_    0.738445 0.877999 0.665414 0.213373
H8    H     H_    0.618634 0.871966 0.765471 0.202446
N5    N     N_3   0.638481 0.134559 0.688241 -0.622982
H9    H     H_    0.694477 0.213703 0.655793 0.266773
H10   H     H_    0.577892 0.168433 0.756652 0.235423
N6    N     N_3   0.361519 0.865442 0.311760 -0.622983
H11   H     H_    0.305522 0.786298 0.344208 0.266772
H12   H     H_    0.422107 0.831567 0.243349 0.235424
N7    N     N_3   0.316773 0.323347 0.911086 -0.597492
H13   H     H_    0.272991 0.281135 0.988928 0.225893
H14   H     H_    0.361141 0.241146 0.866516 0.216604
N8    N     N_3   0.683226 0.676653 0.088914 -0.597490
H15   H     H_    0.727011 0.718864 0.011074 0.225893
H16   H     H_    0.638858 0.758856 0.133482 0.216604
N9    N     N_3   0.122851 0.446204 0.272009 -0.543641
H17   H     H_    0.176878 0.532976 0.252169 0.193733
H18   H     H_    0.181965 0.360479 0.283842 0.229824
N10   N     N_3   0.877149 0.553811 0.727990 -0.543640
H19   H     H_    0.823115 0.467049 0.747839 0.193734
H20   H     H_    0.818042 0.639542 0.716149 0.229826
N11   N     N_3   0.864440 0.434922 0.275266 -0.534590
H21   H     H_    0.811956 0.345869 0.291036 0.223313
H22   H     H_    0.803392 0.516987 0.253982 0.238980
N12   N     N_3   0.135561 0.565069 0.724739 -0.534587
H23   H     H_    0.188047 0.654123 0.708972 0.223312
H24   H     H_    0.196608 0.483001 0.746021 0.238982

loop_
_geom_bond_atom_site_label_1
_geom_bond_atom_site_label_2
_ccdc_geom_bond_type
Cu1   O1    S    
C2    C22   A    
C15   C18   A    
N12   H24   S    
Cu1   Cu2   S    
N11   H22   S    
C1    C21   A    
C8    C13   S    
C16   N4    S    
C20   N10   S    
C8    H2    S    
N8    H15   S    
Cu2   O8    S    
C7    H1    S    
C8    C12   S    
C1    C4    S    
C18   N6    S    
N6    H12   S    
C2    C3    S    
C16   N1    A    
C6    O7    A    
N7    H13   S    
N3    H6    S    
C18   N1    A    
Cu2   O6    S    
N5    H9    S    
C19   N9    S    
C6    C13   S    
C3    O1    A    
C17   N2    A    
C11   C13   S    
C15   N3    S    
N9    H17   S    
C4    O2    A    
N4    H8    S    
C5    O8    A    
N10   H19   S    
C5    O5    A    
C8    C10   S    
N6    H11   S    
C19   C21   A    
C6    O6    A    
N12   H23   S    
Cu1   O5    S    
N5    H10   S    
C10   C14   S    
C9    C12   S    
N8    H16   S    
C21   N11   S    
Cu2   N2    S    
N9    H18   S    
N4    H7    S    
C20   C22   A    
N11   H21   S    
Cu1   N1    S    
C11   N7    S    
C9    H3    S    
C15   N2    A    
N10   H20   S    
C10   C11   S    
C7    C11   S    
C10   H4    S    
N3    H5    S    
C7    C9    S    
C9    C13   S    
C4    O3    A    
C22   N12   S    
C1    C20   A    
C3    O4    A    
N7    H14   S    
C2    C19   A    
Cu1   O7    S    
C5    C14   S    
C7    C14   S    
C12   N8    S    
C17   N5    S    
C12   C14   S    
C16   C17   A    
Cu1   O3    S    
Cu2   O2    S    
Cu2   O4    S    
