data_mof_unit_36559.cif
_audit_creation_date              2012-12-10T17:19:53-0500
_audit_creation_method            fapswitch 2.2
_symmetry_space_group_name_H-M    P1
_symmetry_Int_Tables_number       1
_space_group_crystal_system       triclinic
_cell_length_a                    9.613557
_cell_length_b                    10.747719
_cell_length_c                    15.592838
_cell_angle_alpha                 84.768147
_cell_angle_beta                  73.706431
_cell_angle_gamma                 89.438973
_cell_volume                      1539.75129405

loop_
_atom_site_label
_atom_site_type_symbol
_atom_type_description
_atom_site_fract_x
_atom_site_fract_y
_atom_site_fract_z
_atom_type_partial_charge
C1    C     C_R   0.994539 0.261489 0.512837 0.825891
C2    C     C_R   0.685983 0.500530 0.911961 -0.168615
C3    C     C_R   0.788088 0.466245 0.960011 -0.059992
C4    C     C_R   0.544133 0.537104 0.958194 -0.031666
C5    C     C_R   0.493072 0.507706 0.052309 -0.036516
C6    C     C_R   0.593268 0.463031 0.098704 -0.268396
C7    C     C_R   0.739506 0.444884 0.054189 0.445101
C8    C     C_R   0.453094 0.606239 0.913679 0.543930
C9    C     C_R   0.306313 0.617171 0.956594 -0.291859
C10   C     C_R   0.249709 0.573262 0.046332 0.066510
C11   C     C_R   0.343188 0.523352 0.096356 0.083169
C12   C     C_R   0.917417 0.494897 0.672174 0.812443
C13   C     C_R   0.100380 0.581614 0.087330 -0.044384
C14   C     C_R   0.042919 0.543248 0.178025 -0.151402
C15   C     C_R   0.282353 0.491303 0.188784 -0.223076
C16   C     C_R   0.191992 0.113430 0.601336 -0.115376
C17   C     C_R   0.296470 0.044553 0.630143 -0.159424
C18   C     C_R   0.297579 0.915622 0.629774 -0.143931
C19   C     C_R   0.193183 0.855058 0.601508 -0.115264
C20   C     C_R   0.089887 0.923462 0.567604 0.023977
C21   C     C_R   0.090625 0.055602 0.566499 0.029599
C22   C     C_R   0.982024 0.124429 0.537891 -0.219232
C23   C     C_R   0.993092 0.734380 0.514268 0.854860
C24   C     C_R   0.852243 0.060959 0.541479 0.284960
C25   C     C_R   0.850978 0.929958 0.542175 0.280914
C26   C     C_R   0.979246 0.863975 0.541004 -0.233881
C27   C     C_R   0.697272 0.654331 0.356581 0.381330
C28   C     C_R   0.645504 0.696403 0.281519 0.306610
C29   C     C_R   0.499766 0.701422 0.292371 -0.273917
C30   C     C_R   0.405618 0.652019 0.370739 -0.242352
C31   C     C_R   0.452053 0.574680 0.434771 0.152381
C32   C     C_R   0.603371 0.574897 0.431753 0.082731
C33   C     C_R   0.546260 0.430264 0.562786 0.037510
C34   C     C_R   0.083098 0.498103 0.328341 0.828114
C35   C     C_R   0.398644 0.431288 0.563282 -0.058814
C36   C     C_R   0.872295 0.485164 0.770965 -0.225800
C37   C     C_R   0.134623 0.506677 0.230098 -0.086424
C38   C     C_R   0.934807 0.448826 0.911752 0.514356
C39   C     C_R   0.976512 0.470298 0.817972 -0.411636
C40   C     C_R   0.725063 0.485693 0.819236 0.534843
Cu1   Cu    Cu3+1 0.140660 0.499990 0.500010 0.920747
Cu2   Cu    Cu3+1 0.859340 0.500010 0.499990 1.047325
H1    H     H_    0.028005 0.618122 0.049260 0.166661
H2    H     H_    0.185173 0.210192 0.613739 0.138766
H3    H     H_    0.372523 0.090987 0.656808 0.115362
H4    H     H_    0.375179 0.861751 0.655685 0.166870
H5    H     H_    0.189706 0.754580 0.613042 0.174661
H6    H     H_    0.578926 0.371981 0.613607 0.153262
H7    H     H_    0.347172 0.455684 0.231196 0.162586
H8    H     H_    0.458424 0.747904 0.240090 0.197821
H9    H     H_    0.296419 0.674353 0.375670 0.235095
H10   H     H_    0.320946 0.376693 0.616484 0.104816
H11   H     H_    0.927760 0.545151 0.208692 0.157746
H12   H     H_    0.237026 0.663241 0.919708 0.170320
H13   H     H_    0.090448 0.468912 0.781853 0.199001
H14   H     H_    0.562473 0.443104 0.170343 0.130634
N1    N     N_R   0.648320 0.501210 0.499140 -0.172680
N2    N     N_R   0.352470 0.501290 0.499110 -0.180673
O1    O     O_R   0.118810 0.319640 0.500010 -0.597123
O2    O     O_R   0.881240 0.319660 0.500000 -0.518918
O3    O     O_R   0.055570 0.499980 0.629840 -0.617252
O4    O     O_R   0.818000 0.500010 0.629830 -0.527609
O5    O     O_R   0.118760 0.680340 0.500000 -0.633530
O6    O     O_R   0.881190 0.680360 0.499990 -0.449149
O7    O     O_R   0.182000 0.499990 0.370170 -0.604245
O8    O     O_R   0.944430 0.500020 0.370160 -0.537481
O9    O     O_3   0.833553 0.398475 0.101565 -0.698998
H15   H     H_    0.781379 0.383954 0.166277 0.308281
O10   O     O_3   0.727582 0.127799 0.545447 -0.730254
H16   H     H_    0.646346 0.082563 0.590882 0.306713
O11   O     O_3   0.727157 0.864803 0.542684 -0.712259
H17   H     H_    0.661173 0.920643 0.519269 0.328426
O12   O     O_3   0.831909 0.698137 0.356971 -0.552011
C41   C     C_3   0.845544 0.830476 0.339881 -0.212919
H18   H     H_    0.741509 0.879463 0.365297 0.165231
H19   H     H_    0.894477 0.859637 0.267847 0.155634
H20   H     H_    0.924235 0.864512 0.372402 0.160237
O13   O     O_3   0.732404 0.747185 0.199855 -0.736500
H21   H     H_    0.833078 0.721694 0.193402 0.323142
O14   O     O_3   0.039063 0.423383 0.956512 -0.538062
C42   C     C_3   0.106650 0.309284 0.933128 -0.243031
H22   H     H_    0.185608 0.320588 0.865439 0.129511
H23   H     H_    0.168484 0.279840 0.981646 0.188790
H24   H     H_    0.026209 0.233507 0.937037 0.151327
O15   O     O_3   0.619842 0.463138 0.777058 -0.507644
C43   C     C_3   0.571312 0.337749 0.800494 -0.343956
H25   H     H_    0.659945 0.272367 0.773384 0.149147
H26   H     H_    0.481924 0.321490 0.770580 0.164212
H27   H     H_    0.526569 0.316486 0.874319 0.156076
O16   O     O_3   0.505473 0.666394 0.828383 -0.527376
C44   C     C_3   0.572222 0.780119 0.834641 -0.319257
H28   H     H_    0.668125 0.764196 0.860666 0.158064
H29   H     H_    0.493939 0.842045 0.877179 0.142751
H30   H     H_    0.611066 0.829464 0.766384 0.204446

loop_
_geom_bond_atom_site_label_1
_geom_bond_atom_site_label_2
_ccdc_geom_bond_type
C30   H9    S    
C16   C21   A    
C34   C37   S    
O12   C41   S    
C19   C20   A    
Cu1   O3    S    
C4    C8    A    
C34   O8    A    
C42   H22   S    
O15   C43   S    
C41   H19   S    
C35   N2    A    
C5    C6    A    
C31   N2    A    
C28   C29   A    
C17   H3    S    
Cu1   N2    S    
C5    C11   A    
C3    C7    A    
C1    O1    A    
C38   C39   A    
C19   H5    S    
C34   O7    A    
C18   C19   A    
Cu1   Cu2   S    
C23   C26   S    
C15   C37   A    
C11   C15   A    
C39   H13   S    
C3    C38   A    
C8    C9    A    
C41   H20   S    
C25   O11   S    
C12   C36   S    
C28   O13   S    
C9    C10   A    
C16   H2    S    
C23   O5    A    
C1    C22   S    
C21   C22   A    
C32   N1    A    
C18   H4    S    
Cu2   N1    S    
C42   H23   S    
C24   O10   S    
C29   H8    S    
C41   H18   S    
O9    H15   S    
C36   C40   A    
C24   C25   A    
Cu1   O1    S    
C1    O2    A    
Cu2   O2    S    
C44   H28   S    
C43   H25   S    
C16   C17   A    
Cu1   O7    S    
C25   C26   A    
C10   C13   A    
C40   O15   S    
C2    C4    A    
C29   C30   A    
C44   H29   S    
C12   O4    A    
C31   C32   A    
C17   C18   A    
C23   O6    A    
C22   C24   A    
C8    O16   S    
Cu1   O5    S    
Cu2   O6    S    
C13   H1    S    
C42   H24   S    
Cu2   O4    S    
C33   N1    A    
C27   C32   A    
O13   H21   S    
C36   C39   A    
C6    H14   S    
O14   C42   S    
C20   C26   A    
C43   H27   S    
C6    C7    A    
C2    C3    A    
O11   H17   S    
C27   O12   S    
C14   C37   A    
C12   O3    A    
C35   H10   S    
O16   C44   S    
C30   C31   A    
C38   O14   S    
C33   C35   A    
C43   H26   S    
C15   H7    S    
O10   H16   S    
C10   C11   A    
C7    O9    S    
C2    C40   A    
C4    C5    A    
C14   H11   S    
C20   C21   A    
C27   C28   A    
Cu2   O8    S    
C33   H6    S    
C9    H12   S    
C13   C14   A    
C44   H30   S    
