data_mof_unit_50916.cif
_audit_creation_date              2012-12-11T15:44:47-0500
_audit_creation_method            fapswitch 2.2
_symmetry_space_group_name_H-M    P1
_symmetry_Int_Tables_number       1
_space_group_crystal_system       triclinic
_cell_length_a                    19.347684
_cell_length_b                    11.072204
_cell_length_c                    18.606428
_cell_angle_alpha                 89.932577
_cell_angle_beta                  89.839469
_cell_angle_gamma                 89.887351
_cell_volume                      3985.87091101

loop_
_atom_site_label
_atom_site_type_symbol
_atom_type_description
_atom_site_fract_x
_atom_site_fract_y
_atom_site_fract_z
_atom_type_partial_charge
C1    C     C_R   0.760704 0.534710 0.646473 0.542336
C2    C     C_R   0.176984 0.126607 0.560666 -0.165895
C3    C     C_R   0.516995 0.948326 0.958633 0.026819
C4    C     C_R   0.000417 0.233210 0.964378 -0.179520
C5    C     C_R   0.003746 0.228437 0.039274 -0.166276
C6    C     C_R   0.511054 0.730478 0.957891 -0.171807
C7    C     C_R   0.514210 0.730294 0.032993 -0.164406
C8    C     C_3   0.974042 0.567449 0.051506 -0.274942
C9    C     C_3   0.974971 0.569674 0.970072 -0.266084
C10   C     C_3   0.481914 0.063359 0.040522 -0.281655
C11   C     C_3   0.478980 0.067108 0.959490 -0.266505
C12   C     C_R   0.760958 0.529157 0.852962 0.547379
C13   C     C_R   0.322813 0.626665 0.439244 -0.165799
C14   C     C_R   0.226415 0.483062 0.140640 0.567205
C15   C     C_R   0.261207 0.028679 0.853270 0.543434
C16   C     C_R   0.726541 0.983840 0.140588 0.567305
C17   C     C_R   0.771983 0.123229 0.851799 0.555789
C18   C     C_R   0.227981 0.125243 0.147822 0.553118
C19   C     C_R   0.272112 0.623374 0.851891 0.552928
C20   C     C_R   0.727750 0.625729 0.147614 0.556093
C21   C     C_R   0.967709 0.347268 0.854877 0.543034
C22   C     C_R   0.028734 0.346353 0.147776 0.549864
C23   C     C_R   0.470783 0.846972 0.852545 0.550443
C24   C     C_R   0.677188 0.586161 0.552209 -0.161094
C25   C     C_R   0.531734 0.846831 0.145572 0.538137
C26   C     C_R   0.758237 0.107090 0.416368 0.014700
C27   C     C_R   0.243872 0.118608 0.587455 -0.006876
C28   C     C_R   0.255908 0.618493 0.412561 -0.006817
C29   C     C_R   0.741632 0.607035 0.583561 0.014874
C30   C     C_R   0.714399 0.185063 0.453585 0.002015
C31   C     C_R   0.296628 0.167912 0.545893 0.024629
C32   C     C_R   0.203060 0.667691 0.454182 0.023270
C33   C     C_R   0.785386 0.684859 0.546270 0.001616
C34   C     C_R   0.729487 0.225929 0.522036 0.041715
C35   C     C_3   0.638942 0.202866 0.460750 -0.249412
C36   C     C_R   0.284091 0.188754 0.472021 0.042956
C37   C     C_R   0.215691 0.688596 0.528010 0.042854
C38   C     C_R   0.770272 0.725713 0.477778 0.040902
C39   C     C_3   0.618119 0.219306 0.599708 -0.371111
C40   C     C_3   0.367521 0.342237 0.432252 -0.356776
C41   C     C_3   0.132257 0.842272 0.567998 -0.357046
C42   C     C_3   0.881856 0.719336 0.400364 -0.370355
C43   C     C_3   0.318282 0.296519 0.556223 -0.240940
C44   C     C_3   0.181015 0.796326 0.443799 -0.240180
C45   C     C_3   0.860813 0.702911 0.539257 -0.249117
C46   C     C_3   0.655514 0.264126 0.532502 -0.134296
C47   C     C_3   0.304175 0.317902 0.477614 -0.110235
C48   C     C_3   0.195391 0.817755 0.522318 -0.110428
C49   C     C_R   0.239965 0.538837 0.351475 0.542656
C50   C     C_3   0.844148 0.764086 0.467384 -0.134379
C51   C     C_R   0.783567 0.170889 0.561056 0.008943
C52   C     C_R   0.221916 0.152605 0.439894 -0.013603
C53   C     C_R   0.277982 0.652527 0.560081 -0.012811
C54   C     C_R   0.716263 0.670868 0.438826 0.008520
C55   C     C_R   0.012235 0.338846 0.433247 -0.033187
C56   C     C_R   0.016981 0.321855 0.584400 -0.039505
C57   C     C_R   0.482986 0.822195 0.415612 -0.039324
C58   C     C_R   0.487824 0.838792 0.566770 -0.033249
C59   C     C_R   0.987877 0.118506 0.427969 -0.101387
C60   C     C_R   0.259984 0.038802 0.648527 0.533585
C61   C     C_R   0.004381 0.101463 0.576244 -0.109907
C62   C     C_R   0.495440 0.601708 0.423851 -0.110023
C63   C     C_R   0.512022 0.618198 0.572117 -0.101811
C64   C     C_R   0.987071 0.006230 0.461658 -0.159183
C65   C     C_R   0.994082 0.998086 0.535711 -0.168407
C66   C     C_R   0.505724 0.498131 0.464413 -0.168184
C67   C     C_R   0.512801 0.506020 0.538459 -0.159386
C68   C     C_R   0.007323 0.216120 0.543210 0.009334
C69   C     C_R   0.002128 0.224900 0.467186 -0.000464
C70   C     C_R   0.497813 0.724826 0.532870 -0.000382
C71   C     C_R   0.739261 0.034746 0.353530 0.551497
C72   C     C_R   0.492574 0.716285 0.456846 0.008880
C73   C     C_R   0.041990 0.423638 0.550779 0.003660
C74   C     C_R   0.025331 0.440791 0.477990 0.018142
C75   C     C_R   0.474832 0.940948 0.521989 0.018302
C76   C     C_R   0.458116 0.924172 0.449214 0.003860
C77   C     C_R   0.791970 0.174789 0.639435 0.575737
C78   C     C_R   0.209732 0.168791 0.362002 0.559085
C79   C     C_R   0.290243 0.668883 0.637926 0.557333
C80   C     C_R   0.707971 0.674722 0.360470 0.577980
C81   C     C_R   0.062736 0.521041 0.593444 -0.064755
C82   C     C_R   0.832960 0.109709 0.520514 -0.163561
C83   C     C_R   0.015322 0.560751 0.455516 -0.086128
C84   C     C_R   0.484994 0.060700 0.544438 -0.085984
C85   C     C_R   0.437477 0.021948 0.406538 -0.064263
C86   C     C_R   0.037931 0.632873 0.575114 -0.099904
C87   C     C_R   0.017629 0.654274 0.505056 -0.149371
C88   C     C_R   0.482687 0.154432 0.494906 -0.149619
C89   C     C_R   0.462431 0.133452 0.424842 -0.100475
C90   C     C_R   0.731019 0.006700 0.063597 0.016179
C91   C     C_R   0.254790 0.056631 0.928882 0.021397
C92   C     C_R   0.230881 0.504357 0.063380 0.017439
C93   C     C_R   0.166853 0.128318 0.486158 -0.166644
C94   C     C_R   0.753681 0.557956 0.928221 0.025542
C95   C     C_R   0.787814 0.962677 0.025643 0.014484
C96   C     C_R   0.218880 0.974176 0.971863 0.044283
C97   C     C_R   0.288330 0.461941 0.025716 0.018675
C98   C     C_R   0.718375 0.474846 0.971364 0.045890
C99   C     C_R   0.796368 0.988568 0.953959 0.023340
C100  C     C_R   0.217130 0.984253 0.045258 0.022055
C101  C     C_R   0.297365 0.489792 0.954309 0.026621
C102  C     C_R   0.716426 0.485758 0.044771 0.025260
C103  C     C_R   0.686384 0.090837 0.951604 -0.158274
C104  C     C_R   0.333047 0.628468 0.513744 -0.166790
C105  C     C_R   0.297191 0.150165 0.037532 -0.171102
C106  C     C_R   0.186447 0.588581 0.951259 -0.164712
C107  C     C_R   0.794100 0.655057 0.036186 -0.165503
C108  C     C_R   0.677721 0.064147 0.024949 -0.154699
C109  C     C_R   0.298164 0.140180 0.962626 -0.175104
C110  C     C_R   0.177413 0.560367 0.024324 -0.159015
C111  C     C_R   0.795148 0.644499 0.961422 -0.163837
C112  C     C_3   0.863246 0.977027 0.041348 -0.268751
C113  C     C_3   0.145944 0.931552 0.967621 -0.266464
C114  C     C_3   0.363519 0.477824 0.042164 -0.270131
C115  C     C_R   0.666902 0.609856 0.479409 -0.163339
C116  C     C_3   0.645185 0.433283 0.967243 -0.268788
C117  C     C_3   0.872906 0.002524 0.962435 -0.266580
C118  C     C_3   0.144156 0.939225 0.048819 -0.271108
C119  C     C_3   0.373580 0.506841 0.963728 -0.268106
C120  C     C_3   0.643146 0.442224 0.048303 -0.271721
C121  C     C_R   0.749152 0.062684 0.917441 0.019256
C122  C     C_R   0.251172 0.079736 0.078860 0.014620
C123  C     C_R   0.249651 0.562652 0.917580 0.019113
C124  C     C_R   0.750058 0.581967 0.078050 0.018921
C125  C     C_R   0.974018 0.342960 0.649466 0.530833
C126  C     C_R   0.822722 0.086147 0.447715 -0.161229
C127  C     C_R   0.031688 0.346512 0.355717 0.527543
C128  C     C_R   0.468339 0.846470 0.644295 0.525914
C129  C     C_R   0.525956 0.843053 0.350523 0.531923
C130  C     C_R   0.992720 0.334023 0.080258 0.019192
C131  C     C_R   0.983400 0.342197 0.930529 0.023480
C132  C     C_R   0.513733 0.840467 0.070644 0.022767
C133  C     C_R   0.505505 0.840887 0.920921 0.021341
C134  C     C_R   0.962554 0.433716 0.046642 0.022654
C135  C     C_R   0.959884 0.437750 0.973180 0.049850
C136  C     C_R   0.519697 0.947052 0.031762 0.030513
Cr1   Cr    Cr6+3 0.885860 0.491680 0.749630 1.002858
Cr2   Cr    Cr6+3 0.112430 0.179310 0.249850 0.991000
Cr3   Cr    Cr6+3 0.387570 0.679310 0.750150 0.994677
Cr4   Cr    Cr6+3 0.612430 0.679310 0.249850 0.985998
Cr5   Cr    Cr6+3 0.114140 0.491680 0.250370 0.998009
Cr6   Cr    Cr6+3 0.385860 0.991680 0.749630 1.000376
Cr7   Cr    Cr6+3 0.614140 0.991680 0.250370 0.999789
Cr8   Cr    Cr6+3 0.730490 0.332970 0.748720 0.981071
Cr9   Cr    Cr6+3 0.269510 0.332970 0.251280 0.977893
Cr10  Cr    Cr6+3 0.230490 0.832970 0.748720 0.984096
Cr11  Cr    Cr6+3 0.769510 0.832970 0.251280 0.974890
Cr12  Cr    Cr6+3 0.887570 0.179310 0.750150 0.989896
H1    H     H_    0.875722 0.069700 0.547094 0.168998
H2    H     H_    0.327525 0.220226 0.062241 0.137434
H3    H     H_    0.146856 0.638520 0.923107 0.111047
H4    H     H_    0.822690 0.727445 0.060520 0.133196
H5    H     H_    0.631886 0.095542 0.052292 0.136217
H6    H     H_    0.330997 0.199571 0.931343 0.124888
H7    H     H_    0.131461 0.590514 0.051328 0.124869
H8    H     H_    0.825897 0.706429 0.929663 0.120211
H9    H     H_    0.889087 0.892462 0.058780 0.123480
H10   H     H_    0.142009 0.838137 0.947123 0.143216
H11   H     H_    0.389748 0.393012 0.058558 0.125070
H12   H     H_    0.116921 0.110875 0.464388 0.168126
H13   H     H_    0.640764 0.339648 0.947258 0.140734
H14   H     H_    0.874366 0.056901 0.075628 0.161051
H15   H     H_    0.111372 0.998089 0.940887 0.131575
H16   H     H_    0.373812 0.556515 0.077672 0.156929
H17   H     H_    0.610996 0.499855 0.940010 0.134832
H18   H     H_    0.890144 0.096199 0.951899 0.169863
H19   H     H_    0.106321 0.006785 0.068213 0.155556
H20   H     H_    0.389495 0.601888 0.954780 0.161834
H21   H     H_    0.605674 0.511071 0.067087 0.158711
H22   H     H_    0.902351 0.930838 0.933776 0.129186
H23   H     H_    0.383072 0.611319 0.535457 0.168197
H24   H     H_    0.140596 0.849284 0.075214 0.137904
H25   H     H_    0.404374 0.437654 0.934431 0.130740
H26   H     H_    0.638866 0.352806 0.075203 0.137102
H27   H     H_    0.012494 0.153297 0.933227 0.117732
H28   H     H_    0.021686 0.146061 0.064096 0.129604
H29   H     H_    0.506338 0.645372 0.929777 0.119276
H30   H     H_    0.514770 0.645065 0.061391 0.121984
H31   H     H_    0.023437 0.595644 0.075369 0.152654
H32   H     H_    0.932606 0.623031 0.946124 0.147710
H33   H     H_    0.514257 0.136094 0.063859 0.132240
H34   H     H_    0.624128 0.570075 0.452898 0.168955
H35   H     H_    0.425438 0.060277 0.939259 0.176077
H36   H     H_    0.928762 0.614479 0.075112 0.134026
H37   H     H_    0.026880 0.588715 0.947157 0.127392
H38   H     H_    0.430588 0.051174 0.066468 0.144343
H39   H     H_    0.510080 0.141600 0.935804 0.122546
H40   H     H_    0.861192 0.035516 0.418842 0.140975
H41   H     H_    0.134253 0.118118 0.597292 0.124729
H42   H     H_    0.365538 0.618184 0.402588 0.125716
H43   H     H_    0.638793 0.535541 0.581100 0.140876
H44   H     H_    0.126108 0.802581 0.426740 0.140167
H45   H     H_    0.032127 0.701518 0.615895 0.091475
H46   H     H_    0.887169 0.614139 0.534404 0.170482
H47   H     H_    0.612954 0.113954 0.465774 0.169848
H48   H     H_    0.373082 0.302827 0.573544 0.140109
H49   H     H_    0.617885 0.265257 0.419389 0.128334
H50   H     H_    0.282475 0.348226 0.591674 0.139498
H51   H     H_    0.216525 0.848107 0.408109 0.141061
H52   H     H_    0.881578 0.765406 0.580559 0.127315
H53   H     H_    0.650138 0.362388 0.526531 0.146119
H54   H     H_    0.260215 0.380393 0.467763 0.154141
H55   H     H_    0.239303 0.880171 0.531892 0.154852
H56   H     H_    0.000929 0.743087 0.490583 0.101230
H57   H     H_    0.849201 0.862336 0.473219 0.145917
H58   H     H_    0.977287 0.926533 0.430234 0.102817
H59   H     H_    0.987107 0.912818 0.562942 0.098886
H60   H     H_    0.512535 0.412870 0.437208 0.099116
H61   H     H_    0.522524 0.426163 0.569919 0.102665
H62   H     H_    0.974847 0.119944 0.371628 0.139836
H63   H     H_    0.012639 0.089686 0.633283 0.131586
H64   H     H_    0.487155 0.590189 0.366817 0.132460
H65   H     H_    0.525063 0.619360 0.628456 0.138614
H66   H     H_    0.996181 0.582704 0.403384 0.147543
H67   H     H_    0.499378 0.243083 0.509354 0.101569
H68   H     H_    0.080193 0.506846 0.648172 0.121314
H69   H     H_    0.419971 0.008133 0.351823 0.122396
H70   H     H_    0.504254 0.082183 0.596542 0.147227
H71   H     H_    0.632018 0.275225 0.646436 0.190841
H72   H     H_    0.563456 0.241879 0.597877 0.071104
H73   H     H_    0.626676 0.121392 0.609410 0.160296
H74   H     H_    0.372825 0.433581 0.414682 0.153976
H75   H     H_    0.412940 0.332310 0.464811 0.121027
H76   H     H_    0.367780 0.287522 0.382607 0.172177
H77   H     H_    0.126922 0.933744 0.585280 0.154044
H78   H     H_    0.468269 0.202260 0.384085 0.091951
H79   H     H_    0.086723 0.832199 0.535732 0.120846
H80   H     H_    0.132253 0.787712 0.617779 0.171971
H81   H     H_    0.867882 0.775023 0.353451 0.191570
H82   H     H_    0.936411 0.742273 0.402372 0.071213
H83   H     H_    0.873713 0.621356 0.390855 0.160778
H84   H     H_    0.646760 0.140868 0.923526 0.116855
O1    O     O_R   0.957020 0.451640 0.669920 -0.513558
O2    O     O_R   0.168040 0.093290 0.169870 -0.518852
O3    O     O_R   0.331960 0.593290 0.830130 -0.518862
O4    O     O_R   0.668040 0.593290 0.169870 -0.517632
O5    O     O_R   0.945600 0.250580 0.824860 -0.512022
O6    O     O_R   0.054400 0.250580 0.175140 -0.510925
O7    O     O_R   0.445600 0.750580 0.824860 -0.509559
O8    O     O_R   0.554400 0.750580 0.175140 -0.513057
O9    O     O_3   0.834640 0.334650 0.749500 -0.268903
O10   O     O_3   0.165360 0.334650 0.250500 -0.283037
O11   O     O_3   0.334640 0.834650 0.749500 -0.263672
O12   O     O_R   0.042980 0.451640 0.330080 -0.527700
O13   O     O_3   0.665360 0.834650 0.250500 -0.288387
O14   O     O_R   0.821450 0.543440 0.674610 -0.495896
O15   O     O_R   0.178550 0.543440 0.325390 -0.489019
O16   O     O_R   0.321450 0.043440 0.674610 -0.492721
O17   O     O_R   0.678550 0.043440 0.325390 -0.491075
O18   O     O_R   0.715320 0.458650 0.668100 -0.550423
O19   O     O_R   0.284680 0.458650 0.331900 -0.542735
O20   O     O_R   0.215320 0.958650 0.668100 -0.545722
O21   O     O_R   0.784680 0.958650 0.331900 -0.546924
O22   O     O_R   0.737170 0.209590 0.674530 -0.517197
O23   O     O_R   0.457020 0.951640 0.669920 -0.528024
O24   O     O_R   0.262830 0.209590 0.325470 -0.506988
O25   O     O_R   0.237170 0.709590 0.674530 -0.508384
O26   O     O_R   0.762830 0.709590 0.325470 -0.515649
O27   O     O_R   0.832710 0.092740 0.669580 -0.521973
O28   O     O_R   0.167290 0.092740 0.330420 -0.517278
O29   O     O_R   0.332710 0.592740 0.669580 -0.519752
O30   O     O_R   0.667290 0.592740 0.330420 -0.518774
O31   O     O_R   0.946290 0.250060 0.676040 -0.527446
O32   O     O_R   0.053710 0.250060 0.323960 -0.519865
O33   O     O_R   0.446290 0.750060 0.676040 -0.521687
O34   O     O_R   0.542980 0.951640 0.330080 -0.513140
O35   O     O_R   0.553710 0.750060 0.323960 -0.525780
O36   O     O_R   0.956270 0.452200 0.830470 -0.521776
O37   O     O_R   0.043730 0.452200 0.169530 -0.532344
O38   O     O_R   0.456270 0.952200 0.830470 -0.524558
O39   O     O_R   0.543730 0.952200 0.169530 -0.528635
O40   O     O_R   0.820760 0.543950 0.823440 -0.504016
O41   O     O_R   0.179240 0.543950 0.176560 -0.507806
O42   O     O_R   0.320760 0.043950 0.823440 -0.510680
O43   O     O_R   0.679240 0.043950 0.176560 -0.504528
O44   O     O_R   0.714570 0.459210 0.828640 -0.520962
O45   O     O_R   0.736470 0.210100 0.823360 -0.502175
O46   O     O_R   0.285430 0.459210 0.171360 -0.522546
O47   O     O_R   0.214570 0.959210 0.828640 -0.519928
O48   O     O_R   0.785430 0.959210 0.171360 -0.521058
O49   O     O_R   0.263530 0.210100 0.176640 -0.519752
O50   O     O_R   0.236470 0.710100 0.823360 -0.501588
O51   O     O_R   0.763530 0.710100 0.176640 -0.521039
O52   O     O_R   0.831960 0.093290 0.830130 -0.518870

loop_
_geom_bond_atom_site_label_1
_geom_bond_atom_site_label_2
_ccdc_geom_bond_type
C33   C45   S    
C74   C83   A    
C90   C95   A    
C45   H52   S    
C48   H55   S    
C57   C76   A    
C86   H45   S    
C95   C99   A    
C81   H68   S    
C29   C33   A    
C94   C111  A    
Cr4   O8    S    
C128  O23   A    
C36   C47   S    
C26   C126  A    
C91   C96   A    
C55   C74   A    
C117  H22   S    
C108  H5    S    
C20   O4    A    
C128  O33   A    
C81   C86   A    
C59   H62   S    
C99   C121  A    
Cr1   O9    S    
C42   H83   S    
C14   O46   A    
C22   C130  S    
C26   C71   S    
C130  C134  A    
C107  C124  A    
C16   O43   A    
C73   C81   A    
Cr2   O28   S    
C27   C31   A    
C28   C32   A    
C62   C66   A    
C58   C70   A    
C98   C102  A    
C75   C76   A    
Cr6   O38   S    
C117  H18   S    
C1    C29   S    
Cr4   O35   S    
C109  H6    S    
C7    C132  A    
C84   H70   S    
C18   C122  S    
C104  H23   S    
C5    C130  A    
C6    H29   S    
Cr3   O3    S    
C5    H28   S    
C103  C121  A    
C87   H56   S    
C45   H46   S    
C56   C73   A    
Cr7   O17   S    
C84   C88   A    
C4    C5    A    
C18   O2    A    
C6    C7    A    
Cr5   O10   S    
Cr8   O44   S    
Cr11  O26   S    
C16   O48   A    
C44   H44   S    
C45   C50   S    
C67   H61   S    
C3    C11   S    
C15   C91   S    
C42   H81   S    
C61   C65   A    
C88   C89   A    
C62   H64   S    
C31   C36   A    
C43   C47   S    
C76   C85   A    
C71   O17   A    
C129  O34   A    
C44   C48   S    
C21   O5    A    
C23   O38   A    
C58   C128  S    
Cr5   O41   S    
C89   H78   S    
Cr9   O49   S    
C19   C123  S    
C34   C51   A    
C31   C43   S    
Cr7   O39   S    
C39   H71   S    
C120  H21   S    
C113  H15   S    
C53   C104  A    
C118  H19   S    
C127  O32   A    
C3    C136  A    
C110  H7    S    
C17   O52   A    
C46   H53   S    
C82   C126  A    
C4    H27   S    
Cr9   O24   S    
Cr8   O45   S    
C34   C46   S    
C20   O51   A    
Cr3   O11   S    
C114  C119  S    
C36   C52   A    
C37   C53   A    
C66   C67   A    
Cr3   O33   S    
C41   H80   S    
Cr4   O30   S    
C92   C97   A    
Cr5   O12   S    
C30   C34   A    
C40   H75   S    
C8    C134  S    
C79   O25   A    
C116  H13   S    
C80   O30   A    
C56   C68   A    
Cr8   O22   S    
Cr11  O21   S    
C13   H42   S    
C116  C120  S    
C47   H54   S    
C99   C117  S    
C28   C49   S    
C114  H16   S    
C132  C136  A    
C52   C93   A    
C55   C69   A    
C32   C37   A    
C25   O39   A    
C42   C50   S    
C9    C135  S    
C22   O37   A    
C120  H26   S    
Cr2   O32   S    
C26   C30   A    
Cr3   O29   S    
C83   H66   S    
C35   H49   S    
C105  C109  A    
C23   O7    A    
C107  C111  A    
Cr9   O19   S    
C55   C127  S    
C134  C135  A    
C65   H59   S    
C126  H40   S    
C90   C108  A    
C92   C110  A    
C18   O49   A    
C96   C100  A    
Cr5   O15   S    
Cr9   O10   S    
C20   C124  S    
C82   H1    S    
C10   C11   S    
C77   O27   A    
C78   O28   A    
C33   C38   A    
C97   C114  S    
C25   C132  S    
C17   O45   A    
C83   C87   A    
C16   C90   S    
C88   H67   S    
C73   C74   A    
C115  H34   S    
Cr11  O48   S    
C105  H2    S    
C6    C133  A    
C95   C112  S    
C112  C117  S    
Cr1   O36   S    
C102  C124  A    
C94   C98   A    
C24   C29   A    
C71   O21   A    
C21   O36   A    
C68   C69   A    
C13   C28   A    
C2    C27   A    
Cr5   O37   S    
Cr10  O50   S    
C35   H47   S    
C27   C60   S    
Cr7   O43   S    
C12   C94   S    
C52   C78   S    
C54   C80   S    
C41   H77   S    
C112  H9    S    
C127  O12   A    
Cr12  O5    S    
C85   C89   A    
C86   C87   A    
C64   H58   S    
C7    H30   S    
C40   H74   S    
C93   H12   S    
C51   C77   S    
Cr11  O51   S    
C38   C54   A    
C118  H24   S    
C54   C115  A    
C125  O31   A    
C56   C125  S    
C13   C104  A    
C49   O15   A    
C42   H82   S    
C17   C121  S    
C79   O29   A    
C116  H17   S    
Cr2   O2    S    
C100  C118  S    
Cr12  O27   S    
C102  C120  S    
Cr8   O18   S    
C106  H3    S    
C12   O40   A    
C19   O3    A    
C9    H37   S    
Cr7   O34   S    
C78   O24   A    
C64   C65   A    
C119  H25   S    
C8    H31   S    
C15   O47   A    
C43   H50   S    
C57   C72   A    
C75   C84   A    
C49   O19   A    
Cr10  O20   S    
Cr4   O4    S    
C10   H33   S    
C39   H73   S    
C35   C46   S    
C119  H20   S    
C22   O6    A    
C40   C47   S    
C41   H79   S    
Cr9   O46   S    
C14   O41   A    
C2    H41   S    
C12   O44   A    
C59   C64   A    
C101  C123  A    
C30   C35   S    
C40   H76   S    
C11   H39   S    
C57   C129  S    
C53   C79   S    
C10   C136  S    
C131  C135  A    
C1    O14   A    
Cr6   O11   S    
C66   H60   S    
C61   H63   S    
C85   H69   S    
C10   H38   S    
C8    C9    S    
C106  C123  A    
C105  C122  A    
C103  C108  A    
C113  H10   S    
C111  H8    S    
Cr6   O42   S    
C129  O35   A    
C8    H36   S    
Cr8   O9    S    
Cr1   O40   S    
C58   C75   A    
C4    C131  A    
C63   C67   A    
C23   C133  S    
Cr3   O7    S    
Cr4   O13   S    
C101  C119  S    
C39   H72   S    
C11   H35   S    
C1    O18   A    
C25   O8    A    
Cr6   O23   S    
Cr7   O13   S    
C43   H48   S    
C3    C133  A    
Cr10  O11   S    
C15   O42   A    
C98   C116  S    
C63   C70   A    
C32   C44   S    
C62   C72   A    
C63   H65   S    
C37   C48   S    
C51   C82   A    
C14   C92   S    
C9    H32   S    
C44   H51   S    
C39   C46   S    
C107  H4    S    
C59   C69   A    
C60   O16   A    
Cr6   O16   S    
Cr12  O9    S    
Cr1   O1    S    
Cr10  O47   S    
C106  C110  A    
C103  H84   S    
C19   O50   A    
Cr12  O52   S    
C2    C93   A    
C77   O22   A    
Cr2   O10   S    
C38   C50   S    
C112  H14   S    
C91   C109  A    
Cr1   O14   S    
C61   C68   A    
C21   C131  S    
C41   C48   S    
Cr2   O6    S    
C24   H43   S    
C100  C122  A    
Cr12  O31   S    
C96   C113  S    
C114  H11   S    
C125  O1    A    
C113  C118  S    
C50   H57   S    
C80   O26   A    
Cr11  O13   S    
C24   C115  A    
C60   O20   A    
Cr10  O25   S    
C70   C72   A    
C97   C101  A    
