data_mof_unit_18537.cif
_audit_creation_date              2012-12-11T15:12:04-0500
_audit_creation_method            fapswitch 2.2
_symmetry_space_group_name_H-M    P1
_symmetry_Int_Tables_number       1
_space_group_crystal_system       triclinic
_cell_length_a                    8.220418
_cell_length_b                    17.366393
_cell_length_c                    19.059041
_cell_angle_alpha                 94.33804
_cell_angle_beta                  94.459699
_cell_angle_gamma                 95.356987
_cell_volume                      2691.32856235

loop_
_atom_site_label
_atom_site_type_symbol
_atom_type_description
_atom_site_fract_x
_atom_site_fract_y
_atom_site_fract_z
_atom_type_partial_charge
Ba1   Ba    Ba6+2 0.157360 0.537160 0.466280 1.630790
Ba2   Ba    Ba6+2 0.652820 0.462830 0.533660 1.628147
C1    C     C_3   0.404528 0.733225 0.202101 -0.394881
C2    C     C_3   0.410516 0.707336 0.276608 0.344551
C3    C     C_3   0.538997 0.696592 0.634622 0.312945
C4    C     C_3   0.563200 0.783826 0.653215 -0.397463
C5    C     C_3   0.875311 0.246916 0.686327 0.359003
C6    C     C_3   0.838060 0.164181 0.705692 -0.375778
C7    C     C_3   0.405710 0.290608 0.725398 0.375453
C8    C     C_3   0.429316 0.265544 0.800531 -0.203628
C9    C     C_R   0.705268 0.723941 0.477566 -0.286492
C10   C     C_R   0.859363 0.747152 0.511990 0.060225
C11   C     C_R   0.917310 0.826957 0.519647 -0.122731
C12   C     C_3   0.899261 0.749320 0.317261 0.360878
C13   C     C_R   0.819904 0.882839 0.492422 -0.004356
C14   C     C_R   0.662723 0.857557 0.458968 -0.138422
C15   C     C_R   0.605733 0.778133 0.452083 0.015281
C16   C     C_R   0.889224 0.173771 0.483649 -0.118454
C17   C     C_R   0.946865 0.253627 0.491431 0.063434
C18   C     C_R   0.196513 0.223116 0.555045 0.007319
C19   C     C_R   0.139415 0.143705 0.548247 -0.140671
C20   C     C_R   0.983985 0.118210 0.513167 -0.001499
C21   C     C_1   0.925756 0.035161 0.505610 -0.006920
C22   C     C_1   0.878397 0.965855 0.499746 -0.010282
C23   C     C_3   0.844611 0.824056 0.288339 -0.249758
C24   C     C_R   0.097116 0.277297 0.529295 -0.288917
C25   C     C_R   0.613677 0.533876 0.298596 -0.287996
C26   C     C_R   0.462013 0.493167 0.276563 0.066653
C27   C     C_R   0.407981 0.484118 0.204477 -0.121821
C28   C     C_R   0.506575 0.515196 0.153964 -0.015552
C29   C     C_R   0.662531 0.553915 0.177277 -0.144341
C30   C     C_R   0.716683 0.561662 0.249324 0.015449
C31   C     C_R   0.479710 0.565948 0.033712 -0.078035
C32   C     C_R   0.426680 0.556902 0.961708 -0.077599
C33   C     C_R   0.342589 0.486646 0.930825 0.061009
C34   C     C_3   0.773848 0.371913 0.320428 0.313078
C35   C     C_R   0.310959 0.426020 0.974330 -0.080686
C36   C     C_R   0.363496 0.435214 0.046570 -0.077741
C37   C     C_R   0.449139 0.505268 0.077186 0.064440
C38   C     C_R   0.136896 0.437334 0.827400 -0.138280
C39   C     C_R   0.088135 0.431345 0.754675 0.016045
C40   C     C_R   0.342701 0.503753 0.732931 0.037372
C41   C     C_R   0.392483 0.510192 0.805171 -0.121968
C42   C     C_R   0.290820 0.476704 0.853476 -0.010501
C43   C     C_R   0.194437 0.461756 0.707897 -0.276510
C44   C     C_3   0.754998 0.351386 0.240998 -0.398933
C45   C     C_3   0.030602 0.624203 0.678563 0.311469
C46   C     C_3   0.055990 0.643690 0.758089 -0.399050
C47   C     C_3   0.268727 0.305239 0.381230 0.317253
C48   C     C_3   0.246257 0.217910 0.362670 -0.401034
H1    H     H_    0.323418 0.654558 0.276631 0.100945
H2    H     H_    0.655902 0.303385 0.227343 0.123291
H3    H     H_    0.723622 0.402178 0.212933 0.065828
H4    H     H_    0.871817 0.332993 0.222991 0.123653
H5    H     H_    0.143176 0.603783 0.659144 0.004880
H6    H     H_    0.928224 0.577704 0.667066 0.078046
H7    H     H_    0.165272 0.686432 0.771330 0.128534
H8    H     H_    0.074456 0.590848 0.785476 0.067232
H9    H     H_    0.946370 0.668625 0.777312 0.123597
H10   H     H_    0.150043 0.325170 0.394028 0.008460
H11   H     H_    0.360005 0.318032 0.427679 0.068207
H12   H     H_    0.276225 0.739715 0.182556 0.128453
H13   H     H_    0.151637 0.203357 0.317588 0.121319
H14   H     H_    0.206775 0.187435 0.408330 0.065912
H15   H     H_    0.363926 0.197252 0.348017 0.124602
H16   H     H_    0.536463 0.692893 0.290902 -0.050388
H17   H     H_    0.452592 0.689021 0.166293 0.078282
H18   H     H_    0.659058 0.676448 0.623169 0.017787
H19   H     H_    0.451118 0.684779 0.586857 0.057508
H20   H     H_    0.652763 0.797691 0.700194 0.124423
H21   H     H_    0.610489 0.813526 0.608343 0.064160
H22   H     H_    0.444512 0.805599 0.664847 0.124222
H23   H     H_    0.480719 0.789383 0.201310 0.111719
H24   H     H_    0.733629 0.839054 0.314094 0.070809
H25   H     H_    0.812027 0.251936 0.633467 0.087606
H26   H     H_    0.009730 0.258145 0.684004 -0.065814
H27   H     H_    0.703563 0.148552 0.702718 0.147226
H28   H     H_    0.892329 0.123388 0.668598 0.073172
H29   H     H_    0.890645 0.158646 0.760238 0.106670
H30   H     H_    0.275419 0.300376 0.713369 -0.080018
H31   H     H_    0.482741 0.346333 0.723606 0.083304
H32   H     H_    0.423835 0.317189 0.838162 0.052272
H33   H     H_    0.553219 0.245614 0.809924 0.139275
H34   H     H_    0.994734 0.762850 0.362071 0.084573
H35   H     H_    0.772862 0.155017 0.453862 0.084251
H36   H     H_    0.585155 0.899215 0.438426 0.071985
H37   H     H_    0.216870 0.102052 0.568875 0.070614
H38   H     H_    0.036148 0.845393 0.547430 0.083845
H39   H     H_    0.660107 0.663067 0.472570 0.072877
H40   H     H_    0.142201 0.338183 0.534441 0.070102
H41   H     H_    0.509055 0.542421 0.823497 0.076739
H42   H     H_    0.450176 0.605526 0.930331 0.060498
H43   H     H_    0.543052 0.621013 0.055550 0.059553
H44   H     H_    0.790744 0.719773 0.338790 -0.074909
H45   H     H_    0.289736 0.452478 0.188002 0.081388
H46   H     H_    0.248493 0.370845 0.952221 0.058489
H47   H     H_    0.339923 0.386794 0.078183 0.058127
H48   H     H_    0.052751 0.414454 0.863437 0.072675
H49   H     H_    0.743603 0.575785 0.139612 0.074635
H50   H     H_    0.156141 0.458029 0.652021 0.062621
H51   H     H_    0.655771 0.539828 0.354129 0.070598
H52   H     H_    0.807253 0.814188 0.230769 0.118753
H53   H     H_    0.655695 0.387655 0.337957 0.008853
H54   H     H_    0.869324 0.421703 0.332515 0.064513
O1    O     O_2   0.143190 0.684560 0.534150 -0.455867
O2    O     O_3   0.322403 0.340952 0.322714 -0.636515
O3    O     O_3   0.960778 0.702293 0.263747 -0.608922
O4    O     O_2   0.667110 0.315390 0.465830 -0.459141
O5    O     O_3   0.927950 0.409760 0.464380 -0.494841
O6    O     O_3   0.437660 0.360670 0.591630 -0.480347
O7    O     O_3   0.818133 0.306848 0.353204 -0.636448
O8    O     O_3   0.379150 0.537830 0.583060 -0.475651
O9    O     O_3   0.857920 0.398470 0.626650 -0.486898
O10   O     O_2   0.752044 0.442540 0.750669 -0.490532
O11   O     O_3   0.819098 0.298443 0.737327 -0.601135
O12   O     O_3   0.882350 0.590230 0.535560 -0.493279
O13   O     O_3   0.431150 0.462160 0.416880 -0.487770
O14   O     O_2   0.634060 0.535220 0.669530 -0.459020
O15   O     O_3   0.478001 0.660437 0.691948 -0.642450
O16   O     O_2   0.534392 0.224366 0.546872 -0.489447
O17   O     O_3   0.455939 0.234194 0.677072 -0.612378
O18   O     O_3   0.372640 0.639320 0.408320 -0.486539
O19   O     O_2   0.263908 0.774519 0.449705 -0.490898
O20   O     O_3   0.995406 0.691358 0.646937 -0.637480
O21   O     O_3   0.367310 0.766992 0.323504 -0.609143
O22   O     O_2   0.176230 0.464730 0.330450 -0.466808
O23   O     O_3   0.952380 0.601530 0.373300 -0.481805
O24   O     O_2   0.059274 0.562014 0.248208 -0.495165
P1    P     P_3+3 0.970290 0.672580 0.555000 0.987882
P2    P     P_3+3 0.347000 0.441860 0.341200 0.984543
P3    P     P_3+3 0.923986 0.604916 0.281862 0.951804
P4    P     P_3+3 0.840010 0.327410 0.444950 0.985497
P5    P     P_3+3 0.879447 0.393393 0.718356 0.941695
P6    P     P_3+3 0.401745 0.740802 0.409917 0.946994
P7    P     P_3+3 0.455938 0.559885 0.671298 0.947890
P8    P     P_3+3 0.405974 0.259461 0.591546 0.939091
C49   C     C_3   0.297382 0.202294 0.817021 -0.210625
C50   C     C_3   0.302901 0.124947 0.772816 -0.150941
C51   C     C_3   0.202866 0.058589 0.802877 -0.456493
H55   H     H_    0.255906 0.049531 0.856674 0.135571
H56   H     H_    0.073626 0.071317 0.805523 0.134680
H57   H     H_    0.204969 0.004273 0.768390 0.129851
H58   H     H_    0.251861 0.129813 0.717783 0.136182
H59   H     H_    0.431688 0.110511 0.771757 0.130466
H60   H     H_    0.318140 0.193103 0.874012 0.108623
H61   H     H_    0.173920 0.222938 0.808472 0.106140
C52   C     C_3   0.974770 0.894036 0.303642 -0.213453
C53   C     C_3   0.110901 0.891276 0.253323 -0.165676
C54   C     C_3   0.250870 0.954546 0.275564 -0.412153
H62   H     H_    0.205076 0.012766 0.276009 0.126600
H63   H     H_    0.307195 0.946239 0.329028 0.147636
H64   H     H_    0.346513 0.951533 0.237661 0.122304
H65   H     H_    0.160017 0.834170 0.252914 0.190304
H66   H     H_    0.059994 0.898945 0.198818 0.105442
H67   H     H_    0.914227 0.947994 0.297020 0.110065
H68   H     H_    0.027186 0.896951 0.359492 0.122103

loop_
_geom_bond_atom_site_label_1
_geom_bond_atom_site_label_2
_ccdc_geom_bond_type
O21   P6    S    
C6    H28   S    
C19   H37   S    
Ba2   O5    S    
C48   H14   S    
O6    P8    S    
C52   C53   S    
C12   H34   S    
C39   P5    S    
Ba2   O14   S    
C5    C6    S    
C4    H22   S    
C10   C11   A    
Ba2   O8    S    
C31   C37   A    
C47   H10   S    
C2    O21   S    
C3    O15   S    
C34   H53   S    
C49   H60   S    
C26   C27   A    
C33   C35   A    
C35   C36   A    
C23   H24   S    
Ba1   P1    S    
C50   H58   S    
C54   H63   S    
Ba1   O8    S    
C38   H48   S    
C28   C29   A    
Ba2   O9    S    
C23   H52   S    
O22   P2    D    
C13   C14   A    
C44   H2    S    
C8    H33   S    
C44   H3    S    
O2    P2    S    
C32   C33   A    
C5    O11   S    
C17   C24   A    
Ba1   O18   S    
O18   P6    S    
C3    H19   S    
Ba1   O5    S    
Ba2   O12   S    
C9    C15   A    
O12   P1    S    
C45   C46   S    
C14   C15   A    
O20   P1    S    
C6    H29   S    
Ba2   P4    S    
C21   C22   T    
C34   C44   S    
Ba1   O12   S    
C29   H49   S    
C52   H67   S    
C7    C8    S    
C12   C23   S    
O9    P5    S    
C19   C20   A    
C14   H36   S    
C48   H13   S    
C53   H66   S    
O5    P4    S    
C36   H47   S    
Ba2   O13   S    
C3    H18   S    
O23   P3    S    
C4    H21   S    
C16   H35   S    
C47   H11   S    
C10   P1    S    
C2    H1    S    
C49   H61   S    
C46   H7    S    
C36   C37   A    
C53   C54   S    
O3    P3    S    
Ba1   P2    S    
C54   H64   S    
C27   H45   S    
C16   C17   A    
C5    H25   S    
O19   P6    D    
C25   H51   S    
C41   H41   S    
C35   H46   S    
C40   P7    S    
O16   P8    D    
C40   C43   A    
C41   C42   A    
C27   C28   A    
C52   H68   S    
C9    H39   S    
C7    O17   S    
C29   C30   A    
C9    C10   A    
C44   H4    S    
C34   O7    S    
O15   P7    S    
C31   C32   A    
C23   C52   S    
C13   C22   S    
C18   P8    S    
O13   P2    S    
C33   C42   S    
C5    H26   S    
C38   C39   A    
C8    C49   S    
C11   C13   A    
Ba1   O22   S    
C6    H27   S    
C40   C41   A    
O8    P7    S    
C1    C2    S    
O24   P3    D    
C12   O3    S    
C15   P6    S    
C46   H9    S    
C45   H5    S    
C1    H12   S    
C17   P4    S    
C4    H20   S    
Ba2   O6    S    
C25   C30   A    
C16   C20   A    
C1    H17   S    
Ba1   O23   S    
C43   H50   S    
C31   H43   S    
O1    P1    D    
C51   H55   S    
C46   H8    S    
C47   O2    S    
C24   H40   S    
O11   P5    S    
C49   C50   S    
C34   H54   S    
C50   H59   S    
C54   H62   S    
C2    H16   S    
C51   H56   S    
C45   O20   S    
C3    C4    S    
C18   C24   A    
Ba1   Ba2   S    
C11   H38   S    
Ba2   O4    S    
C51   H57   S    
O10   P5    D    
C8    H32   S    
C28   C37   S    
C26   P2    S    
O17   P8    S    
C1    H23   S    
C48   H15   S    
C32   H42   S    
O4    P4    D    
C50   C51   S    
C12   H44   S    
O7    P4    S    
C38   C42   A    
C18   C19   A    
C47   C48   S    
C53   H65   S    
C7    H31   S    
C25   C26   A    
C39   C43   A    
C20   C21   S    
Ba1   O13   S    
C7    H30   S    
C30   P3    S    
O14   P7    D    
Ba1   O1    S    
C45   H6    S    
