data_mof_unit_39588.cif
_audit_creation_date              2013-03-05T16:00:52-0500
_audit_creation_method            fapswitch 2.2
_symmetry_space_group_name_H-M    P1
_symmetry_Int_Tables_number       1
_space_group_crystal_system       triclinic
_cell_length_a                    20.848676
_cell_length_b                    21.498642
_cell_length_c                    14.186863
_cell_angle_alpha                 90.680139
_cell_angle_beta                  88.933136
_cell_angle_gamma                 89.900546
_cell_volume                      6357.24807334

loop_
_atom_site_label
_atom_site_type_symbol
_atom_site_description
_atom_site_fract_x
_atom_site_fract_y
_atom_site_fract_z
_atom_type_partial_charge
O1    O     O_R   0.066090 0.433930 0.580280 -0.627208
O2    O     O_R   0.933910 0.566070 0.419720 -0.628283
O3    O     O_R   0.933910 0.566070 0.580280 -0.612658
O4    O     O_R   0.066090 0.433930 0.419720 -0.614998
O5    O     O_R   0.933910 0.433930 0.419720 -0.622601
O6    O     O_R   0.066090 0.566070 0.580280 -0.627382
O7    O     O_R   0.066090 0.566070 0.419720 -0.621242
O8    O     O_R   0.933910 0.433930 0.580280 -0.632609
O9    O     O_R   0.566090 0.933930 0.580280 -0.632303
O10   O     O_R   0.433910 0.066070 0.419720 -0.626608
O11   O     O_R   0.433910 0.066070 0.580280 -0.628047
O12   O     O_R   0.566090 0.933930 0.419720 -0.623956
O13   O     O_R   0.433910 0.933930 0.419720 -0.634594
O14   O     O_R   0.566090 0.066070 0.580280 -0.616346
O15   O     O_R   0.566090 0.066070 0.419720 -0.621882
O16   O     O_R   0.433910 0.933930 0.580280 -0.613463
C1    C     C_R   0.087160 0.413789 0.498822 0.896852
C2    C     C_R   0.913872 0.586847 0.501281 0.882631
C3    C     C_R   0.913685 0.412926 0.499709 0.894805
C4    C     C_R   0.085046 0.587741 0.499694 0.880128
C5    C     C_R   0.585626 0.912449 0.498940 0.891425
C6    C     C_R   0.413255 0.086835 0.501165 0.888145
C7    C     C_R   0.413401 0.913458 0.500402 0.893377
C8    C     C_R   0.586456 0.086509 0.500026 0.901559
Zn1   Zn    Zn3+2 1.000000 0.500000 0.607200 0.952647
Zn2   Zn    Zn3+2 1.000000 0.500000 0.392800 0.934554
Zn3   Zn    Zn3+2 0.500000 0.000000 0.607200 0.937358
Zn4   Zn    Zn3+2 0.500000 0.000000 0.392800 0.947377
C9    C     C_R   0.125237 0.686704 0.432379 0.157779
C10   C     C_R   0.867465 0.315377 0.431754 0.142850
C11   C     C_R   0.872831 0.687019 0.564875 0.152767
C12   C     C_R   0.136245 0.319044 0.428416 0.175845
C13   C     C_R   0.624724 0.188046 0.557451 0.179278
C14   C     C_R   0.366167 0.818044 0.567239 0.152617
C15   C     C_R   0.362135 0.181613 0.575151 0.147939
C16   C     C_R   0.625172 0.808837 0.442222 0.140575
C17   C     C_R   0.129192 0.639049 0.499180 -0.118308
C18   C     C_R   0.866530 0.363582 0.499798 -0.110715
C19   C     C_R   0.865331 0.634368 0.506399 -0.110088
C20   C     C_R   0.138324 0.368282 0.494047 -0.116138
C21   C     C_R   0.634506 0.134431 0.501886 -0.115120
C22   C     C_R   0.363724 0.866920 0.502813 -0.110083
C23   C     C_R   0.366849 0.137129 0.501599 -0.121119
C24   C     C_R   0.632150 0.862678 0.498310 -0.105954
C25   C     C_R   0.174199 0.640311 0.569729 -0.173316
C26   C     C_R   0.820615 0.364188 0.572033 -0.166105
C27   C     C_R   0.808361 0.622108 0.461047 -0.211285
C28   C     C_R   0.192077 0.378101 0.548936 -0.215294
C29   C     C_R   0.692218 0.122928 0.454865 -0.198416
C30   C     C_R   0.311747 0.873909 0.443812 -0.239309
C31   C     C_R   0.330077 0.142961 0.421255 -0.179792
C32   C     C_R   0.681484 0.868127 0.562145 -0.176621
C33   C     C_R   0.217609 0.688590 0.576989 -0.038719
C34   C     C_R   0.772147 0.319764 0.574095 -0.027398
C35   C     C_R   0.757522 0.664105 0.466259 -0.031914
C36   C     C_R   0.242841 0.335491 0.547075 -0.027459
C37   C     C_R   0.741991 0.166083 0.458121 -0.017732
C38   C     C_R   0.263966 0.828811 0.440622 -0.028966
C39   C     C_R   0.285093 0.190121 0.414385 -0.048754
C40   C     C_R   0.727752 0.822012 0.568941 -0.040217
C41   C     C_R   0.218634 0.733904 0.505008 -0.062797
C42   C     C_R   0.779560 0.266454 0.515243 -0.055723
C43   C     C_R   0.765282 0.719044 0.521235 -0.057168
C44   C     C_R   0.240413 0.285700 0.481000 -0.060407
C45   C     C_R   0.733211 0.219859 0.516347 -0.062327
C46   C     C_R   0.265226 0.780377 0.506974 -0.044245
C47   C     C_R   0.285904 0.238437 0.483106 -0.050368
C48   C     C_R   0.718712 0.765709 0.518149 -0.054308
C49   C     C_R   0.174351 0.731835 0.429752 0.069781
C50   C     C_R   0.832278 0.261279 0.451754 0.078315
C51   C     C_R   0.820196 0.727927 0.577754 0.062107
C52   C     C_R   0.191341 0.282186 0.414005 0.063768
C53   C     C_R   0.677080 0.228051 0.573334 0.071099
C54   C     C_R   0.311840 0.779933 0.577827 0.067586
C55   C     C_R   0.330504 0.237933 0.556729 0.075387
C56   C     C_R   0.663813 0.756777 0.462120 0.073349
C57   C     C_R   0.258075 0.693924 0.656083 0.447404
C58   C     C_R   0.718754 0.326034 0.636279 0.440891
C59   C     C_R   0.698311 0.651321 0.421877 0.441185
C60   C     C_R   0.296808 0.342359 0.606280 0.448988
C61   C     C_R   0.800865 0.155786 0.407835 0.446154
C62   C     C_R   0.216431 0.829841 0.371283 0.343969
C63   C     C_R   0.242249 0.192197 0.338087 0.431039
C64   C     C_R   0.780239 0.829369 0.629809 0.442125
C65   C     C_R   0.847992 0.202893 0.410228 0.002011
C66   C     C_R   0.179419 0.776349 0.356704 0.051204
C67   C     C_R   0.198927 0.242137 0.334653 0.049875
C68   C     C_R   0.821174 0.778450 0.643066 0.050393
C69   C     C_R   0.301278 0.743909 0.659194 0.032848
C70   C     C_R   0.674607 0.276725 0.642220 0.031703
C71   C     C_R   0.648893 0.696040 0.429636 0.017909
C72   C     C_R   0.342407 0.293639 0.608006 0.001746
H1    H     H_    0.173181 0.603417 0.620329 0.230171
H2    H     H_    0.821985 0.401242 0.623953 0.212877
H3    H     H_    0.804740 0.578548 0.423038 0.218578
H4    H     H_    0.192725 0.419031 0.593305 0.219005
H5    H     H_    0.696767 0.079772 0.415726 0.220016
H6    H     H_    0.310906 0.913340 0.397802 0.221927
H7    H     H_    0.336133 0.109044 0.365348 0.225160
H8    H     H_    0.683087 0.909501 0.605811 0.212558
C73   C     C_R   0.947570 0.522713 0.801038 0.242258
C74   C     C_R   0.052063 0.477397 0.198405 0.235088
C75   C     C_R   0.051074 0.477259 0.798826 0.199494
C76   C     C_R   0.948755 0.523522 0.201625 0.196278
C77   C     C_R   0.447731 0.978553 0.801049 0.244863
C78   C     C_R   0.551266 0.023852 0.199423 0.220036
C79   C     C_R   0.552378 0.021937 0.798736 0.210189
C80   C     C_R   0.449339 0.976075 0.200567 0.181174
N1    N     N_R   1.000000 0.500000 0.750030 -0.109669
N2    N     N_R   1.000000 0.500000 0.249970 -0.112060
N3    N     N_R   0.500000 0.000000 0.750030 -0.112952
N4    N     N_R   0.500000 0.000000 0.249970 -0.109900
C81   C     C_R   0.045026 0.466161 0.897452 -0.013962
C82   C     C_R   0.954356 0.534725 0.102590 -0.018683
C83   C     C_R   0.951400 0.533215 0.901408 -0.015299
C84   C     C_R   0.047812 0.467416 0.098059 -0.018551
C85   C     C_R   0.548140 0.032838 0.898969 -0.019296
C86   C     C_R   0.455207 0.965647 0.101224 -0.015086
C87   C     C_R   0.452138 0.968249 0.900765 -0.017840
C88   C     C_R   0.546093 0.034778 0.100329 -0.010678
C89   C     C_R   0.999091 0.500392 0.949803 -0.048138
C90   C     C_R   0.000278 0.500644 0.050011 -0.055984
C91   C     C_R   0.500180 0.000681 0.949976 -0.060221
C92   C     C_R   0.500393 0.000579 0.050217 -0.042770
C93   C     C_R   0.082560 0.421586 0.944547 0.183701
C94   C     C_R   0.915974 0.578674 0.055013 0.186703
C95   C     C_R   0.911410 0.575804 0.954557 0.209383
C96   C     C_R   0.086878 0.424243 0.044741 0.211721
C97   C     C_R   0.588527 0.075176 0.949667 0.201941
C98   C     C_R   0.418348 0.921108 0.052098 0.190359
C99   C     C_R   0.412878 0.925177 0.952384 0.212947
C100  C     C_R   0.584494 0.078291 0.050362 0.178051
C101  C     C_3   0.063949 0.694883 0.377173 -0.838653
H9    H     H_    0.021806 0.674157 0.413283 0.230788
H10   H     H_    0.051490 0.744859 0.371478 0.249458
H11   H     H_    0.068525 0.672493 0.306540 0.250801
C102  C     C_3   0.896050 0.325129 0.333919 -0.836002
H12   H     H_    0.876253 0.368390 0.303868 0.257095
H13   H     H_    0.948825 0.328429 0.335987 0.244814
H14   H     H_    0.882797 0.287706 0.283589 0.248019
C103  C     C_3   0.938877 0.703054 0.601869 -0.838870
H15   H     H_    0.943506 0.687694 0.675761 0.245379
H16   H     H_    0.977979 0.680266 0.560590 0.222925
H17   H     H_    0.948203 0.753660 0.595718 0.256086
C104  C     C_3   0.072801 0.300420 0.386334 -0.902877
H18   H     H_    0.033235 0.308318 0.438597 0.225861
H19   H     H_    0.063715 0.327823 0.322185 0.247153
H20   H     H_    0.071437 0.249973 0.369102 0.258472
C105  C     C_3   0.556680 0.206761 0.584477 -0.899007
H21   H     H_    0.521939 0.189485 0.531881 0.230653
H22   H     H_    0.543111 0.187541 0.654173 0.240633
H23   H     H_    0.551415 0.258086 0.584457 0.256165
C106  C     C_3   0.428948 0.801901 0.613886 -0.857787
H24   H     H_    0.469739 0.807346 0.563143 0.224375
H25   H     H_    0.436874 0.832505 0.676034 0.252137
H26   H     H_    0.430032 0.752565 0.635900 0.253550
C107  C     C_3   0.381006 0.165705 0.674828 -0.843145
H27   H     H_    0.433811 0.162708 0.680778 0.247925
H28   H     H_    0.362272 0.199951 0.727545 0.247516
H29   H     H_    0.359050 0.120711 0.695045 0.249091
C108  C     C_3   0.581637 0.809624 0.357623 -0.849327
H30   H     H_    0.530527 0.811751 0.380960 0.234945
H31   H     H_    0.593220 0.850170 0.312841 0.260194
H32   H     H_    0.589488 0.769384 0.309548 0.249535
S1    S     S_3+6 0.252340 0.640743 0.752616 0.004825
O17   O     O_2   0.303131 0.651276 0.824856 -0.289490
O18   O     O_2   0.187340 0.647719 0.799217 -0.315993
O19   O     O_3   0.260631 0.567516 0.712034 -0.518600
H33   H     H_    0.258310 0.541483 0.769097 0.409541
S2    S     S_3+6 0.704941 0.396832 0.701678 0.014120
O20   O     O_2   0.636833 0.402151 0.737429 -0.257125
O21   O     O_2   0.749360 0.398583 0.783937 -0.336005
O22   O     O_3   0.719987 0.458245 0.632147 -0.532040
H34   H     H_    0.725702 0.493905 0.676034 0.381599
S3    S     S_3+6 0.686509 0.580027 0.357580 0.009241
O23   O     O_2   0.737470 0.574614 0.281593 -0.338350
O24   O     O_2   0.693071 0.526565 0.424113 -0.267659
O25   O     O_3   0.614900 0.574957 0.305538 -0.548349
H35   H     H_    0.614045 0.532760 0.276766 0.399759
S4    S     S_3+6 0.306349 0.411886 0.675427 0.000509
O26   O     O_2   0.303099 0.466157 0.609876 -0.266515
O27   O     O_2   0.251758 0.415708 0.745755 -0.369825
O28   O     O_3   0.374891 0.417318 0.735551 -0.540606
H36   H     H_    0.372819 0.458521 0.767485 0.405867
S5    S     S_3+6 0.813700 0.085248 0.340890 0.016880
O29   O     O_2   0.877949 0.081557 0.291451 -0.272830
O30   O     O_2   0.807129 0.030694 0.405681 -0.262804
O31   O     O_3   0.757061 0.080565 0.258421 -0.602293
H37   H     H_    0.767326 0.042026 0.222231 0.389001
S6    S     S_3+6 0.199411 0.898459 0.307108 0.037230
O32   O     O_2   0.248215 0.905560 0.228907 -0.303124
O33   O     O_2   0.133672 0.895856 0.265525 -0.252623
O34   O     O_3   0.202639 0.960592 0.379917 -0.488555
H38   H     H_    0.171363 0.951612 0.431358 0.354844
S7    S     S_3+6 0.241308 0.132431 0.248832 0.020213
O35   O     O_2   0.300738 0.138299 0.187989 -0.326052
O36   O     O_2   0.240991 0.069698 0.294241 -0.232631
O37   O     O_3   0.176389 0.136504 0.180533 -0.539349
H39   H     H_    0.182769 0.103362 0.132149 0.402577
S8    S     S_3+6 0.796668 0.902176 0.686946 0.007058
O38   O     O_2   0.789957 0.954266 0.617964 -0.272170
O39   O     O_2   0.749339 0.911660 0.767066 -0.340680
O40   O     O_3   0.871521 0.904556 0.729009 -0.541545
H40   H     H_    0.874499 0.945277 0.762035 0.396095
C109  C     C_3   0.917218 0.188590 0.383401 -0.728553
H41   H     H_    0.932092 0.144029 0.415231 0.276975
H42   H     H_    0.923812 0.186605 0.305656 0.269570
H43   H     H_    0.950647 0.223731 0.412146 0.216971
C110  C     C_3   0.158417 0.761544 0.257178 -0.741440
H44   H     H_    0.191096 0.783458 0.204562 0.265845
H45   H     H_    0.161763 0.710823 0.242427 0.222933
H46   H     H_    0.109106 0.778573 0.244900 0.265295
C111  C     C_3   0.173820 0.262564 0.241017 -0.762064
H47   H     H_    0.208677 0.252043 0.182865 0.277923
H48   H     H_    0.126943 0.240737 0.225772 0.276708
H49   H     H_    0.169141 0.313734 0.242146 0.214305
C112  C     C_3   0.853370 0.771789 0.737180 -0.748107
H50   H     H_    0.825574 0.796091 0.794131 0.273070
H51   H     H_    0.854013 0.722317 0.757909 0.208114
H52   H     H_    0.902792 0.790680 0.735149 0.277380
C113  C     C_3   0.322024 0.769795 0.752947 -0.774772
H53   H     H_    0.283538 0.764855 0.807458 0.278359
H54   H     H_    0.366851 0.747278 0.776225 0.270560
H55   H     H_    0.328851 0.820544 0.747019 0.217563
C114  C     C_3   0.634465 0.269930 0.731448 -0.755575
H56   H     H_    0.660683 0.287605 0.793670 0.271670
H57   H     H_    0.588139 0.294980 0.726460 0.270586
H58   H     H_    0.625646 0.220343 0.745879 0.212616
C115  C     C_3   0.579382 0.675848 0.424719 -0.717366
H59   H     H_    0.572863 0.630269 0.459629 0.276256
H60   H     H_    0.547128 0.708716 0.463731 0.215426
H61   H     H_    0.563478 0.672359 0.350770 0.275594
C116  C     C_3   0.407349 0.304197 0.651147 -0.722915
H62   H     H_    0.428784 0.347679 0.623505 0.285729
H63   H     H_    0.403096 0.305704 0.729212 0.276868
H64   H     H_    0.442279 0.267687 0.630587 0.215396
C117  C     C_3   0.883340 0.525543 0.754518 -0.780480
H65   H     H_    0.880977 0.493093 0.694512 0.272146
H66   H     H_    0.845055 0.509404 0.803791 0.235705
H67   H     H_    0.872543 0.572997 0.729648 0.237369
C118  C     C_3   0.116346 0.474031 0.244530 -0.799000
H68   H     H_    0.119224 0.506869 0.304169 0.275498
H69   H     H_    0.126479 0.426540 0.269727 0.239557
H70   H     H_    0.154727 0.489272 0.194726 0.217940
C119  C     C_3   0.116843 0.475940 0.753725 -0.675337
H71   H     H_    0.153730 0.485959 0.807247 0.245710
H72   H     H_    0.127255 0.430118 0.721411 0.242693
H73   H     H_    0.121998 0.512426 0.700241 0.260439
C120  C     C_3   0.882898 0.525152 0.247412 -0.713697
H74   H     H_    0.845635 0.515336 0.194321 0.241835
H75   H     H_    0.877788 0.488502 0.300704 0.256418
H76   H     H_    0.872100 0.570858 0.280335 0.251380
C121  C     C_3   0.383319 0.976442 0.755119 -0.819331
H77   H     H_    0.381218 0.008552 0.695743 0.270958
H78   H     H_    0.372054 0.929069 0.729050 0.241385
H79   H     H_    0.345392 0.993148 0.805276 0.218353
C122  C     C_3   0.616761 0.024759 0.242414 -0.755855
H80   H     H_    0.621548 0.987112 0.294042 0.259058
H81   H     H_    0.654209 0.015692 0.187282 0.225135
H82   H     H_    0.627131 0.069894 0.276708 0.263459
C123  C     C_3   0.617165 0.023614 0.750014 -0.724528
H83   H     H_    0.620200 0.990402 0.691048 0.270159
H84   H     H_    0.628652 0.070583 0.723416 0.234456
H85   H     H_    0.654854 0.007959 0.798656 0.242982
C124  C     C_3   0.383990 0.971869 0.246439 -0.641364
H86   H     H_    0.378280 0.006033 0.304491 0.258158
H87   H     H_    0.346373 0.983279 0.194958 0.268581
H88   H     H_    0.375215 0.924658 0.273031 0.228604
C125  C     C_3   0.108678 0.365601 0.889774 -0.845456
H89   H     H_    0.091868 0.321907 0.922835 0.241279
H90   H     H_    0.089297 0.361637 0.817951 0.239377
H91   H     H_    0.161896 0.366885 0.886351 0.278678
C126  C     C_3   0.888793 0.634231 0.109543 -0.851818
H92   H     H_    0.904135 0.678161 0.075715 0.243421
H93   H     H_    0.835644 0.631595 0.113939 0.270909
H94   H     H_    0.908686 0.638930 0.180986 0.240133
C127  C     C_3   0.870133 0.622776 0.904007 -0.889111
H95   H     H_    0.826064 0.600419 0.877708 0.250902
H96   H     H_    0.852485 0.662201 0.947714 0.252925
H97   H     H_    0.898626 0.643678 0.845776 0.233198
C128  C     C_3   0.125713 0.375774 0.095121 -0.910802
H98   H     H_    0.169974 0.396586 0.123390 0.249960
H99   H     H_    0.094912 0.355374 0.151261 0.236939
H100  H     H_    0.142989 0.336235 0.051353 0.259860
C129  C     C_3   0.629371 0.121985 0.896351 -0.889001
H101  H     H_    0.645069 0.162738 0.937764 0.253401
H102  H     H_    0.674290 0.099997 0.869598 0.255148
H103  H     H_    0.600925 0.141088 0.838317 0.230475
C130  C     C_3   0.395267 0.863434 0.103302 -0.856779
H104  H     H_    0.411938 0.820906 0.065030 0.244395
H105  H     H_    0.417083 0.858372 0.173317 0.235435
H106  H     H_    0.342182 0.863525 0.110262 0.282690
C131  C     C_3   0.372664 0.877965 0.900503 -0.905706
H107  H     H_    0.353808 0.839308 0.943248 0.262847
H108  H     H_    0.329106 0.900160 0.872812 0.250737
H109  H     H_    0.403061 0.856451 0.844070 0.237827
C132  C     C_3   0.612943 0.133304 0.102984 -0.834553
H110  H     H_    0.597123 0.177543 0.071278 0.241712
H111  H     H_    0.594574 0.137856 0.176296 0.244816
H112  H     H_    0.666114 0.130233 0.102158 0.270422

loop_
_geom_bond_atom_site_label_1
_geom_bond_atom_site_label_2
_geom_bond_distance
_ccdc_geom_bond_type
C9    C101  1.522091 S    
O40   H40   0.990607 S    
C60   C72   1.414049 A    
S6    O32   1.500643 D    
C83   C89   1.411532 A    
O5    Zn2   2.015464 S    
O2    C2    1.296911 A    
C131  H107  1.103252 S    
C132  H110  1.109160 S    
C70   C114  1.513136 S    
C63   C67   1.403696 A    
C14   C22   1.402302 A    
C66   C110  1.516406 S    
C77   C121  1.504058 S    
C2    C19   1.437054 S    
C25   H1    1.076054 S    
C110  H46   1.108244 S    
C103  H16   1.105239 S    
C108  H30   1.110622 S    
O15   Zn4   2.018791 S    
C45   C53   1.419440 A    
C91   C92   1.422222 A    
S3    O24   1.503563 D    
S1    O17   1.502893 D    
C78   N4    1.379015 A    
C109  H41   1.110082 S    
O10   C6    1.299362 A    
C112  H52   1.108192 S    
C102  H13   1.103608 S    
O13   C7    1.296580 A    
C120  H74   1.110826 S    
C113  H53   1.110087 S    
C7    C22   1.441493 S    
C84   C90   1.411160 A    
C119  H73   1.101784 S    
C71   C115  1.516158 S    
C60   S4    1.791537 S    
C54   C69   1.411782 A    
C19   C27   1.385525 A    
C75   C81   1.425500 A    
C39   C63   1.417231 A    
C53   C70   1.423510 A    
C118  H68   1.098058 S    
C113  H55   1.104522 S    
C105  H22   1.108190 S    
C69   C113  1.506821 S    
C121  H77   1.096875 S    
C82   C94   1.421703 A    
C58   C70   1.407340 A    
S5    O30   1.503554 D    
O6    Zn1   2.015461 S    
C81   C93   1.417440 A    
S2    O20   1.502614 D    
C57   S1    1.796804 S    
C46   C54   1.411212 A    
C27   H3    1.078534 S    
C72   C116  1.512576 S    
C58   S2    1.793152 S    
C130  H106  1.109297 S    
C29   C37   1.394220 A    
C68   C112  1.513730 S    
C42   C50   1.411387 A    
O3    C2    1.287944 A    
C20   C28   1.391496 A    
C122  H80   1.103631 S    
O14   C8    1.290035 A    
C14   C54   1.405908 A    
C32   C40   1.387480 A    
C99   C131  1.510983 S    
C126  H93   1.110255 S    
C33   C41   1.419572 A    
C41   C46   1.395084 A    
C38   C46   1.412482 A    
C107  H27   1.107549 S    
C6    C23   1.449548 S    
S8    O38   1.503991 D    
C109  H43   1.108110 S    
C35   C43   1.418790 A    
C93   C96   1.426436 A    
C87   C99   1.435312 A    
C36   C44   1.416060 A    
O13   Zn4   2.015464 S    
C79   C85   1.439485 A    
O37   H39   0.990554 S    
O14   Zn3   2.015461 S    
C106  H25   1.108867 S    
C16   C56   1.412149 A    
C124  H86   1.101629 S    
Zn2   N2    2.026311 S    
C59   C71   1.409879 A    
S6    O34   1.681047 S    
C127  H96   1.102820 S    
Zn1   N1    2.026310 S    
C97   C100  1.430220 A    
C39   C47   1.416459 A    
C85   C97   1.436831 A    
C24   C32   1.387209 A    
O16   Zn3   2.018794 S    
C109  H42   1.109264 S    
C77   N3    1.379963 A    
C83   C95   1.435106 A    
Zn3   N3    2.026310 S    
S1    O18   1.503198 D    
C10   C102  1.517275 S    
C88   C100  1.419798 A    
C127  H95   1.106521 S    
C62   S6    1.781329 S    
O1    Zn1   2.005678 S    
C8    C21   1.438604 S    
C132  H111  1.104809 S    
C80   C124  1.502244 S    
C103  H15   1.108667 S    
C79   N3    1.383655 A    
C96   C128  1.512765 S    
C79   C123  1.506493 S    
C21   C29   1.385298 A    
C108  H32   1.105317 S    
C10   C50   1.405106 A    
C115  H59   1.110594 S    
S4    O27   1.501018 D    
O25   H35   0.990680 S    
S3    O25   1.680951 S    
C9    C49   1.412144 A    
C111  H48   1.108686 S    
C31   C39   1.385442 A    
C31   H7    1.076532 S    
C114  H57   1.108841 S    
C102  H14   1.108111 S    
C30   H6    1.076339 S    
O8    C3    1.301773 A    
C120  H75   1.102367 S    
C100  C132  1.518502 S    
C104  H19   1.109026 S    
C113  H54   1.109309 S    
C73   C117  1.505337 S    
C30   C38   1.392279 A    
C44   C47   1.389706 A    
C80   C86   1.427421 A    
O3    Zn1   2.021804 S    
C74   C84   1.441538 A    
C38   C62   1.409639 A    
C12   C52   1.404777 A    
C103  H17   1.109710 S    
C37   C45   1.422452 A    
C61   S5    1.796716 S    
C125  H90   1.105526 S    
C128  H99   1.108724 S    
S5    O31   1.680012 S    
C108  H31   1.109025 S    
C12   C104  1.513913 S    
C34   C42   1.416479 A    
C112  H50   1.110432 S    
O22   H34   0.990632 S    
O12   C5    1.292670 A    
C32   H8    1.078820 S    
C64   S8    1.790654 S    
S7    O35   1.503168 D    
C127  H97   1.108482 S    
C93   C125  1.519453 S    
O31   H37   0.990492 S    
C118  H69   1.107049 S    
C1    C20   1.446287 S    
C64   C68   1.403463 A    
C105  H23   1.108690 S    
C11   C103  1.521377 S    
C33   C57   1.420058 A    
O28   H36   0.990655 S    
C15   C107  1.517608 S    
C129  H101  1.102636 S    
C86   C98   1.414144 A    
C3    C18   1.447580 S    
C59   S3    1.793955 S    
C101  H11   1.108941 S    
C5    C24   1.442816 S    
C35   C59   1.421953 A    
C116  H64   1.102807 S    
C121  H78   1.106470 S    
S3    O23   1.502816 D    
C26   H2    1.079297 S    
O11   Zn3   2.021804 S    
C57   C69   1.404200 A    
C26   C34   1.391756 A    
C110  H44   1.110804 S    
C67   C111  1.506800 S    
C131  H109  1.108074 S    
O2    Zn2   2.005678 S    
C74   C118  1.504352 S    
C86   C92   1.401811 A    
C48   C56   1.417648 A    
C95   C127  1.520459 S    
C106  H26   1.109529 S    
C52   C67   1.415466 A    
C116  H63   1.109487 S    
C40   C48   1.416009 A    
C89   C90   1.422255 A    
C111  H47   1.110206 S    
C55   C72   1.418485 A    
C22   C30   1.390581 A    
C76   C82   1.430973 A    
O4    C1    1.291910 A    
C126  H94   1.105837 S    
C13   C53   1.410604 A    
O19   H33   0.990134 S    
C94   C126  1.518418 S    
C43   C51   1.421776 A    
O7    C4    1.290462 A    
O16   C7    1.291345 A    
C128  H98   1.106132 S    
C12   C20   1.402715 A    
C119  H72   1.101165 S    
C101  H9    1.105887 S    
C115  H60   1.110432 S    
C132  H112  1.110237 S    
C37   C61   1.423825 A    
C16   C24   1.406119 A    
C107  H28   1.108599 S    
C47   C55   1.411412 A    
C17   C25   1.384706 A    
C114  H58   1.103004 S    
C104  H18   1.110305 S    
C104  H20   1.109439 S    
C15   C23   1.408987 A    
S4    O26   1.502845 D    
O9    Zn3   2.005678 S    
C27   C35   1.391499 A    
C116  H62   1.109502 S    
C14   C106  1.519119 S    
O10   Zn4   2.005678 S    
C28   C36   1.398240 A    
C111  H49   1.104136 S    
C43   C48   1.396547 A    
O15   C8    1.295436 A    
C120  H76   1.104002 S    
S6    O33   1.503073 D    
C76   C120  1.508142 S    
C28   H4    1.076047 S    
C42   C45   1.393069 A    
C114  H56   1.110459 S    
C125  H91   1.110074 S    
C128  H100  1.102685 S    
C129  H103  1.106179 S    
C15   C55   1.407279 A    
C119  H71   1.110336 S    
C123  H85   1.109821 S    
O4    Zn2   2.021804 S    
S4    O28   1.681322 S    
S1    O19   1.677359 S    
O5    C3    1.290145 A    
C87   C91   1.411985 A    
C107  H29   1.109377 S    
C115  H61   1.107852 S    
O6    C4    1.294902 A    
C102  H12   1.109844 S    
O11   C6    1.293731 A    
O1    C1    1.297888 A    
C36   C60   1.423395 A    
S8    O40   1.681790 S    
C75   N1    1.373231 A    
C122  H82   1.103825 S    
C41   C49   1.424773 A    
C118  H70   1.110068 S    
C121  H79   1.110199 S    
C117  H66   1.109996 S    
C98   C99   1.425053 A    
C85   C91   1.410210 A    
C123  H84   1.107198 S    
C13   C21   1.401152 A    
C131  H108  1.105859 S    
C124  H87   1.110665 S    
C62   C66   1.401467 A    
C105  H21   1.110766 S    
O8    Zn1   2.018794 S    
C76   N2    1.378849 A    
C4    C17   1.437831 S    
C40   C64   1.414472 A    
O9    C5    1.296133 A    
S5    O29   1.501938 D    
C16   C108  1.518405 S    
O7    Zn2   2.018791 S    
C23   C31   1.392229 A    
C94   C95   1.430706 A    
C73   C83   1.442793 A    
C25   C33   1.382469 A    
C98   C130  1.518896 S    
C97   C129  1.518884 S    
C78   C122  1.505896 S    
C130  H105  1.106610 S    
C11   C19   1.406088 A    
C78   C88   1.434083 A    
C65   C109  1.515806 S    
C44   C52   1.410860 A    
C63   S7    1.793627 S    
C112  H51   1.106969 S    
S7    O36   1.501484 D    
C124  H88   1.101406 S    
C117  H65   1.096088 S    
C18   C26   1.389187 A    
C74   N2    1.381890 A    
C56   C71   1.416569 A    
C29   H5    1.078708 S    
C51   C68   1.419719 A    
C82   C90   1.402816 A    
S7    O37   1.681925 S    
C80   N4    1.375591 A    
C75   C119  1.502385 S    
C81   C89   1.403009 A    
O12   Zn4   2.021804 S    
C129  H102  1.107031 S    
O34   H38   0.990508 S    
C84   C96   1.433453 A    
C117  H67   1.107541 S    
C9    C17   1.407194 A    
C123  H83   1.094223 S    
C101  H10   1.109174 S    
C110  H45   1.109704 S    
C130  H104  1.109784 S    
C77   C87   1.439085 A    
C13   C105  1.515090 S    
S2    O21   1.503414 D    
C10   C18   1.407748 A    
C122  H81   1.110154 S    
C106  H24   1.111185 S    
C125  H89   1.109366 S    
C50   C65   1.415561 A    
C73   N1    1.384657 A    
Zn4   N4    2.026311 S    
S8    O39   1.503072 D    
C61   C65   1.412821 A    
C49   C66   1.421552 A    
C88   C92   1.403220 A    
C11   C51   1.412971 A    
C34   C58   1.412684 A    
S2    O22   1.683887 S    
C126  H92   1.109353 S    
