data_mof_unit_21110.cif
_audit_creation_date              2012-12-10T18:19:49-0500
_audit_creation_method            fapswitch 2.2
_symmetry_space_group_name_H-M    P1
_symmetry_Int_Tables_number       1
_space_group_crystal_system       triclinic
_cell_length_a                    14.806045
_cell_length_b                    14.299435
_cell_length_c                    14.043092
_cell_angle_alpha                 90.002143
_cell_angle_beta                  86.703456
_cell_angle_gamma                 90.004621
_cell_volume                      2968.25668357

loop_
_atom_site_label
_atom_site_type_symbol
_atom_type_description
_atom_site_fract_x
_atom_site_fract_y
_atom_site_fract_z
_atom_type_partial_charge
C1    C     C_R   0.327439 0.500326 0.499519 0.878242
C2    C     C_R   0.960346 0.523622 0.326573 -0.296018
C3    C     C_R   0.413365 0.111916 0.798850 -0.195043
C4    C     C_R   0.548138 0.798916 0.429350 0.039030
C5    C     C_R   0.439548 0.201318 0.559642 0.033875
C6    C     C_R   0.451868 0.798915 0.570654 0.039077
C7    C     C_R   0.560438 0.201323 0.440344 0.033879
C8    C     C_R   0.443144 0.899115 0.566095 -0.073202
C9    C     C_R   0.556293 0.100809 0.432885 -0.073007
C10   C     C_R   0.556855 0.899119 0.433901 -0.073205
C11   C     C_R   0.443692 0.100806 0.567103 -0.072993
C12   C     C_R   0.499997 0.949663 0.499997 0.035750
C13   C     C_R   0.672561 0.500332 0.500479 0.878274
C14   C     C_R   0.499996 0.050426 0.499997 0.039963
C15   C     C_R   0.382663 0.950374 0.628991 -0.045337
C16   C     C_R   0.609837 0.048722 0.363509 -0.049179
C17   C     C_R   0.617330 0.950386 0.371002 -0.045336
C18   C     C_R   0.390141 0.048716 0.636475 -0.049188
C19   C     C_R   0.499613 0.499772 0.329637 0.888575
C20   C     C_R   0.500388 0.499775 0.670363 0.888533
C21   C     C_1   0.498240 0.498280 0.228224 -0.194723
C22   C     C_1   0.501764 0.498289 0.771776 -0.194724
C23   C     C_1   0.498023 0.496151 0.142776 -0.024668
C24   C     C_R   0.953001 0.519783 0.500887 0.035143
C25   C     C_1   0.501983 0.496160 0.857224 -0.024641
C26   C     C_1   0.499261 0.494902 0.042769 -0.023606
C27   C     C_1   0.500747 0.494905 0.957230 -0.023605
C28   C     C_R   0.816950 0.515910 0.415092 -0.253041
C29   C     C_R   0.183053 0.515943 0.584900 -0.253043
C30   C     C_R   0.767931 0.503153 0.501012 -0.030225
C31   C     C_R   0.232070 0.503137 0.498984 -0.030168
C32   C     C_R   0.808330 0.503998 0.587778 -0.280094
C33   C     C_R   0.191672 0.503947 0.412217 -0.280074
C34   C     C_R   0.901643 0.515820 0.589515 0.070571
C35   C     C_R   0.047004 0.519781 0.499103 0.035139
C36   C     C_R   0.098361 0.515774 0.410477 0.070556
C37   C     C_R   0.895540 0.521633 0.771417 0.131795
C38   C     C_R   0.832095 0.592309 0.795038 -0.173515
C39   C     C_R   0.786141 0.593419 0.884925 -0.136850
C40   C     C_R   0.804003 0.524897 0.952286 -0.105540
C41   C     C_R   0.867958 0.455245 0.929958 -0.138238
C42   C     C_R   0.913725 0.453585 0.840017 -0.163204
C43   C     C_R   0.104469 0.521512 0.228581 0.131811
C44   C     C_R   0.167893 0.592202 0.204924 -0.173494
C45   C     C_R   0.213854 0.593275 0.115044 -0.136867
C46   C     C_R   0.910090 0.520550 0.413773 0.113318
C47   C     C_R   0.196022 0.524696 0.047730 -0.105523
C48   C     C_R   0.132093 0.455024 0.070098 -0.138311
C49   C     C_R   0.086316 0.453405 0.160031 -0.163237
C50   C     C_R   0.575190 0.750263 0.339153 0.183040
C51   C     C_R   0.655859 0.698457 0.328149 -0.061476
C52   C     C_R   0.683098 0.660347 0.239250 -0.168094
C53   C     C_R   0.630742 0.674379 0.160869 -0.113391
C54   C     C_R   0.550011 0.724843 0.171449 -0.149432
C55   C     C_R   0.522168 0.762509 0.260177 -0.165758
C56   C     C_R   0.360838 0.252080 0.604081 0.185880
C57   C     C_R   0.089914 0.520588 0.586216 0.113320
C58   C     C_R   0.365862 0.298609 0.691768 -0.059339
C59   C     C_R   0.288455 0.338307 0.736878 -0.168573
C60   C     C_R   0.204922 0.329115 0.696403 -0.133917
C61   C     C_R   0.199246 0.283723 0.608804 -0.133283
C62   C     C_R   0.276843 0.245304 0.562692 -0.151244
C63   C     C_R   0.424869 0.750279 0.660881 0.183023
C64   C     C_R   0.344224 0.698417 0.671946 -0.061459
C65   C     C_R   0.317041 0.660321 0.760873 -0.168093
C66   C     C_R   0.369423 0.674437 0.839227 -0.113323
C67   C     C_R   0.450129 0.724961 0.828588 -0.149422
C68   C     C_R   0.945378 0.520465 0.676489 -0.003735
C69   C     C_R   0.477920 0.762603 0.739830 -0.165813
C70   C     C_R   0.639122 0.252099 0.395854 0.185892
C71   C     C_R   0.634048 0.298589 0.308156 -0.059414
C72   C     C_R   0.711429 0.338292 0.262991 -0.168529
C73   C     C_R   0.794987 0.329140 0.303421 -0.134025
C74   C     C_R   0.800714 0.283785 0.391030 -0.133315
C75   C     C_R   0.723141 0.245364 0.437198 -0.151211
C76   C     C_R   0.301025 0.905413 0.676062 0.114242
C77   C     C_R   0.292052 0.893453 0.775685 -0.098240
C78   C     C_R   0.212362 0.856370 0.818627 -0.131598
C79   C     C_R   0.054628 0.520383 0.323503 -0.003746
C80   C     C_R   0.141578 0.829993 0.762649 -0.123157
C81   C     C_R   0.149958 0.841548 0.663715 -0.149727
C82   C     C_R   0.229059 0.879725 0.620531 -0.192939
C83   C     C_R   0.646114 0.091605 0.272689 0.116112
C84   C     C_R   0.739752 0.103534 0.253329 -0.095937
C85   C     C_R   0.772821 0.135898 0.164053 -0.129218
C86   C     C_R   0.712911 0.157051 0.093765 -0.124294
C87   C     C_R   0.619865 0.145054 0.112284 -0.150046
C88   C     C_R   0.586515 0.111793 0.201118 -0.195017
C89   C     C_R   0.698985 0.905455 0.323939 0.114239
C90   C     C_R   0.039660 0.523703 0.673415 -0.296060
C91   C     C_R   0.707961 0.893463 0.224315 -0.098210
C92   C     C_R   0.787674 0.856434 0.181374 -0.131599
C93   C     C_R   0.858480 0.830145 0.237354 -0.123151
C94   C     C_R   0.850098 0.841730 0.336290 -0.149708
C95   C     C_R   0.770973 0.879853 0.379472 -0.192946
C96   C     C_R   0.353806 0.091623 0.727265 0.116111
C97   C     C_R   0.260158 0.103513 0.746571 -0.095948
C98   C     C_R   0.227037 0.135947 0.835805 -0.129183
C99   C     C_R   0.286907 0.157219 0.906103 -0.124282
C100  C     C_R   0.379963 0.145262 0.887638 -0.150038
H1    H     H_    0.782363 0.518114 0.349258 0.126745
H2    H     H_    0.882052 0.402484 0.982357 0.117630
H3    H     H_    0.962967 0.399042 0.823634 0.115371
H4    H     H_    0.181715 0.646285 0.256090 0.129836
H5    H     H_    0.263103 0.647442 0.097467 0.122024
H6    H     H_    0.231488 0.525654 0.978152 0.111742
H7    H     H_    0.118027 0.402214 0.017738 0.117618
H8    H     H_    0.037093 0.398848 0.176446 0.115387
H9    H     H_    0.700101 0.692385 0.386389 0.143840
H10   H     H_    0.746429 0.622925 0.229963 0.119216
H11   H     H_    0.652676 0.646155 0.091888 0.121377
H12   H     H_    0.217640 0.518182 0.650735 0.126693
H13   H     H_    0.509351 0.735316 0.110711 0.124840
H14   H     H_    0.460247 0.802895 0.267027 0.117790
H15   H     H_    0.428536 0.299656 0.727756 0.133674
H16   H     H_    0.292661 0.373135 0.804917 0.128956
H17   H     H_    0.144621 0.357500 0.732771 0.125368
H18   H     H_    0.134576 0.277521 0.577151 0.133494
H19   H     H_    0.271283 0.208505 0.495872 0.117930
H20   H     H_    0.299956 0.692284 0.613730 0.143850
H21   H     H_    0.253736 0.622838 0.770202 0.119156
H22   H     H_    0.347532 0.646222 0.908229 0.121378
H23   H     H_    0.766139 0.495770 0.652815 0.145828
H24   H     H_    0.490810 0.735498 0.889304 0.124810
H25   H     H_    0.539820 0.803036 0.732935 0.117794
H26   H     H_    0.571352 0.299603 0.272205 0.133675
H27   H     H_    0.707184 0.373090 0.194944 0.129017
H28   H     H_    0.855268 0.357526 0.267010 0.125337
H29   H     H_    0.865403 0.277614 0.422648 0.133523
H30   H     H_    0.728740 0.208592 0.504024 0.117942
H31   H     H_    0.346567 0.913132 0.819805 0.135469
H32   H     H_    0.205848 0.847298 0.895217 0.124017
H33   H     H_    0.080266 0.800507 0.795920 0.127275
H34   H     H_    0.233861 0.495695 0.347180 0.145829
H35   H     H_    0.095033 0.821172 0.620489 0.134134
H36   H     H_    0.234362 0.889326 0.543913 0.131887
H37   H     H_    0.786861 0.086708 0.306978 0.130617
H38   H     H_    0.844867 0.144919 0.149531 0.119249
H39   H     H_    0.738603 0.182590 0.024890 0.121074
H40   H     H_    0.573604 0.160977 0.057590 0.125888
H41   H     H_    0.514417 0.101248 0.214105 0.130392
H42   H     H_    0.653432 0.913083 0.180191 0.135477
H43   H     H_    0.794191 0.847340 0.104783 0.124012
H44   H     H_    0.919812 0.800705 0.204085 0.127250
H45   H     H_    0.074084 0.526555 0.739535 0.144430
H46   H     H_    0.905042 0.821427 0.379516 0.134102
H47   H     H_    0.765670 0.889484 0.456089 0.131874
H48   H     H_    0.213080 0.086618 0.692908 0.130597
H49   H     H_    0.154983 0.144945 0.850283 0.119236
H50   H     H_    0.261174 0.182832 0.974939 0.121050
H51   H     H_    0.426194 0.161298 0.942333 0.125896
H52   H     H_    0.485472 0.101410 0.785904 0.130386
H53   H     H_    0.925924 0.526445 0.260452 0.144414
H54   H     H_    0.818251 0.646351 0.743836 0.129840
H55   H     H_    0.736872 0.647573 0.902471 0.122036
H56   H     H_    0.768543 0.525881 0.021869 0.111716
N1    N     N_R   0.500000 0.750030 0.500000 -0.132494
N2    N     N_R   0.500000 0.249970 0.500000 -0.131769
O1    O     O_R   0.367850 0.580280 0.500020 -0.630335
O2    O     O_R   0.632150 0.419720 0.499980 -0.597710
O3    O     O_R   0.632150 0.580280 0.499980 -0.630327
O4    O     O_R   0.367850 0.419720 0.500020 -0.597710
O5    O     O_R   0.500000 0.580290 0.373720 -0.585579
O6    O     O_R   0.500000 0.419710 0.626280 -0.616779
O7    O     O_R   0.500000 0.580290 0.626280 -0.585584
O8    O     O_R   0.500000 0.419710 0.373720 -0.616773
Zn1   Zn    Zn3+2 0.500000 0.607200 0.500000 0.933584
Zn2   Zn    Zn3+2 0.500000 0.392800 0.500000 0.933888

loop_
_geom_bond_atom_site_label_1
_geom_bond_atom_site_label_2
_ccdc_geom_bond_type
C94   H46   S    
C15   C18   A    
C87   C88   A    
C37   C68   S    
C11   C18   A    
C93   C94   A    
C83   C88   A    
C18   C96   S    
C41   C42   A    
C5    C56   S    
C35   C36   A    
C87   H40   S    
C43   C44   A    
C42   H3    S    
N1    Zn1   S    
C7    C70   S    
C81   C82   A    
C44   H4    S    
N2    Zn2   S    
C7    N2    A    
C53   C54   A    
C2    C46   A    
C20   O7    A    
C28   C46   A    
C26   C27   T    
C19   C21   S    
C9    C16   A    
C5    C11   A    
C90   H45   S    
C85   C86   A    
C38   C39   A    
C11   C14   A    
C78   C80   A    
C48   H7    S    
C10   C17   A    
C43   C79   S    
C20   O6    A    
C54   H13   S    
C97   C98   A    
C1    C31   S    
C33   C36   A    
C41   H2    S    
C77   H31   S    
C23   C26   S    
C37   C42   A    
C92   H43   S    
C78   H32   S    
C2    C79   A    
C29   H12   S    
C28   H1    S    
C47   C48   A    
C59   H16   S    
C16   C17   A    
C22   C25   T    
C68   C90   A    
C66   H22   S    
C71   H26   S    
C3    C96   A    
C19   O8    A    
C65   H21   S    
C89   C91   A    
C13   O2    A    
C75   H30   S    
C72   C73   A    
C91   H42   S    
C53   H11   S    
C15   C76   S    
C69   H25   S    
C59   C60   A    
O7    Zn1   S    
C67   H24   S    
O8    Zn2   S    
C32   H23   S    
C94   C95   A    
O1    Zn1   S    
C33   H34   S    
C45   H5    S    
C81   H35   S    
C49   H8    S    
C45   C47   A    
C100  H51   S    
C99   H50   S    
C24   C35   A    
C57   C90   A    
C29   C57   A    
C72   H27   S    
C51   C52   A    
C63   C69   A    
C13   C30   S    
C1    O1    A    
C17   C89   S    
C76   C77   A    
C3    C100  A    
C34   C68   A    
C91   C92   A    
C86   C87   A    
C43   C49   A    
C52   H10   S    
C6    C8    A    
C8    C15   A    
C58   C59   A    
C77   C78   A    
C4    N1    A    
C24   C34   A    
C80   H33   S    
C4    C50   S    
C60   C61   A    
C67   C69   A    
C32   C34   A    
C6    C63   S    
C89   C95   A    
O5    Zn1   S    
C9    C14   A    
C37   C38   A    
C83   C84   A    
O6    Zn2   S    
C8    C12   A    
C47   H6    S    
C96   C97   A    
C31   C33   A    
C50   C51   A    
C3    H52   S    
C95   H47   S    
C60   H17   S    
C19   O5    A    
C84   C85   A    
C62   H19   S    
O3    Zn1   S    
C93   H44   S    
C10   C12   A    
C86   H39   S    
O4    Zn2   S    
C48   C49   A    
C20   C22   S    
C1    O4    A    
C5    N2    A    
C2    H53   S    
C21   C23   T    
C58   H15   S    
C97   H48   S    
C56   C62   A    
C38   H54   S    
C4    C10   A    
C73   C74   A    
C88   H41   S    
C39   C40   A    
C6    N1    A    
C52   C53   A    
C7    C9    A    
C54   C55   A    
C40   C41   A    
C61   H18   S    
C44   C45   A    
C12   C14   A    
C80   C81   A    
C36   C79   A    
C84   H37   S    
C13   O3    A    
C55   H14   S    
C25   C27   S    
C73   H28   S    
C50   C55   A    
C64   H20   S    
C99   C100  A    
C35   C57   A    
C24   C46   A    
C64   C65   A    
C28   C30   A    
C71   C72   A    
C29   C31   A    
C30   C32   A    
C76   C82   A    
C92   C93   A    
C98   C99   A    
C56   C58   A    
C66   C67   A    
O2    Zn2   S    
C82   H36   S    
C61   C62   A    
C70   C71   A    
C63   C64   A    
C74   C75   A    
C51   H9    S    
C65   C66   A    
C74   H29   S    
C39   H55   S    
C70   C75   A    
C40   H56   S    
C16   C83   S    
C85   H38   S    
C98   H49   S    
