data_mof_unit_41502.cif
_audit_creation_date              2012-12-10T17:35:40-0500
_audit_creation_method            fapswitch 2.2
_symmetry_space_group_name_H-M    P1
_symmetry_Int_Tables_number       1
_space_group_crystal_system       triclinic
_cell_length_a                    10.839339
_cell_length_b                    12.389302
_cell_length_c                    13.794117
_cell_angle_alpha                 117.500257
_cell_angle_beta                  75.767036
_cell_angle_gamma                 100.80551
_cell_volume                      1586.78922504

loop_
_atom_site_label
_atom_site_type_symbol
_atom_type_description
_atom_site_fract_x
_atom_site_fract_y
_atom_site_fract_z
_atom_type_partial_charge
C1    C     C_R   0.519643 0.854450 0.287300 0.779064
C2    C     C_3   0.123227 0.988887 0.488952 -0.027485
C3    C     C_3   0.061985 0.089901 0.600816 -0.564843
C4    C     C_3   0.050147 0.859208 0.467815 0.282997
C5    C     C_R   0.405791 0.280425 0.028233 -0.026588
C6    C     C_R   0.463914 0.232578 0.831893 -0.113700
C7    C     C_R   0.544627 0.828733 0.092827 -0.229319
C8    C     C_R   0.547980 0.756271 0.979406 0.009192
C9    C     C_R   0.524175 0.629634 0.937772 -0.183008
C10   C     C_R   0.509531 0.572658 0.008230 0.059720
C11   C     C_R   0.526654 0.646548 0.119472 -0.035978
C12   C     C_R   0.739863 0.997215 0.496804 0.810346
C13   C     C_R   0.483206 0.444599 0.973225 -0.000376
C14   C     C_R   0.458450 0.400418 0.054634 -0.036158
C15   C     C_R   0.511337 0.469744 0.151804 0.382157
C16   C     C_R   0.561478 0.589605 0.174154 -0.068914
C17   C     C_R   0.486683 0.358857 0.861685 -0.190291
C18   C     C_R   0.420790 0.193920 0.917210 -0.121125
C19   C     C_R   0.531114 0.774991 0.165354 -0.065546
C20   C     C_R   0.745719 0.369874 0.381731 -0.096706
C21   C     C_R   0.323108 0.763996 0.645494 0.698278
C22   C     C_R   0.297117 0.675152 0.686804 -0.452226
C23   C     C_R   0.481095 0.146209 0.712116 0.830998
C24   C     C_R   0.369723 0.576379 0.641351 -0.027941
C25   C     C_R   0.469672 0.560827 0.549326 -0.023976
C26   C     C_R   0.501323 0.657609 0.516339 0.184677
C27   C     C_R   0.544082 0.456649 0.491834 -0.111978
C28   C     C_R   0.666442 0.466977 0.429366 0.083949
C29   C     C_R   0.701181 0.569027 0.407548 -0.214013
C30   C     C_R   0.614302 0.654934 0.441118 -0.114783
C31   C     C_R   0.495370 0.337840 0.482260 0.578822
C32   C     C_R   0.698021 0.261739 0.390708 -0.052816
C33   C     C_R   0.261843 0.994432 0.492689 0.842409
C34   C     C_3   0.962857 0.009699 0.392484 -0.560426
C35   C     C_3   0.107498 0.014430 0.392194 0.212095
C36   C     C_3   0.919076 0.100806 0.605391 0.414579
C37   C     C_3   0.904816 0.867590 0.483095 -0.271651
C38   C     C_3   0.878501 0.994895 0.495905 -0.045000
Cu1   Cu    Cu3+1 0.529690 0.098270 0.475420 0.982477
Cu2   Cu    Cu3+1 0.470310 0.901730 0.524580 1.019715
H1    H     H_    0.944689 0.094085 0.390618 0.171994
H2    H     H_    0.071045 0.068072 0.667381 0.214222
H3    H     H_    0.516786 0.388292 0.796630 0.176460
H4    H     H_    0.555758 0.927230 0.123552 0.164145
H5    H     H_    0.521017 0.578251 0.850445 0.136927
H6    H     H_    0.936451 0.932089 0.315362 0.218162
H7    H     H_    0.758908 0.187976 0.357061 0.157500
H8    H     H_    0.791840 0.577425 0.356223 0.152996
H9    H     H_    0.220515 0.681047 0.755714 0.138945
H10   H     H_    0.638236 0.720328 0.408648 0.190595
H11   H     H_    0.151195 0.107234 0.407869 0.136176
H12   H     H_    0.119220 0.179118 0.616415 0.170567
H13   H     H_    0.872224 0.795369 0.406606 0.100712
H14   H     H_    0.084439 0.798898 0.378207 0.127919
N1    N     N_R   0.574690 0.246280 0.438200 -0.237801
N2    N     N_R   0.426100 0.754320 0.561190 -0.253213
O1    O     O_R   0.537340 0.972510 0.318130 -0.597173
O2    O     O_R   0.487200 0.806530 0.359650 -0.606494
O3    O     O_R   0.707380 0.082980 0.479220 -0.595808
O4    O     O_R   0.657240 0.917000 0.520740 -0.603454
O5    O     O_R   0.512800 0.193470 0.640350 -0.573407
O6    O     O_R   0.462660 0.027490 0.681870 -0.531026
O7    O     O_R   0.342760 0.083000 0.479260 -0.551662
O8    O     O_R   0.292620 0.917020 0.520780 -0.503673
O9    O     O_3   0.074323 0.807239 0.534016 -0.544368
C39   C     C_3   0.065980 0.677252 0.475099 0.094423
H15   H     H_    0.162618 0.647148 0.429859 0.168844
H16   H     H_    0.001096 0.640504 0.413390 0.121550
C40   C     C_3   0.013539 0.618556 0.554243 -0.787657
H17   H     H_    0.928965 0.662461 0.614729 0.260709
H18   H     H_    0.984997 0.520297 0.506868 0.229306
H19   H     H_    0.087477 0.624918 0.599262 0.221292
O10   O     O_3   0.837709 0.085185 0.697380 -0.582073
C41   C     C_3   0.854273 0.180368 0.802941 0.062187
H20   H     H_    0.803415 0.259855 0.821902 0.159459
H21   H     H_    0.956201 0.211718 0.809189 0.143282
C42   C     C_3   0.796000 0.133786 0.890063 -0.777133
H22   H     H_    0.822836 0.040700 0.862409 0.272820
H23   H     H_    0.830997 0.195098 0.968652 0.196044
H24   H     H_    0.690283 0.129485 0.903988 0.251031
C43   C     C_1   0.406147 0.067343 0.895463 0.297115
N3    N     N_1   0.396592 0.966756 0.880379 -0.290359
O11   O     O_3   0.535956 0.414344 0.211574 -0.596143
C44   C     C_3   0.639758 0.340852 0.150525 0.079205
H25   H     H_    0.724605 0.387445 0.189257 0.178049
H26   H     H_    0.668822 0.325915 0.062288 0.127702
C45   C     C_3   0.607683 0.216763 0.153145 -0.816592
H27   H     H_    0.551552 0.226675 0.235122 0.253647
H28   H     H_    0.550877 0.154271 0.088454 0.230958
H29   H     H_    0.696843 0.174572 0.136924 0.211643
C46   C     C_1   0.327175 0.248498 0.113789 0.307639
N4    N     N_1   0.261657 0.222223 0.180751 -0.365850
C47   C     C_1   0.581995 0.812126 0.904828 0.234230
N5    N     N_1   0.611614 0.857347 0.844871 -0.236042
C48   C     C_1   0.688958 0.627100 0.198691 0.205672
N6    N     N_1   0.792781 0.657362 0.214209 -0.357069
C49   C     C_1   0.873655 0.376055 0.320177 0.163102
N7    N     N_1   0.975898 0.380478 0.270477 -0.301141
O12   O     O_3   0.365699 0.308648 0.501102 -0.575599
C50   C     C_3   0.313998 0.304490 0.414546 0.043217
H30   H     H_    0.311733 0.209615 0.349101 0.160887
H31   H     H_    0.369074 0.362370 0.373227 0.187160
C51   C     C_3   0.180479 0.347212 0.460742 -0.796938
H32   H     H_    0.129281 0.311363 0.521092 0.261866
H33   H     H_    0.125919 0.316511 0.392841 0.238949
H34   H     H_    0.187664 0.447979 0.504335 0.242354
O13   O     O_3   0.251901 0.865312 0.690011 -0.516180
C52   C     C_3   0.150383 0.872680 0.780028 0.090611
H35   H     H_    0.184684 0.875503 0.850415 0.141256
H36   H     H_    0.077019 0.794816 0.754281 0.149352
C53   C     C_3   0.084773 0.988192 0.823455 -0.767918
H37   H     H_    0.017250 0.971639 0.768730 0.263552
H38   H     H_    0.029235 0.010208 0.908585 0.196648
H39   H     H_    0.155611 0.066421 0.825830 0.248003
C54   C     C_1   0.343710 0.500815 0.699727 0.331277
N8    N     N_1   0.320387 0.440547 0.746775 -0.299840
O14   O     O_3   0.168300 0.926161 0.289318 -0.597815
C55   C     C_3   0.198877 0.967361 0.205714 0.081605
H40   H     H_    0.296213 0.015486 0.206880 0.163892
H41   H     H_    0.129391 0.028941 0.215132 0.159840
C56   C     C_3   0.199227 0.857420 0.093174 -0.765526
H42   H     H_    0.102146 0.808837 0.088674 0.245341
H43   H     H_    0.227954 0.887918 0.026226 0.208329
H44   H     H_    0.267572 0.793575 0.080433 0.263020
C57   C     C_1   0.903258 0.221381 0.612271 0.169491
N9    N     N_1   0.889275 0.314819 0.618328 -0.304474
C58   C     C_1   0.831820 0.838415 0.574950 0.478573
N10   N     N_1   0.774508 0.814987 0.646233 -0.256657

loop_
_geom_bond_atom_site_label_1
_geom_bond_atom_site_label_2
_ccdc_geom_bond_type
C2    C35   S    
C39   H16   S    
C45   H27   S    
C3    H2    S    
C9    H5    S    
C47   N5    T    
Cu2   O4    S    
C48   N6    T    
O10   C41   S    
C36   C57   S    
C44   C45   S    
C49   N7    T    
C7    C8    A    
C42   H22   S    
C11   C19   A    
C37   C38   S    
C41   H21   S    
C28   C29   A    
C44   H26   S    
C4    O9    S    
C39   C40   S    
C54   N8    T    
Cu1   O1    S    
C18   C43   S    
Cu2   O6    S    
C52   H35   S    
C34   C35   S    
C40   H18   S    
C55   H40   S    
C56   H44   S    
C51   H32   S    
C12   O3    A    
C23   O6    A    
Cu1   N1    S    
C20   C49   S    
O12   C50   S    
C8    C9    A    
Cu2   N2    S    
C41   C42   S    
O13   C52   S    
C34   H6    S    
C31   O12   S    
C51   H34   S    
C9    C10   A    
C32   N1    A    
C37   H13   S    
C39   H15   S    
C30   H10   S    
C21   C22   A    
C34   H1    S    
C1    O2    A    
C6    C18   A    
C43   N3    T    
C42   H23   S    
Cu1   O5    S    
C1    C19   S    
Cu2   O2    S    
C41   H20   S    
C29   H8    S    
C27   C31   A    
C24   C25   A    
C51   H33   S    
C10   C11   A    
Cu1   Cu2   S    
C15   O11   S    
C5    C18   A    
C20   C28   A    
C25   C26   A    
C50   C51   S    
C55   C56   S    
C40   H19   S    
C2    C4    S    
C17   H3    S    
C29   C30   A    
C1    O1    A    
C11   C16   A    
O11   C44   S    
C33   O7    A    
Cu1   O3    S    
C50   H31   S    
C56   H42   S    
C53   H38   S    
C5    C46   S    
C7    H4    S    
C44   H25   S    
C5    C14   A    
C21   O13   S    
C22   H9    S    
C2    C33   S    
C26   C30   A    
C7    C19   A    
C45   H28   S    
C35   H11   S    
C57   N9    T    
C32   H7    S    
C22   C24   A    
C35   O14   S    
C58   N10   T    
C46   N4    T    
C20   C32   A    
C42   H24   S    
C6    C17   A    
C16   C48   S    
C53   H37   S    
C4    H14   S    
C34   C38   S    
C8    C47   S    
C10   C13   A    
C26   N2    A    
C21   N2    A    
C3    H12   S    
C25   C27   A    
Cu1   O7    S    
Cu2   O8    S    
C52   C53   S    
C13   C17   A    
C36   C38   S    
C2    C3    S    
O14   C55   S    
C3    C36   S    
C33   O8    A    
C6    C23   S    
C50   H30   S    
C52   H36   S    
C53   H39   S    
C12   C38   S    
C40   H17   S    
C55   H41   S    
C56   H43   S    
C36   O10   S    
C12   O4    A    
C23   O5    A    
C4    C37   S    
C24   C54   S    
O9    C39   S    
C45   H29   S    
C27   C28   A    
C14   C15   A    
C31   N1    A    
C13   C14   A    
C15   C16   A    
C37   C58   S    
