data_mof_unit_37236.cif
_audit_creation_date              2012-12-10T19:05:18-0500
_audit_creation_method            fapswitch 2.2
_symmetry_space_group_name_H-M    P1
_symmetry_Int_Tables_number       1
_space_group_crystal_system       triclinic
_cell_length_a                    9.630492
_cell_length_b                    10.843076
_cell_length_c                    17.370709
_cell_angle_alpha                 92.515835
_cell_angle_beta                  85.041685
_cell_angle_gamma                 90.35414
_cell_volume                      1805.38662301

loop_
_atom_site_label
_atom_site_type_symbol
_atom_type_description
_atom_site_fract_x
_atom_site_fract_y
_atom_site_fract_z
_atom_type_partial_charge
C1    C     C_R   0.500171 0.737497 0.501864 0.808941
C2    C     C_R   0.389877 0.607654 0.775211 0.402198
C3    C     C_R   0.388277 0.532241 0.153984 0.314314
C4    C     C_R   0.407785 0.560942 0.232375 0.309577
C5    C     C_R   0.636096 0.464196 0.215346 0.326663
C6    C     C_R   0.621601 0.441486 0.136809 0.368499
C7    C     C_R   0.495496 0.472771 0.106451 -0.136044
C8    C     C_2   0.450430 0.539664 0.979405 -0.114328
C9    C     C_2   0.477075 0.447139 0.024352 -0.094490
C10   C     C_R   0.524430 0.513542 0.264884 -0.324810
C11   C     C_R   0.375878 0.936891 0.521451 -0.003449
C12   C     C_R   0.480795 0.503470 0.649373 0.754320
C13   C     C_R   0.500617 0.871112 0.510320 -0.096009
C14   C     C_R   0.626726 0.937071 0.511700 -0.187474
C15   C     C_R   0.626283 0.065886 0.512275 -0.165769
C16   C     C_R   0.499872 0.130074 0.510988 -0.141056
C17   C     C_R   0.375609 0.064050 0.522100 0.122675
C18   C     C_3   0.244310 0.069011 0.482789 0.095744
C19   C     C_3   0.244113 0.928134 0.481284 0.186964
C20   C     C_R   0.929965 0.400198 0.470368 0.005438
C21   C     C_R   0.921350 0.592191 0.537153 0.458145
C22   C     C_R   0.067963 0.591113 0.538173 0.474348
C23   C     C_R   0.499658 0.262651 0.501978 0.826195
C24   C     C_R   0.077372 0.401970 0.468221 0.070219
C25   C     C_3   0.091081 0.352786 0.385638 0.144775
C26   C     C_3   0.932646 0.347956 0.389549 0.204850
C27   C     C_R   0.518838 0.506031 0.350116 0.923039
C28   C     C_R   0.468750 0.512973 0.733388 -0.115400
C29   C     C_R   0.540551 0.427169 0.772647 -0.206625
C30   C     C_R   0.533170 0.433026 0.852838 -0.136458
C31   C     C_R   0.452222 0.524459 0.894957 0.048503
C32   C     C_R   0.380701 0.610669 0.855746 -0.114330
Cu1   Cu    Cu3+1 0.359330 0.500020 0.500000 1.034046
Cu2   Cu    Cu3+1 0.640670 0.499980 0.500000 0.971782
H1    H     H_    0.603222 0.355863 0.741017 0.167919
H2    H     H_    0.725934 0.889821 0.508174 0.207473
H3    H     H_    0.886409 0.410910 0.351395 0.199750
N1    N     N_R   0.852130 0.499070 0.499500 -0.282479
N2    N     N_R   0.148040 0.499110 0.499500 -0.252159
O1    O     O_R   0.381190 0.680360 0.500000 -0.552027
O2    O     O_R   0.618770 0.680320 0.499990 -0.595209
O3    O     O_R   0.367430 0.500040 0.613600 -0.595401
O4    O     O_R   0.605020 0.500000 0.613590 -0.605399
O5    O     O_R   0.381230 0.319680 0.500010 -0.560998
O6    O     O_R   0.618810 0.319640 0.500000 -0.554154
O7    O     O_R   0.394980 0.500000 0.386410 -0.478795
O8    O     O_R   0.632570 0.499960 0.386400 -0.598308
O9    O     O_3   0.735104 0.391485 0.092019 -0.644310
H4    H     H_    0.721514 0.395336 0.036441 0.320491
H5    H     H_    0.725151 0.114094 0.509680 0.184602
O10   O     O_3   0.136765 0.120890 0.533166 -0.699071
H6    H     H_    0.048803 0.097157 0.510763 0.312058
H7    H     H_    0.257896 0.110749 0.425449 0.112761
H8    H     H_    0.155350 0.887949 0.516837 0.222535
O11   O     O_3   0.262360 0.873285 0.406054 -0.686467
H9    H     H_    0.345181 0.911005 0.377995 0.329018
O12   O     O_3   0.852186 0.689939 0.575877 -0.695021
H10   H     H_    0.764340 0.658450 0.600681 0.361391
O13   O     O_3   0.125350 0.685010 0.580572 -0.694765
H11   H     H_    0.208297 0.652355 0.601331 0.366111
O14   O     O_3   0.147429 0.438057 0.332707 -0.659027
H12   H     H_    0.100320 0.518836 0.344461 0.342647
O15   O     O_3   0.317240 0.637592 0.278021 -0.667587
H13   H     H_    0.270767 0.693105 0.244489 0.337827
H14   H     H_    0.142410 0.261695 0.377092 0.150503
O16   O     O_3   0.876878 0.227989 0.384180 -0.677188
H15   H     H_    0.922262 0.175826 0.420102 0.303794
O17   O     O_3   0.763807 0.443186 0.241080 -0.643107
H16   H     H_    0.789227 0.521282 0.268377 0.313063
H17   H     H_    0.496935 0.354193 0.000455 0.144425
H18   H     H_    0.321093 0.683466 0.887860 0.166279
O18   O     O_3   0.264162 0.556407 0.123091 -0.700007
H19   H     H_    0.187789 0.558979 0.165164 0.358909
O19   O     O_3   0.325862 0.701367 0.740385 -0.706706
H20   H     H_    0.371917 0.710369 0.687775 0.307556
H21   H     H_    0.430559 0.631579 0.005536 0.181704
H22   H     H_    0.594407 0.368159 0.881102 0.142379

loop_
_geom_bond_atom_site_label_1
_geom_bond_atom_site_label_2
_ccdc_geom_bond_type
C10   C27   S    
O11   H9    S    
C23   O6    A    
C4    O15   S    
C11   C19   S    
Cu1   N2    S    
C6    O9    S    
C12   C28   S    
Cu1   O3    S    
C28   C29   A    
C12   O4    A    
C3    C7    A    
C14   H2    S    
C30   C31   A    
C27   O8    A    
C15   C16   A    
C8    H21   S    
C24   N2    A    
C2    C32   A    
C18   C19   S    
C15   H5    S    
C12   O3    A    
C1    O1    A    
O17   H16   S    
C30   H22   S    
C21   N1    A    
C20   C24   A    
C8    C9    D    
C2    O19   S    
O16   H15   S    
O13   H11   S    
C13   C14   A    
Cu1   O7    S    
C8    C31   S    
Cu2   O2    S    
C5    O17   S    
C18   O10   S    
C17   C18   S    
C32   H18   S    
C18   H7    S    
Cu1   O1    S    
O19   H20   S    
O10   H6    S    
C26   O16   S    
C25   H14   S    
C24   C25   S    
C22   O13   S    
C16   C17   A    
C25   C26   S    
C23   O5    A    
C21   O12   S    
C29   C30   A    
C20   N1    A    
C31   C32   A    
Cu1   Cu2   S    
Cu2   O6    S    
C25   O14   S    
C9    H17   S    
C27   O7    A    
C1    O2    A    
O9    H4    S    
C16   C23   S    
C1    C13   S    
C4    C10   A    
C3    C4    A    
C19   H8    S    
C19   O11   S    
C7    C9    S    
C11   C17   A    
Cu2   N1    S    
Cu1   O5    S    
Cu2   O4    S    
O18   H19   S    
C26   H3    S    
C6    C7    A    
C29   H1    S    
C3    O18   S    
C5    C10   A    
C11   C13   A    
O12   H10   S    
C5    C6    A    
C20   C26   S    
C22   N2    A    
O14   H12   S    
O15   H13   S    
C14   C15   A    
C2    C28   A    
Cu2   O8    S    
C21   C22   A    
