data_mof_unit_17443.cif
_audit_creation_date              2012-10-26T20:51:14-0400
_audit_creation_method            fapswitch 2.2
_symmetry_space_group_name_H-M    P1
_symmetry_Int_Tables_number       1
_space_group_crystal_system       triclinic
_cell_length_a                    12.941373
_cell_length_b                    10.857579
_cell_length_c                    9.596831
_cell_angle_alpha                 89.613084
_cell_angle_beta                  97.7119
_cell_angle_gamma                 93.574189
_cell_volume                      1333.67234611

loop_
_atom_site_label
_atom_site_type_symbol
_atom_type_description
_atom_site_fract_x
_atom_site_fract_y
_atom_site_fract_z
_atom_type_partial_charge
C1    C     C_R   0.499502 0.262721 0.500273 0.565820
C2    C     C_R   0.543847 0.940332 0.399220 -0.064388
C3    C     C_R   0.486631 0.870342 0.490185 -0.025338
C4    C     C_R   0.300206 0.496652 0.471962 0.550587
C5    C     C_R   0.419110 0.932137 0.564007 -0.034171
C6    C     C_3   0.390949 0.917795 0.708884 0.325595
C7    C     C_3   0.415179 0.056410 0.727754 0.554153
C8    C     C_R   0.579740 0.561127 0.087787 0.154368
C9    C     C_R   0.425076 0.434408 0.060990 0.531986
C10   C     C_R   0.424109 0.436267 0.912676 0.118293
C11   C     C_R   0.580950 0.560276 0.939857 0.099892
C12   C     C_R   0.029393 0.492363 0.564725 -0.046195
C13   C     C_3   0.608502 0.697295 0.941590 0.126373
C14   C     C_3   0.610250 0.696242 0.101081 0.476799
C15   C     C_R   0.495010 0.737215 0.498107 0.597511
C16   C     C_R   0.699152 0.491205 0.527861 0.617541
C17   C     C_R   0.812348 0.476716 0.546508 -0.025289
C18   C     C_R   0.186314 0.482799 0.454513 -0.031695
C19   C     C_R   0.022132 0.392019 0.334129 0.233031
C20   C     C_R   0.130013 0.418785 0.340199 -0.113007
C21   C     C_R   0.135899 0.519583 0.564511 -0.057421
C22   C     C_R   0.969473 0.436215 0.443681 0.023954
C23   C     C_R   0.859776 0.430113 0.436325 0.419194
C24   C     C_R   0.873183 0.509904 0.673458 -0.121088
C25   C     C_R   0.981704 0.519136 0.684290 0.242898
C26   C     C_R   0.429941 0.059172 0.575601 0.012707
C27   C     C_R   0.495344 0.129587 0.497538 0.005855
C28   C     C_R   0.546481 0.068925 0.400663 -0.099211
Cu1   Cu    Cu3+1 0.499990 0.499980 0.640670 1.104879
Cu2   Cu    Cu3+1 0.500010 0.500020 0.359330 1.225209
F1    F     F_    0.797484 0.384030 0.321375 -0.539521
F2    F     F_    0.330916 0.120115 0.755941 -0.518309
F3    F     F_    0.348599 0.367463 0.116252 -0.576175
F4    F     F_    0.530419 0.762970 0.137556 -0.626444
F5    F     F_    0.285704 0.883962 0.705732 -0.511463
H1    H     H_    0.441380 0.858824 0.776476 0.108679
H2    H     H_    0.776737 0.773484 0.667909 0.385172
H3    H     H_    0.738641 0.926798 0.192607 0.370189
H4    H     H_    0.064505 0.292291 0.039492 0.388005
H5    H     H_    0.030248 0.576145 0.065286 0.385520
H6    H     H_    0.362184 0.384669 0.846669 0.205012
H7    H     H_    0.542045 0.745300 0.890007 0.132379
H8    H     H_    0.835658 0.531547 0.762750 0.241416
H9    H     H_    0.171529 0.384747 0.259184 0.212175
H10   H     H_    0.181586 0.570524 0.650174 0.224435
H11   H     H_    0.593591 0.120543 0.332394 0.196521
H12   H     H_    0.591362 0.897236 0.332589 0.229700
H13   H     H_    0.629477 0.997893 0.718919 0.336004
N1    N     N_R   0.500660 0.500930 0.148010 -0.238484
N2    N     N_R   0.500660 0.500890 0.852110 -0.303877
O1    O     O_R   0.500000 0.319640 0.618810 -0.462777
O2    O     O_2   0.538750 0.004335 0.970113 -0.234262
O3    O     O_3   0.639338 0.079701 0.765311 -0.466179
O4    O     O_2   0.748039 0.885938 0.906197 -0.169888
O5    O     O_2   0.817003 0.682225 0.934712 -0.177505
O6    O     O_3   0.710724 0.737148 0.696631 -0.540141
O7    O     O_2   0.713783 0.732742 0.366115 -0.310838
O8    O     O_2   0.806189 0.629159 0.201202 -0.174375
O9    O     O_3   0.790188 0.865707 0.179168 -0.370906
O10   O     O_2   0.905280 0.183006 0.266866 -0.147223
O11   O     O_2   0.884612 0.351992 0.098092 -0.138941
O12   O     O_R   0.500010 0.319680 0.381230 -0.471675
O13   O     O_3   0.051700 0.229864 0.111938 -0.432318
O14   O     O_2   0.146388 0.482744 0.880001 -0.300040
O15   O     O_2   0.095943 0.695322 0.839505 -0.168808
O16   O     O_3   0.982742 0.548564 0.980096 -0.431696
O17   O     O_R   0.348990 0.499960 0.599490 -0.523514
O18   O     O_R   0.349000 0.500000 0.361910 -0.456326
O19   O     O_R   0.499990 0.680320 0.618770 -0.505471
O20   O     O_R   0.500000 0.680360 0.381190 -0.423158
O21   O     O_R   0.651000 0.500000 0.638090 -0.471016
O22   O     O_R   0.651010 0.500040 0.400510 -0.412400
O23   O     O_2   0.534552 0.220381 0.901759 -0.206600
S1    S     S_3+6 0.533318 0.091341 0.847221 0.097352
S2    S     S_3+6 0.725735 0.751450 0.872162 0.071158
S3    S     S_3+6 0.732536 0.728502 0.215454 0.137785
S4    S     S_3+6 0.961942 0.288128 0.200353 0.158054
S5    S     S_3+6 0.055591 0.563048 0.848339 0.061933

loop_
_geom_bond_atom_site_label_1
_geom_bond_atom_site_label_2
_ccdc_geom_bond_type
C5    C26   A    
C18   C21   A    
O23   S1    D    
O3    S1    S    
C16   O22   A    
C1    O12   A    
O8    S3    D    
C28   H11   S    
C26   C27   A    
C17   C23   A    
C7    C26   S    
O7    S3    D    
O2    S1    D    
Cu1   O1    S    
C5    C6    S    
C12   C22   A    
C6    F5    S    
C19   S4    S    
Cu2   O20   S    
Cu1   O17   S    
H2    O6    S    
C19   C20   A    
O11   S4    D    
C16   C17   S    
C7    F2    S    
C9    C10   A    
C21   H10   S    
O5    S2    D    
O6    S2    S    
H5    O16   S    
C13   C14   S    
C10   H6    S    
C9    F3    S    
C16   O21   A    
O16   S5    S    
C13   H7    S    
C20   H9    S    
C7    S1    S    
Cu1   O19   S    
Cu1   N2    S    
H13   O3    S    
C15   O19   A    
O10   S4    D    
C17   C24   A    
C25   S5    S    
C13   S2    S    
C19   C22   A    
C9    N1    A    
C24   C25   A    
C4    O18   A    
C12   C21   A    
O4    S2    D    
C14   S3    S    
Cu1   Cu2   S    
C1    O1    A    
Cu2   N1    S    
Cu2   O12   S    
C10   N2    A    
C3    C15   S    
O13   S4    S    
C15   O20   A    
C8    C14   S    
O15   S5    D    
O14   S5    D    
C3    C5    A    
C14   F4    S    
C4    O17   A    
Cu2   O22   S    
C6    C7    S    
C2    H12   S    
H4    O13   S    
C12   C25   A    
C2    C3    A    
C4    C18   S    
C11   N2    A    
C11   C13   S    
C8    C11   A    
C8    N1    A    
C6    H1    S    
C18   C20   A    
H3    O9    S    
C27   C28   A    
C1    C27   S    
C24   H8    S    
C22   C23   A    
C2    C28   A    
O9    S3    S    
Cu2   O18   S    
C23   F1    S    
Cu1   O21   S    
