data_mof_unit_33770.cif
_audit_creation_date              2012-12-10T18:42:30-0500
_audit_creation_method            fapswitch 2.2
_symmetry_space_group_name_H-M    P1
_symmetry_Int_Tables_number       1
_space_group_crystal_system       triclinic
_cell_length_a                    8.578599
_cell_length_b                    10.638367
_cell_length_c                    9.931446
_cell_angle_alpha                 88.50812
_cell_angle_beta                  98.682229
_cell_angle_gamma                 92.957076
_cell_volume                      894.634274846

loop_
_atom_site_label
_atom_site_type_symbol
_atom_type_description
_atom_site_fract_x
_atom_site_fract_y
_atom_site_fract_z
_atom_type_partial_charge
C1    C     C_R   0.519127 0.260996 0.504267 0.932696
C2    C     C_R   0.481340 0.739123 0.495785 0.932024
C3    C     C_R   0.201353 0.498986 0.464268 0.966549
C4    C     C_R   0.798648 0.501029 0.535731 0.966721
C5    C     C_2   0.035874 0.495873 0.445476 -0.320162
C6    C     C_2   0.964127 0.504167 0.554520 -0.320346
C7    C     C_R   0.555532 0.066077 0.390049 0.078212
C8    C     C_R   0.446295 0.934233 0.610218 0.078215
C9    C     C_R   0.496920 0.942822 0.373184 -0.092740
C10   C     C_R   0.505254 0.057403 0.627139 -0.092685
C11   C     C_R   0.460974 0.873541 0.488940 -0.125859
C12   C     C_R   0.540598 0.126736 0.511261 -0.125411
C13   C     C_R   0.606926 0.575238 0.083372 0.038879
C14   C     C_R   0.393174 0.424679 0.916625 0.038015
C15   C     C_R   0.602051 0.579662 0.939012 -0.046087
C16   C     C_R   0.397957 0.420323 0.060982 -0.046559
H1    H     H_    0.973575 0.485234 0.342402 0.162084
H2    H     H_    0.026428 0.514818 0.657590 0.161873
N1    N     N_R   0.499960 0.499970 0.857200 -0.136356
N2    N     N_R   0.500040 0.500030 0.142800 -0.136126
O1    O     O_R   0.499990 0.316750 0.614620 -0.547213
O2    O     O_R   0.500010 0.683250 0.385380 -0.547503
O3    O     O_R   0.499990 0.316780 0.385290 -0.633828
O4    O     O_R   0.500010 0.683220 0.614710 -0.633765
O5    O     O_R   0.271750 0.499990 0.587840 -0.606564
O6    O     O_R   0.728250 0.500010 0.412160 -0.605753
O7    O     O_R   0.271750 0.500010 0.358510 -0.657302
O8    O     O_R   0.728250 0.499990 0.641490 -0.657260
Zn1   Zn    Zn3+2 0.500000 0.499980 0.653120 1.007257
Zn2   Zn    Zn3+2 0.500000 0.500020 0.346880 1.007299
I1    I     I_    0.685013 0.153404 0.239504 -0.250484
I2    I     I_    0.316078 0.847402 0.760527 -0.248680
C17   C     C_2   0.458301 0.893311 0.232639 0.608721
H3    H     H_    0.532906 0.917140 0.156025 0.120463
O9    O     O_2   0.337472 0.828606 0.199391 -0.535842
C18   C     C_2   0.544722 0.106837 0.767706 0.608804
H4    H     H_    0.471779 0.081693 0.845214 0.120158
O10   O     O_2   0.664632 0.172876 0.800002 -0.536740
C19   C     C_2   0.743971 0.638570 0.167626 0.556495
H5    H     H_    0.861982 0.621401 0.147840 0.026814
O11   O     O_2   0.728140 0.716781 0.251053 -0.547273
C20   C     C_2   0.256421 0.361092 0.832295 0.558632
H6    H     H_    0.138250 0.378686 0.851346 0.026042
O12   O     O_2   0.272662 0.282175 0.749739 -0.546167
C21   C     C_2   0.698656 0.678917 0.876908 0.417075
H7    H     H_    0.745693 0.664094 0.784973 0.133048
O13   O     O_2   0.723819 0.782761 0.927621 -0.550779
C22   C     C_2   0.301333 0.321085 0.123090 0.417804
H8    H     H_    0.254224 0.335949 0.214980 0.132869
O14   O     O_2   0.276247 0.217207 0.072447 -0.549266

loop_
_geom_bond_atom_site_label_1
_geom_bond_atom_site_label_2
_ccdc_geom_bond_type
C2    O2    A    
C18   H4    S    
C4    O6    A    
C20   O12   D    
C1    O1    A    
C16   N2    A    
C14   C20   S    
C16   C22   S    
C22   O14   D    
C17   H3    S    
C19   O11   D    
N2    Zn2   S    
C21   H7    S    
O7    Zn2   S    
C9    C17   S    
C9    C11   A    
C5    C6    D    
C1    C12   S    
C10   C12   A    
C8    C11   A    
C2    C11   S    
C18   O10   D    
C22   H8    S    
C17   O9    D    
C1    O3    A    
C3    O7    A    
C13   C15   A    
C2    O4    A    
C7    C12   A    
C6    H2    S    
C14   C16   A    
C13   C19   S    
C4    C6    S    
C7    I1    S    
C20   H6    S    
C15   C21   S    
C8    I2    S    
O3    Zn2   S    
C3    O5    A    
C5    H1    S    
O5    Zn1   S    
C8    C10   A    
C21   O13   D    
C19   H5    S    
C7    C9    A    
O4    Zn1   S    
O8    Zn1   S    
C10   C18   S    
O2    Zn2   S    
C13   N2    A    
C4    O8    A    
C15   N1    A    
O1    Zn1   S    
C14   N1    A    
C3    C5    S    
O6    Zn2   S    
N1    Zn1   S    
