data_mof_unit_49395.cif
_audit_creation_date              2012-12-10T18:45:04-0500
_audit_creation_method            fapswitch 2.2
_symmetry_space_group_name_H-M    P1
_symmetry_Int_Tables_number       1
_space_group_crystal_system       triclinic
_cell_length_a                    10.796345
_cell_length_b                    9.811643
_cell_length_c                    10.701902
_cell_angle_alpha                 89.283437
_cell_angle_beta                  90.312596
_cell_angle_gamma                 90.146516
_cell_volume                      1133.54218668

loop_
_atom_site_label
_atom_site_type_symbol
_atom_type_description
_atom_site_fract_x
_atom_site_fract_y
_atom_site_fract_z
_atom_type_partial_charge
C1    C     C_R   0.259706 0.499677 0.498120 0.985226
C2    C     C_R   0.740079 0.499965 0.504597 0.988383
C3    C     C_R   0.936812 0.623721 0.501715 0.522429
C4    C     C_R   0.063492 0.623334 0.498739 0.527274
C5    C     C_R   0.557697 0.071047 0.593386 -0.127947
C6    C     C_R   0.442711 0.073195 0.406382 -0.149022
C7    C     C_R   0.558849 0.927084 0.592816 0.637497
C8    C     C_R   0.441604 0.929220 0.406917 0.637875
C9    C     C_R   0.510673 0.501051 0.259785 0.955415
C10   C     C_R   0.486446 0.499426 0.739541 0.950668
C11   C     C_R   0.561561 0.753215 0.099954 0.587348
C12   C     C_R   0.414227 0.744891 0.885630 0.576883
C13   C     C_R   0.533786 0.874208 0.034232 0.270202
C14   C     C_R   0.447514 0.870915 0.935842 0.253774
C15   C     C_R   0.463229 0.623088 0.937623 -0.245346
C16   C     C_R   0.514684 0.626893 0.057208 -0.252362
C17   C     C_R   0.519029 0.502639 0.125708 -0.244048
C18   C     C_R   0.470922 0.498683 0.872939 -0.246595
C19   C     C_R   0.507332 0.377644 0.064392 0.500435
C20   C     C_R   0.491511 0.376109 0.937946 0.484972
C21   C     C_R   0.062444 0.374135 0.503482 0.326078
C22   C     C_R   0.936193 0.375290 0.521576 0.327743
C23   C     C_R   0.872404 0.499708 0.510741 -0.474755
C24   C     C_R   0.127139 0.498834 0.498879 -0.468393
H1    H     H_    0.603456 0.124953 0.668074 0.198987
H2    H     H_    0.397007 0.128747 0.331582 0.202162
N1    N     N_R   0.500000 0.857200 0.500000 -0.158450
N2    N     N_R   0.500000 0.142810 0.500000 -0.139708
O1    O     O_R   0.316770 0.614620 0.499990 -0.519936
O2    O     O_R   0.683230 0.614620 0.500010 -0.524387
O3    O     O_R   0.316800 0.385290 0.500000 -0.605616
O4    O     O_R   0.683200 0.385290 0.500000 -0.592165
O5    O     O_R   0.500010 0.614690 0.316770 -0.536873
O6    O     O_R   0.499990 0.614690 0.683230 -0.540840
O7    O     O_R   0.500040 0.385360 0.316770 -0.592753
O8    O     O_R   0.499960 0.385360 0.683230 -0.599216
Zn1   Zn    Zn3+2 0.500000 0.653120 0.500000 1.161524
Zn2   Zn    Zn3+2 0.500000 0.346880 0.500000 1.020818
F1    F     F_    0.514492 0.255732 0.125424 -0.606785
F2    F     F_    0.499363 0.254244 0.880024 -0.621908
F3    F     F_    0.645871 0.758472 0.194502 -0.619630
F4    F     F_    0.332099 0.742072 0.788934 -0.631129
O9    O     O_3   0.589973 0.995144 0.067444 -0.478543
C25   C     C_3   0.702350 0.006492 0.000661 0.249080
H3    H     H_    0.683381 0.021798 0.899039 0.172320
H4    H     H_    0.761183 0.914088 0.014095 0.125253
C26   C     C_3   0.776405 0.128080 0.047250 -0.739934
H5    H     H_    0.787967 0.121466 0.150355 0.277484
H6    H     H_    0.869398 0.129148 0.003390 0.157203
H7    H     H_    0.728818 0.224515 0.021717 0.271327
O10   O     O_3   0.408486 0.989945 0.877976 -0.508076
C27   C     C_3   0.289288 0.023043 0.922363 0.229410
H8    H     H_    0.298205 0.077800 0.012393 0.168681
H9    H     H_    0.228788 0.931793 0.936999 0.120024
C28   C     C_3   0.224291 0.115403 0.827334 -0.722463
H10   H     H_    0.276922 0.211570 0.813419 0.283623
H11   H     H_    0.215848 0.062829 0.736332 0.277192
H12   H     H_    0.130157 0.140648 0.861166 0.164010
O11   O     O_3   0.121180 0.249274 0.496477 -0.558582
C29   C     C_3   0.112354 0.201541 0.372337 0.073898
H13   H     H_    0.194331 0.237446 0.318824 0.143381
H14   H     H_    0.027352 0.236255 0.321202 0.139385
C30   C     C_3   0.110340 0.046581 0.374424 -0.618090
H15   H     H_    0.020527 0.009408 0.411879 0.292410
H16   H     H_    0.121841 0.007624 0.278205 0.203173
H17   H     H_    0.186231 0.006730 0.434650 0.282000
O12   O     O_3   0.876002 0.252061 0.540902 -0.547358
C31   C     C_3   0.884529 0.214538 0.668946 0.101639
H18   H     H_    0.798228 0.245729 0.716801 0.146502
H19   H     H_    0.964452 0.261443 0.719581 0.126320
C32   C     C_3   0.898360 0.060572 0.680259 -0.689900
H20   H     H_    0.988943 0.029020 0.641688 0.282568
H21   H     H_    0.894327 0.028524 0.779969 0.179393
H22   H     H_    0.823233 0.008855 0.627914 0.295416
F5    F     F_    0.878339 0.746208 0.495733 -0.595498
F6    F     F_    0.122696 0.745580 0.493262 -0.604532
F7    F     F_    0.619814 0.858286 0.684699 -0.666643
F8    F     F_    0.380988 0.862537 0.314814 -0.649899

loop_
_geom_bond_atom_site_label_1
_geom_bond_atom_site_label_2
_ccdc_geom_bond_type
C15   C18   A    
C9    O5    A    
C28   H10   S    
C30   H16   S    
O6    Zn1   S    
C3    C23   A    
C19   C20   A    
C26   H6    S    
C27   H8    S    
C29   C30   S    
C2    O4    A    
N1    Zn1   S    
C21   O11   S    
C4    C24   A    
C15   C16   A    
C1    O3    A    
C7    N1    A    
C29   H14   S    
C12   F4    S    
C6    N2    A    
C26   H5    S    
C27   H9    S    
C16   C17   A    
O4    Zn2   S    
C3    F5    S    
C27   C28   S    
C7    F7    S    
C30   H17   S    
O11   C29   S    
C21   C22   A    
C8    F8    S    
C25   H4    S    
C26   H7    S    
O10   C27   S    
O7    Zn2   S    
C5    C7    A    
C31   H18   S    
C6    C8    A    
O5    Zn1   S    
O12   C31   S    
O2    Zn1   S    
C29   H13   S    
O9    C25   S    
C5    N2    A    
C11   C16   A    
C14   O10   S    
C12   C15   A    
N2    Zn2   S    
C1    O1    A    
C10   O6    A    
C19   F1    S    
C5    H1    S    
C9    C17   S    
C12   C14   A    
C28   H11   S    
C28   H12   S    
C3    C4    A    
C13   O9    S    
C25   H3    S    
C32   H21   S    
C32   H22   S    
C25   C26   S    
O3    Zn2   S    
C2    O2    A    
O8    Zn2   S    
C32   H20   S    
C11   C13   A    
C6    H2    S    
C10   C18   S    
C31   C32   S    
C20   F2    S    
C17   C19   A    
C11   F3    S    
C18   C20   A    
C22   O12   S    
C4    F6    S    
C30   H15   S    
C1    C24   S    
C31   H19   S    
C21   C24   A    
O1    Zn1   S    
C2    C23   S    
C9    O7    A    
C8    N1    A    
C22   C23   A    
C10   O8    A    
C13   C14   A    
