data_mof_unit_47780.cif
_audit_creation_date              2013-03-05T15:40:17-0500
_audit_creation_method            fapswitch 2.2
_symmetry_space_group_name_H-M    P1
_symmetry_Int_Tables_number       1
_space_group_crystal_system       triclinic
_cell_length_a                    10.748023
_cell_length_b                    8.683716
_cell_length_c                    7.436646
_cell_angle_alpha                 103.198013
_cell_angle_beta                  92.858976
_cell_angle_gamma                 92.44714
_cell_volume                      673.863982678

loop_
_atom_site_label
_atom_site_type_symbol
_atom_site_description
_atom_site_fract_x
_atom_site_fract_y
_atom_site_fract_z
_atom_type_partial_charge
O1    O     O_R   0.509050 0.286130 0.619770 -0.603146
O2    O     O_R   0.485540 0.256780 0.308360 -0.569253
C1    C     C_R   0.495888 0.199648 0.453084 0.884104
O3    O     O_R   0.331410 0.514680 0.655740 -0.550584
O4    O     O_R   0.307900 0.485330 0.344330 -0.573695
C2    C     C_R   0.263035 0.509409 0.507144 0.804730
Cu1   Cu    Cu3+1 0.513920 0.517380 0.684380 1.048929
Cu2   Cu    Cu3+1 0.486080 0.482620 0.315620 1.044843
O5    O     O_R   0.514460 0.743220 0.691640 -0.540551
O6    O     O_R   0.490950 0.713870 0.380230 -0.583716
O7    O     O_R   0.692100 0.514670 0.655670 -0.587440
O8    O     O_R   0.668590 0.485320 0.344260 -0.560721
C3    C     C_R   0.502087 0.800269 0.546951 0.982765
C4    C     C_R   0.737348 0.501762 0.495359 0.962835
H1    H     H_    0.105243 0.266234 0.382304 0.168957
C5    C     C_R   0.132979 0.797247 0.705617 0.327202
C6    C     C_R   0.075145 0.941586 0.726824 -0.285311
H2    H     H_    0.122481 0.050658 0.805270 0.202136
C7    C     C_R   0.952996 0.945803 0.659446 -0.183243
H3    H     H_    0.909559 0.058113 0.676720 0.205052
C8    C     C_R   0.884025 0.805446 0.580397 0.620260
C9    C     C_R   0.940152 0.658092 0.554767 -0.133654
C10   C     C_R   0.069826 0.655892 0.596944 -0.072886
C11   C     C_R   0.129424 0.513751 0.522426 -0.111053
C12   C     C_R   0.059521 0.374460 0.437546 -0.248020
C13   C     C_R   0.930849 0.372022 0.426793 0.570553
C14   C     C_R   0.871066 0.512516 0.485856 -0.179013
C15   C     C_2   0.492786 0.031529 0.426777 -0.305612
H4    H     H_    0.480335 0.959435 0.286162 0.206608
C16   C     C_2   0.504908 0.968390 0.572916 -0.260025
H5    H     H_    0.517772 0.040590 0.713393 0.194306
N1    N     N_2   0.465100 0.456430 0.038520 -0.193467
H6    H     H_    0.402274 0.379151 0.949392 0.238635
N2    N     N_2   0.534900 0.543570 0.961480 -0.191649
H7    H     H_    0.597619 0.620984 0.050635 0.244794
N3    N     N_R   0.239930 0.792747 0.827169 0.124873
O9    O     O_R   0.319605 0.914374 0.871241 -0.409580
O10   O     O_R   0.234688 0.696523 0.937925 -0.334154
F1    F     F_    0.765046 0.816102 0.517999 -0.693641
F2    F     F_    0.864260 0.232664 0.357517 -0.661166

loop_
_geom_bond_atom_site_label_1
_geom_bond_atom_site_label_2
_geom_bond_distance
_ccdc_geom_bond_type
O4    Cu2   1.938045 S    
C10   C11   1.425320 A    
C4    C14   1.442543 S    
C7    H3    1.083170 S    
C8    F1    1.352666 S    
Cu2   O8    1.961120 S    
C2    C11   1.447593 S    
N1    H6    1.029164 S    
C15   H4    1.087788 S    
N3    O10   1.301791 A    
C6    H2    1.083142 S    
Cu1   Cu2   2.689517 S    
C8    C9    1.415484 A    
C5    N3    1.433987 S    
Cu1   O7    1.938046 S    
C13   F2    1.358916 S    
C13   C14   1.394500 A    
O4    C2    1.301347 A    
O3    Cu1   1.961119 S    
C15   C16   1.327683 D    
N3    O9    1.301134 A    
C7    C8    1.390263 A    
O8    C4    1.289985 A    
O2    C1    1.285858 A    
C5    C10   1.428893 A    
C9    C14   1.413544 A    
C16   H5    1.087506 S    
Cu1   N2    2.020964 S    
H1    C12   1.084798 S    
Cu2   N1    2.020964 S    
C3    C16   1.427049 S    
C11   C12   1.397290 A    
O3    C2    1.286987 A    
N2    H7    1.029136 S    
O7    C4    1.292995 A    
Cu1   O5    1.949263 S    
O5    C3    1.286716 A    
C9    C10   1.415150 A    
C1    C15   1.426699 S    
C6    C7    1.386679 A    
C12   C13   1.380263 A    
O1    Cu1   1.952956 S    
Cu2   O6    1.952954 S    
O2    Cu2   1.949264 S    
C5    C6    1.402960 A    
O1    C1    1.291864 A    
O6    C3    1.291205 A    
N1    N2    1.286860 D    
