data_mof_unit_56967.cif
_audit_creation_date              2012-12-11T15:45:07-0500
_audit_creation_method            fapswitch 2.2
_symmetry_space_group_name_H-M    P1
_symmetry_Int_Tables_number       1
_space_group_crystal_system       triclinic
_cell_length_a                    19.47103
_cell_length_b                    11.080015
_cell_length_c                    18.677084
_cell_angle_alpha                 89.924858
_cell_angle_beta                  90.797014
_cell_angle_gamma                 90.040473
_cell_volume                      4028.98685118

loop_
_atom_site_label
_atom_site_type_symbol
_atom_type_description
_atom_site_fract_x
_atom_site_fract_y
_atom_site_fract_z
_atom_type_partial_charge
C1    C     C_R   0.757966 0.539339 0.648459 0.552308
C2    C     C_R   0.237007 0.522031 0.357385 0.547839
C3    C     C_R   0.262981 0.022194 0.642628 0.546358
C4    C     C_R   0.742044 0.039237 0.351537 0.554514
C5    C     C_R   0.843808 0.114169 0.518428 0.230348
C6    C     C_R   0.215633 0.972928 0.450499 0.222499
C7    C     C_R   0.284399 0.473130 0.549625 0.222656
C8    C     C_R   0.656148 0.614411 0.481625 0.230988
C9    C     C_R   0.833965 0.097282 0.443183 -0.092660
C10   C     C_R   0.216556 0.964544 0.524739 -0.060225
C11   C     C_R   0.283508 0.464705 0.475390 -0.061664
C12   C     C_R   0.666006 0.597571 0.556895 -0.092409
C13   C     C_3   0.657019 0.213164 0.452856 -0.233901
C14   C     C_3   0.370619 0.124406 0.533672 -0.137929
C15   C     C_3   0.129393 0.624144 0.466145 -0.136709
C16   C     C_3   0.843070 0.713370 0.547007 -0.235953
C17   C     C_3   0.670324 0.238400 0.531579 0.107662
C18   C     C_3   0.365765 0.127192 0.453400 0.087262
C19   C     C_3   0.134205 0.627268 0.546411 0.087141
C20   C     C_3   0.829793 0.738197 0.468202 0.108233
C21   C     C_R   0.793279 0.174925 0.558277 0.008707
C22   C     C_R   0.248708 0.071359 0.418928 -0.045547
C23   C     C_R   0.251276 0.571479 0.581067 -0.045484
C24   C     C_R   0.706707 0.675089 0.441664 0.007846
C25   C     C_R   0.992910 0.328576 0.421470 -0.026301
C26   C     C_R   0.995843 0.350330 0.571931 -0.017619
C27   C     C_R   0.504205 0.850294 0.428101 -0.018578
C28   C     C_R   0.507128 0.828830 0.578599 -0.025634
C29   C     C_R   0.020277 0.111307 0.437224 -0.131220
C30   C     C_R   0.043667 0.150033 0.582631 -0.101835
C31   C     C_R   0.456402 0.649931 0.417820 -0.101503
C32   C     C_R   0.479986 0.611363 0.563261 -0.130383
C33   C     C_R   0.043990 0.016589 0.480833 0.295071
C34   C     C_R   0.055518 0.036513 0.554021 0.317444
C35   C     C_R   0.444656 0.536391 0.446638 0.317157
C36   C     C_R   0.456298 0.516517 0.519841 0.295711
C37   C     C_R   0.016073 0.242607 0.540240 -0.016147
C38   C     C_R   0.009585 0.227469 0.465440 -0.029263
C39   C     C_R   0.490551 0.727570 0.534829 -0.028765
C40   C     C_R   0.484011 0.742595 0.460012 -0.016687
C41   C     C_R   0.982716 0.452410 0.527230 0.001717
C42   C     C_R   0.970463 0.435020 0.453681 0.006540
C43   C     C_R   0.529488 0.935325 0.546192 0.007245
C44   C     C_R   0.517252 0.952564 0.472603 0.000584
C45   C     C_R   0.793145 0.174558 0.639099 0.585397
C46   C     C_R   0.227473 0.121248 0.351322 0.532708
C47   C     C_R   0.272528 0.621355 0.648653 0.530380
C48   C     C_R   0.706824 0.674607 0.360859 0.585339
C49   C     C_R   0.987048 0.573162 0.551603 -0.102746
C50   C     C_R   0.949667 0.533310 0.410916 -0.099089
C51   C     C_R   0.550218 0.033710 0.588787 -0.100276
C52   C     C_R   0.512880 0.073322 0.448008 -0.103008
C53   C     C_R   0.982419 0.669391 0.503659 -0.110590
C54   C     C_R   0.967371 0.648401 0.432094 -0.142184
C55   C     C_R   0.532517 0.148717 0.567387 -0.142440
C56   C     C_R   0.517496 0.169638 0.495786 -0.108890
C57   C     C_R   0.741826 0.048295 0.068794 0.004335
C58   C     C_R   0.252010 0.062987 0.926797 0.014223
C59   C     C_R   0.241815 0.548250 0.068782 0.002782
C60   C     C_R   0.752005 0.563007 0.926790 0.015944
C61   C     C_R   0.796504 0.997155 0.032546 -0.015762
C62   C     C_R   0.218169 0.978966 0.969947 0.015373
C63   C     C_R   0.296486 0.497092 0.032530 -0.015744
C64   C     C_R   0.718151 0.478999 0.969935 0.015070
C65   C     C_R   0.801788 0.005761 0.959674 0.056457
C66   C     C_R   0.215318 0.992496 0.042989 0.050126
C67   C     C_R   0.301768 0.505696 0.959657 0.056379
C68   C     C_R   0.715298 0.492524 0.042977 0.051055
C69   C     C_R   0.691229 0.102294 0.953009 -0.161198
C70   C     C_R   0.287009 0.169512 0.034052 -0.141997
C71   C     C_R   0.191219 0.602255 0.952995 -0.160826
C72   C     C_R   0.787001 0.669531 0.034045 -0.143503
C73   C     C_R   0.685767 0.090227 0.027575 -0.118577
C74   C     C_R   0.287873 0.157646 0.959565 -0.110550
C75   C     C_R   0.185758 0.590189 0.027563 -0.118766
C76   C     C_R   0.787869 0.657663 0.959559 -0.109669
C77   C     C_3   0.871688 0.008638 0.046337 -0.192088
C78   C     C_3   0.145202 0.937042 0.964709 -0.174678
C79   C     C_3   0.371673 0.508532 0.046317 -0.192150
C80   C     C_3   0.645179 0.437108 0.964686 -0.175015
C81   C     C_3   0.878418 0.018798 0.965979 0.103303
C82   C     C_3   0.142211 0.951044 0.045062 0.102052
C83   C     C_3   0.378401 0.518685 0.965958 0.104048
C84   C     C_3   0.642184 0.451099 0.045038 0.101982
C85   C     C_R   0.752867 0.070897 0.919697 -0.009974
C86   C     C_R   0.246975 0.090648 0.076020 -0.019717
C87   C     C_R   0.252855 0.570856 0.919683 -0.009893
C88   C     C_R   0.746962 0.590669 0.076011 -0.020705
C89   C     C_R   0.969480 0.348607 0.645982 0.528070
C90   C     C_R   0.027766 0.343843 0.351841 0.526512
C91   C     C_R   0.472254 0.843959 0.648191 0.526011
C92   C     C_R   0.530527 0.848526 0.354027 0.528646
C93   C     C_R   0.012593 0.341481 0.070908 -0.008783
C94   C     C_R   0.006376 0.343882 0.921181 0.012409
C95   C     C_R   0.512576 0.841484 0.070914 -0.009536
C96   C     C_R   0.506367 0.843879 0.921185 0.013332
C97   C     C_R   0.018051 0.448647 0.032815 0.051269
C98   C     C_R   0.017744 0.451401 0.959840 0.010907
C99   C     C_R   0.518042 0.948647 0.032818 0.051431
C100  C     C_R   0.517739 0.951398 0.959843 0.011340
C101  C     C_R   0.013307 0.233542 0.957750 -0.185182
C102  C     C_R   0.014882 0.232310 0.032686 -0.174181
C103  C     C_R   0.513281 0.733539 0.957758 -0.184753
C104  C     C_R   0.514850 0.732311 0.032694 -0.174902
C105  C     C_3   0.982301 0.566465 0.041392 0.147347
C106  C     C_3   0.987327 0.577396 0.960854 0.132870
C107  C     C_3   0.482297 0.066471 0.041390 0.147244
C108  C     C_3   0.487327 0.077397 0.960851 0.132826
C109  C     C_R   0.760865 0.530543 0.852351 0.549890
C110  C     C_R   0.236981 0.524169 0.145135 0.551097
C111  C     C_R   0.260866 0.030540 0.852352 0.552957
C112  C     C_R   0.736985 0.024184 0.145140 0.548348
C113  C     C_R   0.772795 0.124226 0.851886 0.546683
C114  C     C_R   0.226566 0.128377 0.146758 0.536973
C115  C     C_R   0.272792 0.624216 0.851883 0.537935
C116  C     C_R   0.726561 0.628387 0.146754 0.545099
C117  C     C_R   0.971073 0.347649 0.852601 0.567380
C118  C     C_R   0.031259 0.346903 0.145727 0.538888
C119  C     C_R   0.471070 0.847649 0.852603 0.568476
C120  C     C_R   0.531254 0.846903 0.145731 0.537647
C121  C     C_R   0.769230 0.120055 0.410772 -0.027815
C122  C     C_R   0.253598 0.048347 0.567385 -0.064673
C123  C     C_R   0.246434 0.548312 0.432595 -0.066150
C124  C     C_R   0.730785 0.620342 0.589226 -0.027885
C125  C     C_R   0.731284 0.208119 0.445008 -0.039768
C126  C     C_R   0.294675 0.132007 0.533916 -0.001045
C127  C     C_R   0.205340 0.631876 0.465938 0.000121
C128  C     C_R   0.768795 0.708401 0.554845 -0.040797
C129  C     C_R   0.743609 0.235129 0.517541 0.053905
C130  C     C_R   0.291621 0.142114 0.459764 0.034522
C131  C     C_R   0.208393 0.642169 0.540082 0.035102
C132  C     C_R   0.756488 0.735278 0.482251 0.053266
Cr1   Cr    Cr6+3 0.885860 0.491680 0.749630 1.010962
Cr2   Cr    Cr6+3 0.114140 0.491680 0.250370 1.049774
Cr3   Cr    Cr6+3 0.385860 0.991680 0.749630 1.020264
Cr4   Cr    Cr6+3 0.614140 0.991680 0.250370 1.040399
Cr5   Cr    Cr6+3 0.730490 0.332970 0.748720 1.015177
Cr6   Cr    Cr6+3 0.269510 0.332970 0.251280 1.007382
Cr7   Cr    Cr6+3 0.230490 0.832970 0.748720 1.006005
Cr8   Cr    Cr6+3 0.769510 0.832970 0.251280 1.017565
Cr9   Cr    Cr6+3 0.887570 0.179310 0.750150 1.025840
Cr10  Cr    Cr6+3 0.112430 0.179310 0.249850 0.998804
Cr11  Cr    Cr6+3 0.387570 0.679310 0.750150 0.994510
Cr12  Cr    Cr6+3 0.612430 0.679310 0.249850 1.030359
H1    H     H_    0.639221 0.116809 0.053054 0.247554
H2    H     H_    0.315072 0.223330 0.927746 0.169653
H3    H     H_    0.139215 0.616784 0.053043 0.247298
H4    H     H_    0.815075 0.723340 0.927741 0.170821
H5    H     H_    0.885247 0.093255 0.075205 0.100270
H6    H     H_    0.111642 0.002016 0.935313 0.095045
H7    H     H_    0.385248 0.593144 0.075184 0.099626
H8    H     H_    0.611632 0.502101 0.935290 0.095340
H9    H     H_    0.897402 0.107923 0.947840 0.145482
H10   H     H_    0.104648 0.019740 0.062362 0.138580
H11   H     H_    0.397405 0.607794 0.947816 0.146870
H12   H     H_    0.604630 0.519809 0.062339 0.137593
H13   H     H_    0.010690 0.148734 0.929155 0.131514
H14   H     H_    0.015721 0.146858 0.060554 0.130605
H15   H     H_    0.510661 0.648730 0.929165 0.131794
H16   H     H_    0.515678 0.646860 0.060564 0.130363
H17   H     H_    0.873334 0.053045 0.412662 0.149814
H18   H     H_    0.191717 0.888016 0.548646 0.257491
H19   H     H_    0.308380 0.388232 0.451617 0.256922
H20   H     H_    0.626669 0.553115 0.587474 0.148106
H21   H     H_    0.633601 0.289124 0.422160 0.179521
H22   H     H_    0.393909 0.204665 0.559127 0.251258
H23   H     H_    0.106099 0.704250 0.440435 0.251008
H24   H     H_    0.866537 0.789484 0.577456 0.177691
O1    O     O_R   0.957020 0.451640 0.669920 -0.552021
O2    O     O_R   0.042980 0.451640 0.330080 -0.526446
O3    O     O_R   0.457020 0.951640 0.669920 -0.531291
O4    O     O_R   0.542980 0.951640 0.330080 -0.546644
O5    O     O_R   0.736470 0.210100 0.823360 -0.502676
O6    O     O_R   0.263530 0.210100 0.176640 -0.512669
O7    O     O_R   0.236470 0.710100 0.823360 -0.506439
O8    O     O_R   0.763530 0.710100 0.176640 -0.508244
O9    O     O_R   0.831960 0.093290 0.830130 -0.534900
O10   O     O_R   0.168040 0.093290 0.169870 -0.539564
O11   O     O_R   0.331960 0.593290 0.830130 -0.538662
O12   O     O_R   0.668040 0.593290 0.169870 -0.535854
O13   O     O_R   0.945600 0.250580 0.824860 -0.524997
O14   O     O_R   0.054400 0.250580 0.175140 -0.517287
O15   O     O_R   0.445600 0.750580 0.824860 -0.522348
O16   O     O_R   0.554400 0.750580 0.175140 -0.520020
O17   O     O_3   0.834640 0.334650 0.749500 -0.281564
O18   O     O_3   0.165360 0.334650 0.250500 -0.265191
O19   O     O_3   0.334640 0.834650 0.749500 -0.254420
O20   O     O_3   0.665360 0.834650 0.250500 -0.292700
O21   O     O_R   0.821450 0.543440 0.674610 -0.513133
O22   O     O_R   0.178550 0.543440 0.325390 -0.499814
O23   O     O_R   0.321450 0.043440 0.674610 -0.504532
O24   O     O_R   0.678550 0.043440 0.325390 -0.509129
O25   O     O_R   0.715320 0.458650 0.668100 -0.480108
O26   O     O_R   0.284680 0.458650 0.331900 -0.514171
O27   O     O_R   0.215320 0.958650 0.668100 -0.515902
O28   O     O_R   0.784680 0.958650 0.331900 -0.477859
O29   O     O_R   0.737170 0.209590 0.674530 -0.507461
O30   O     O_R   0.262830 0.209590 0.325470 -0.503893
O31   O     O_R   0.237170 0.709590 0.674530 -0.506238
O32   O     O_R   0.762830 0.709590 0.325470 -0.504000
O33   O     O_R   0.832710 0.092740 0.669580 -0.450248
O34   O     O_R   0.167290 0.092740 0.330420 -0.500317
O35   O     O_R   0.332710 0.592740 0.669580 -0.501143
O36   O     O_R   0.667290 0.592740 0.330420 -0.447742
O37   O     O_R   0.946290 0.250060 0.676040 -0.487465
O38   O     O_R   0.053710 0.250060 0.323960 -0.509977
O39   O     O_R   0.446290 0.750060 0.676040 -0.510843
O40   O     O_R   0.553710 0.750060 0.323960 -0.486650
O41   O     O_R   0.956270 0.452200 0.830470 -0.480057
O42   O     O_R   0.043730 0.452200 0.169530 -0.469963
O43   O     O_R   0.456270 0.952200 0.830470 -0.481678
O44   O     O_R   0.543730 0.952200 0.169530 -0.468257
O45   O     O_R   0.820760 0.543950 0.823440 -0.474515
O46   O     O_R   0.179240 0.543950 0.176560 -0.481271
O47   O     O_R   0.320760 0.043950 0.823440 -0.474104
O48   O     O_R   0.679240 0.043950 0.176560 -0.481787
O49   O     O_R   0.714570 0.459210 0.828640 -0.535258
O50   O     O_R   0.285430 0.459210 0.171360 -0.530494
O51   O     O_R   0.214570 0.959210 0.828640 -0.531777
O52   O     O_R   0.785430 0.959210 0.171360 -0.534035
O53   O     O_3   0.898407 0.062429 0.554305 -0.670980
H25   H     H_    0.918794 0.000917 0.523119 0.326580
O54   O     O_3   0.184153 0.883265 0.410967 -0.672569
H26   H     H_    0.201856 0.885556 0.361489 0.325896
O55   O     O_3   0.315920 0.383559 0.589280 -0.673317
H27   H     H_    0.298127 0.385650 0.638721 0.324313
O56   O     O_3   0.601539 0.562605 0.445820 -0.670651
H28   H     H_    0.581126 0.501059 0.477107 0.327284
H29   H     H_    0.988309 0.760384 0.523221 0.228293
H30   H     H_    0.964701 0.721233 0.393673 0.117890
H31   H     H_    0.535085 0.221521 0.605712 0.114529
H32   H     H_    0.511534 0.260651 0.476125 0.229484
H33   H     H_    0.649745 0.143038 0.922514 0.118623
H34   H     H_    0.312774 0.246422 0.057812 0.156023
H35   H     H_    0.149736 0.643004 0.922500 0.118113
H36   H     H_    0.812768 0.746439 0.057806 0.155736
H37   H     H_    0.894333 0.924891 0.069487 0.166816
H38   H     H_    0.140825 0.842662 0.945970 0.173225
H39   H     H_    0.394305 0.424776 0.069468 0.166871
H40   H     H_    0.640792 0.342731 0.945940 0.172987
O57   O     O_3   0.912811 0.919138 0.937378 -0.731509
H41   H     H_    0.921004 0.938619 0.886380 0.334708
O58   O     O_3   0.136092 0.840127 0.080213 -0.692855
H42   H     H_    0.134635 0.858881 0.132082 0.345325
O59   O     O_3   0.412774 0.419005 0.937355 -0.732366
H43   H     H_    0.420856 0.438387 0.886325 0.333254
O60   O     O_3   0.636045 0.340174 0.080175 -0.691807
H44   H     H_    0.634538 0.358918 0.132042 0.348150
O61   O     O_3   0.022058 0.652353 0.077811 -0.695381
H45   H     H_    0.994592 0.727748 0.076972 0.337268
O62   O     O_3   0.921986 0.585853 0.930003 -0.681870
H46   H     H_    0.923873 0.654255 0.895707 0.340865
O63   O     O_3   0.522055 0.152356 0.077808 -0.694684
H47   H     H_    0.494591 0.227752 0.076968 0.337500
O64   O     O_3   0.421989 0.085864 0.929996 -0.682244
H48   H     H_    0.423881 0.154264 0.895700 0.340083
H49   H     H_    0.929365 0.556461 0.062638 0.150561
H50   H     H_    0.024404 0.647681 0.942698 0.120204
H51   H     H_    0.429358 0.056475 0.062632 0.149789
H52   H     H_    0.524410 0.147674 0.942696 0.120136
H53   H     H_    0.109570 0.536378 0.445897 0.124244
H54   H     H_    0.863954 0.622587 0.557535 0.145830
H55   H     H_    0.636097 0.122299 0.442633 0.144291
H56   H     H_    0.390450 0.036768 0.554171 0.126106
O65   O     O_3   0.651382 0.353230 0.552322 -0.695599
H57   H     H_    0.600953 0.353124 0.556219 0.302490
O66   O     O_3   0.394040 0.229176 0.422375 -0.633898
H58   H     H_    0.392797 0.215023 0.369903 0.335478
O67   O     O_3   0.105910 0.729380 0.577052 -0.633473
H59   H     H_    0.107151 0.715506 0.629573 0.333686
O68   O     O_3   0.849006 0.852784 0.446971 -0.695848
H60   H     H_    0.899519 0.852961 0.444097 0.302309
H61   H     H_    0.657749 0.166436 0.570141 0.145050
H62   H     H_    0.380328 0.040629 0.427071 0.086602
H63   H     H_    0.119563 0.540821 0.572995 0.085017
H64   H     H_    0.842205 0.665902 0.429932 0.146225
O69   O     O_3   0.053153 0.902743 0.453646 -0.663120
H65   H     H_    0.042693 0.903335 0.401527 0.307961
O70   O     O_3   0.073509 0.942028 0.597901 -0.637407
H66   H     H_    0.075962 0.969440 0.648406 0.313790
O71   O     O_3   0.426755 0.441820 0.402924 -0.635837
H67   H     H_    0.424143 0.469233 0.352384 0.316003
O72   O     O_3   0.447361 0.402585 0.547198 -0.664961
H68   H     H_    0.457706 0.403311 0.599339 0.306373
H69   H     H_    0.006173 0.090619 0.382468 0.121791
H70   H     H_    0.055152 0.164939 0.638825 0.102746
H71   H     H_    0.444868 0.664762 0.361608 0.104982
H72   H     H_    0.494180 0.590771 0.618037 0.119843
H73   H     H_    0.931084 0.520334 0.356464 0.137702
H74   H     H_    0.001805 0.597561 0.605388 0.168377
H75   H     H_    0.498113 0.097630 0.394179 0.170547
H76   H     H_    0.568790 0.020845 0.643269 0.133558

loop_
_geom_bond_atom_site_label_1
_geom_bond_atom_site_label_2
_ccdc_geom_bond_type
C113  O9    A    
Cr12  O16   S    
Cr2   O42   S    
O54   H26   S    
C55   C56   A    
C47   O31   A    
Cr1   O21   S    
C2    C123  S    
Cr4   O24   S    
C84   O60   S    
C111  O47   A    
C94   C117  S    
C95   C99   A    
C46   O30   A    
O68   H60   S    
C29   C33   A    
Cr12  O36   S    
Cr8   O52   S    
C89   O37   A    
C70   C74   A    
C9    C121  A    
C87   C115  S    
C97   C105  S    
C10   H18   S    
C15   C127  S    
O59   H43   S    
C22   C130  A    
C20   C132  S    
C41   C49   A    
Cr7   O27   S    
Cr5   O25   S    
C118  O14   A    
C62   C66   A    
C60   C76   A    
C3    O27   A    
C72   H36   S    
C93   C102  A    
C1    O25   A    
C43   C44   A    
C20   H64   S    
Cr5   O5    S    
C37   C38   A    
C66   C82   S    
C78   C82   S    
O56   H28   S    
C16   C20   S    
C13   H55   S    
C14   H56   S    
Cr10  O14   S    
Cr5   O29   S    
C116  O12   A    
C108  O64   S    
C18   C130  S    
C4    O28   A    
C2    O22   A    
C10   C122  A    
C14   C126  S    
C17   H61   S    
C57   C61   A    
C59   C63   A    
C98   C106  S    
C91   O3    A    
C60   C64   A    
Cr8   O32   S    
C1    C124  S    
C89   O1    A    
C84   H12   S    
C92   O4    A    
C49   C53   A    
Cr9   O13   S    
Cr10  O38   S    
C127  C131  A    
C61   C65   A    
C114  O6    A    
C5    C21   A    
C76   H4    S    
Cr5   O49   S    
C126  C130  A    
C120  O44   A    
Cr11  O35   S    
C67   C83   S    
Cr1   O41   S    
Cr2   O18   S    
C43   C51   A    
C102  H14   S    
C97   C98   A    
C19   O67   S    
C53   C54   A    
C121  C125  A    
O61   H45   S    
C64   C68   A    
C110  O46   A    
O63   H47   S    
C83   H11   S    
C45   O29   A    
C81   H9    S    
C107  H51   S    
O57   H41   S    
C57   C73   A    
C69   H33   S    
C115  O7    A    
C60   C109  S    
Cr4   O44   S    
C27   C44   A    
Cr12  O12   S    
C61   C77   S    
C114  O10   A    
C29   C38   A    
C107  C108  S    
Cr11  O11   S    
C14   H22   S    
C51   C55   A    
Cr1   O17   S    
C44   C52   A    
O69   H65   S    
Cr4   O20   S    
C15   H23   S    
C49   H74   S    
C111  O51   A    
Cr3   O19   S    
C33   C34   A    
C21   C45   S    
C100  C108  S    
C23   C47   S    
C30   C34   A    
C24   C48   S    
C88   C116  S    
C39   C40   A    
C7    O55   S    
C73   H1    S    
C63   C67   A    
C5    C9    A    
O53   H25   S    
C15   H53   S    
C125  C129  A    
C25   C38   A    
C16   C128  S    
C123  C127  A    
C27   C40   A    
C8    C12   A    
C83   O59   S    
C11   H19   S    
C112  O52   A    
C23   C131  A    
C119  O15   A    
C50   H73   S    
C9    H17   S    
C120  O16   A    
C20   O68   S    
C21   C129  A    
C42   C50   A    
Cr6   O6    S    
C52   H75   S    
C93   C97   A    
C69   C85   A    
C58   C74   A    
C29   H69   S    
C62   C78   S    
C31   H71   S    
C36   O72   S    
C32   H72   S    
C66   C86   A    
C91   O39   A    
O66   H58   S    
C48   O36   A    
C119  O43   A    
C13   C17   S    
C85   C113  S    
C13   C125  S    
Cr10  O10   S    
C7    C23   A    
C96   C100  A    
C8    C24   A    
C82   O58   S    
C28   C91   S    
C112  O48   A    
Cr9   O37   S    
C109  O49   A    
Cr7   O51   S    
C78   H38   S    
Cr2   O2    S    
O72   H68   S    
C54   H30   S    
C18   H62   S    
C1    O21   A    
C58   C62   A    
Cr3   O43   S    
C34   O70   S    
C101  C102  A    
C41   C42   A    
C4    O24   A    
C96   C119  S    
C35   C36   A    
C80   C84   S    
O62   H46   S    
C15   C19   S    
C50   C54   A    
C48   O32   A    
Cr9   O9    S    
Cr10  O34   S    
C113  O5    A    
Cr6   O18   S    
C18   O66   S    
C94   C98   A    
O58   H42   S    
C6    C22   A    
C31   C40   A    
C107  O63   S    
C32   C39   A    
C81   O57   S    
Cr1   O1    S    
C90   O38   A    
Cr11  O39   S    
Cr4   O4    S    
O70   H66   S    
C69   C73   A    
Cr3   O3    S    
C124  C128  A    
C101  H13   S    
O67   H59   S    
C77   H37   S    
C64   C80   S    
C104  H16   S    
Cr5   O17   S    
Cr6   O26   S    
C58   C111  S    
C68   C84   S    
C55   H31   S    
C77   H5    S    
C63   C79   S    
C28   C39   A    
C75   H3    S    
C35   O71   S    
C30   C37   A    
C2    O26   A    
Cr8   O20   S    
C106  O62   S    
C12   H20   S    
C24   C132  A    
C65   C81   S    
C77   C81   S    
C25   C90   S    
C47   O35   A    
Cr11  O15   S    
Cr3   O23   S    
C71   C87   A    
C22   C46   S    
C31   C35   A    
C32   C36   A    
C6    O54   S    
C105  H49   S    
C74   H2    S    
C11   C123  A    
C25   C42   A    
C6    C10   A    
C26   C37   A    
C95   C120  S    
C99   C107  S    
C105  C106  S    
C28   C43   A    
Cr2   O46   S    
C118  O42   A    
C105  O61   S    
C51   H76   S    
C79   C83   S    
C80   H40   S    
C117  O41   A    
C4    C121  S    
C117  O13   A    
C46   O34   A    
C96   C103  A    
C103  C104  A    
C30   H70   S    
C53   H29   S    
Cr12  O40   S    
C5    O53   S    
C14   C18   S    
Cr7   O7    S    
C79   H39   S    
C72   C76   A    
C33   O69   S    
C26   C89   S    
C7    C11   A    
Cr9   O33   S    
C109  O45   A    
Cr7   O31   S    
C57   C112  S    
C59   C110  S    
C56   H32   S    
C70   H34   S    
C17   O65   S    
C13   H21   S    
Cr3   O47   S    
C94   C101  A    
O65   H57   S    
C3    C122  S    
Cr8   O8    S    
C16   H54   S    
Cr7   O19   S    
C128  C132  A    
C72   C88   A    
C8    O56   S    
C19   C131  S    
Cr10  O18   S    
C19   H63   S    
C116  O8    A    
C17   C129  S    
O71   H67   S    
C122  C126  A    
C92   O40   A    
C3    O23   A    
C99   C100  A    
C12   C124  A    
C90   O2    A    
O55   H27   S    
C27   C92   S    
Cr8   O28   S    
Cr6   O30   S    
C71   H35   S    
C68   C88   A    
C108  H52   S    
Cr9   O17   S    
C93   C118  S    
O64   H48   S    
C70   C86   A    
C59   C75   A    
C95   C104  A    
C78   H6    S    
C79   H7    S    
Cr12  O20   S    
C80   H8    S    
Cr11  O19   S    
O60   H44   S    
C65   C85   A    
C67   C87   A    
C86   C114  S    
Cr1   O45   S    
Cr2   O22   S    
C71   C75   A    
C103  H15   S    
C16   H24   S    
C110  O50   A    
C82   H10   S    
Cr6   O50   S    
C45   O33   A    
C106  H50   S    
C115  O11   A    
C52   C56   A    
C26   C41   A    
Cr4   O48   S    
