data_mof_unit_43066.cif
_audit_creation_date              2012-10-26T21:21:08-0400
_audit_creation_method            fapswitch 2.2
_symmetry_space_group_name_H-M    P1
_symmetry_Int_Tables_number       1
_space_group_crystal_system       triclinic
_cell_length_a                    10.784161
_cell_length_b                    10.94819
_cell_length_c                    9.695698
_cell_angle_alpha                 89.756466
_cell_angle_beta                  90.049421
_cell_angle_gamma                 90.844731
_cell_volume                      1144.60728103

loop_
_atom_site_label
_atom_site_type_symbol
_atom_type_description
_atom_site_fract_x
_atom_site_fract_y
_atom_site_fract_z
_atom_type_partial_charge
C1    C     C_R   0.501524 0.265688 0.500223 0.519663
C2    C     C_2   0.512630 0.134789 0.500604 -0.121097
C3    C     C_2   0.428636 0.427531 0.922469 0.235415
C4    C     C_R   0.262766 0.497406 0.499939 0.527388
C5    C     C_2   0.420649 0.437585 0.078104 -0.013587
C6    C     C_R   0.496612 0.734911 0.499507 0.611798
C7    C     C_R   0.737372 0.500096 0.500146 0.579246
C8    C     C_R   0.124204 0.285158 0.599873 -0.104998
C9    C     C_R   0.056576 0.184695 0.649076 -0.121774
C10   C     C_R   0.927701 0.185918 0.648357 -0.113003
C11   C     C_R   0.865643 0.288088 0.599350 -0.099753
C12   C     C_R   0.063105 0.390283 0.551246 0.020288
C13   C     C_R   0.932234 0.392266 0.551223 0.002070
C14   C     C_3   0.385423 0.214041 0.882696 -0.298187
C15   C     C_2   0.881100 0.715041 0.405158 0.562628
C16   C     C_3   0.533380 0.951167 0.133515 -0.317300
C17   C     C_3   0.281969 0.903900 0.617807 -0.311511
C18   C     C_R   0.129219 0.492523 0.499567 -0.025752
C19   C     C_R   0.068221 0.593963 0.447568 -0.153039
C20   C     C_R   0.939727 0.599369 0.450357 0.030970
C21   C     C_R   0.871476 0.497540 0.501263 -0.019788
C22   C     C_2   0.495938 0.937064 0.385939 0.150951
C23   C     C_2   0.474094 0.866305 0.499520 0.147278
C24   C     C_2   0.474402 0.069325 0.392241 -0.109395
Cu1   Cu    Cu3+1 0.500020 0.500020 0.638630 0.973126
Cu2   Cu    Cu3+1 0.499980 0.499980 0.361370 0.966864
H1    H     H_    0.122182 0.671675 0.410013 0.154004
H2    H     H_    0.433953 0.114580 0.303393 0.129980
H3    H     H_    0.258458 0.353265 0.875477 0.233715
H4    H     H_    0.328574 0.152320 0.816745 0.142016
H5    H     H_    0.368712 0.189478 0.992524 0.101651
H6    H     H_    0.484743 0.200130 0.857613 0.168304
H7    H     H_    0.891151 0.865035 0.283688 0.330637
H8    H     H_    0.633292 0.848251 0.276076 0.287021
H9    H     H_    0.567419 0.893688 0.047809 0.144753
H10   H     H_    0.588662 0.037604 0.135017 0.139881
H11   H     H_    0.434079 0.970615 0.113953 0.149854
H12   H     H_    0.557196 0.092721 0.588939 0.122686
H13   H     H_    0.453566 0.886201 0.710674 0.257807
H14   H     H_    0.244265 0.943084 0.714110 0.131993
H15   H     H_    0.253161 0.806090 0.612598 0.153947
H16   H     H_    0.242894 0.954100 0.528315 0.164392
H17   H     H_    0.547413 0.568008 0.894175 0.181595
H18   H     H_    0.347269 0.386518 0.129991 0.140818
H19   H     H_    0.573261 0.540020 0.105517 0.207389
H20   H     H_    0.224225 0.279202 0.599310 0.143765
H21   H     H_    0.104186 0.105295 0.687181 0.105099
H22   H     H_    0.875524 0.107167 0.685362 0.119657
H23   H     H_    0.765465 0.283974 0.599186 0.123822
N1    N     N_2   0.498640 0.498660 0.846910 -0.314606
N2    N     N_2   0.498610 0.498630 0.153040 -0.360512
N3    N     N_2   0.351252 0.339376 0.856480 -0.446038
N4    N     N_2   0.547092 0.886017 0.262757 -0.492366
N5    N     N_2   0.415671 0.915550 0.618832 -0.563895
O1    O     O_R   0.500020 0.321960 0.617040 -0.481599
O2    O     O_R   0.938824 0.787965 0.304530 -0.713191
O3    O     O_R   0.499980 0.321920 0.382900 -0.504047
O4    O     O_R   0.319670 0.500020 0.617100 -0.480739
O5    O     O_R   0.319630 0.499980 0.382950 -0.500487
O6    O     O_R   0.500020 0.678080 0.617100 -0.502854
O7    O     O_R   0.499980 0.678040 0.382960 -0.465385
O8    O     O_R   0.680370 0.500020 0.617050 -0.493738
O9    O     O_R   0.680330 0.499980 0.382900 -0.485839
O10   O     O_2   0.785112 0.748992 0.458726 -0.547994

loop_
_geom_bond_atom_site_label_1
_geom_bond_atom_site_label_2
_ccdc_geom_bond_type
C15   O10   D    
H17   N1    S    
C11   H23   S    
Cu1   O6    S    
C1    O3    A    
C23   N5    S    
C19   H1    S    
C9    C10   A    
C2    H12   S    
C19   C20   A    
C17   H14   S    
C8    C12   A    
C16   H11   S    
Cu2   O9    S    
C4    C18   S    
C15   O2    S    
H7    O2    S    
C1    O1    A    
C13   C21   A    
C7    O8    A    
C7    C21   S    
Cu2   N2    S    
C16   H10   S    
C10   H22   S    
C12   C13   A    
C11   C13   A    
C7    O9    A    
C14   H4    S    
C6    C23   S    
C17   N5    S    
C4    O5    A    
C14   N3    S    
Cu2   O3    S    
Cu2   O7    S    
Cu1   O1    S    
C9    H21   S    
C22   N4    S    
C22   C24   S    
Cu1   O8    S    
C16   H9    S    
C2    C24   D    
C15   C20   S    
C3    N3    S    
C8    H20   S    
H13   N5    S    
C10   C11   A    
H19   N2    S    
C12   C18   A    
C6    O6    A    
C17   H16   S    
C20   C21   A    
C6    O7    A    
H8    N4    S    
C1    C2    S    
Cu1   O4    S    
C4    O4    A    
C14   H5    S    
C16   N4    S    
C18   C19   A    
Cu2   O5    S    
C17   H15   S    
Cu1   Cu2   S    
C22   C23   D    
C5    H18   S    
Cu1   N1    S    
C3    N1    D    
C5    N2    D    
C24   H2    S    
C14   H6    S    
C8    C9    A    
C3    C5    S    
H3    N3    S    
