data_mof_unit_39860.cif
_audit_creation_date              2012-12-10T18:00:47-0500
_audit_creation_method            fapswitch 2.2
_symmetry_space_group_name_H-M    P1
_symmetry_Int_Tables_number       1
_space_group_crystal_system       triclinic
_cell_length_a                    15.869902
_cell_length_b                    10.775344
_cell_length_c                    9.584322
_cell_angle_alpha                 89.257438
_cell_angle_beta                  89.050369
_cell_angle_gamma                 91.404461
_cell_volume                      1638.09019826

loop_
_atom_site_label
_atom_site_type_symbol
_atom_type_description
_atom_site_fract_x
_atom_site_fract_y
_atom_site_fract_z
_atom_type_partial_charge
C1    C     C_R   0.497273 0.262483 0.500695 0.763778
C2    C     C_R   0.502727 0.737517 0.499305 0.763777
C3    C     C_R   0.446255 0.931507 0.414560 -0.104052
C4    C     C_R   0.553745 0.068493 0.585439 -0.104052
C5    C     C_R   0.504582 0.871637 0.498094 -0.145872
C6    C     C_R   0.495418 0.128363 0.501906 -0.145872
C7    C     C_R   0.441327 0.432437 0.078769 0.032045
C8    C     C_R   0.558673 0.567562 0.921231 0.032045
C9    C     C_R   0.440556 0.431293 0.930539 0.077194
C10   C     C_R   0.559444 0.568707 0.069460 0.077194
C11   C     C_R   0.339995 0.499866 0.500923 0.806257
C12   C     C_R   0.660005 0.500134 0.499077 0.806258
C13   C     C_3   0.970613 0.386762 0.535322 -0.132606
C14   C     C_3   0.029387 0.613237 0.464678 -0.132605
C15   C     C_3   0.028714 0.417166 0.408018 0.089554
C16   C     C_3   0.971285 0.582834 0.591982 0.089554
C17   C     C_1   0.250435 0.500311 0.502685 -0.100556
C18   C     C_1   0.749565 0.499689 0.497315 -0.100556
C19   C     C_3   0.025993 0.469923 0.628668 0.102490
C20   C     C_3   0.974007 0.530077 0.371331 0.102490
C21   C     C_3   0.083360 0.501145 0.501129 -0.012853
C22   C     C_3   0.916640 0.498855 0.498871 -0.012854
C23   C     C_1   0.174985 0.500811 0.502536 0.121410
C24   C     C_1   0.825015 0.499188 0.497464 0.121410
C25   C     C_R   0.440099 0.060200 0.416290 -0.027261
C26   C     C_R   0.559901 0.939800 0.583710 -0.027261
Cu1   Cu    Cu3+1 0.500000 0.500020 0.640660 0.965618
Cu2   Cu    Cu3+1 0.500000 0.499980 0.359340 0.965618
H1    H     H_    0.403419 0.876689 0.351734 0.196967
H2    H     H_    0.596580 0.123311 0.648265 0.196967
H3    H     H_    0.395407 0.377720 0.139303 0.173679
H4    H     H_    0.604593 0.622280 0.860697 0.173679
N1    N     N_R   0.500020 0.500030 0.852070 -0.228031
N2    N     N_R   0.499980 0.499970 0.147930 -0.228031
O1    O     O_R   0.500000 0.319660 0.618740 -0.601857
O2    O     O_R   0.500000 0.680340 0.381260 -0.601857
O3    O     O_R   0.499990 0.319630 0.381170 -0.577358
O4    O     O_R   0.500010 0.680370 0.618830 -0.577358
O5    O     O_R   0.379080 0.500000 0.618760 -0.591445
O6    O     O_R   0.620920 0.500000 0.381240 -0.591445
O7    O     O_R   0.379080 0.499970 0.381190 -0.571320
O8    O     O_R   0.620920 0.500030 0.618810 -0.571320
I1    I     I_    0.076549 0.284725 0.264247 -0.178725
I2    I     I_    0.923451 0.715275 0.735753 -0.178724
C27   C     C_2   0.939661 0.258506 0.575357 0.491490
H5    H     H_    0.984760 0.187418 0.598542 0.094044
O9    O     O_2   0.864335 0.233275 0.582119 -0.502754
C28   C     C_2   0.060338 0.741494 0.424642 0.491490
H6    H     H_    0.015240 0.812582 0.401458 0.094044
O10   O     O_2   0.135665 0.766725 0.417881 -0.502754
I3    I     I_    0.930082 0.579530 0.168690 -0.149792
I4    I     I_    0.069918 0.420470 0.831310 -0.149792
C29   C     C_2   0.373233 0.120672 0.334385 0.416267
H7    H     H_    0.357974 0.216869 0.351445 0.063094
O11   O     O_2   0.333381 0.063036 0.247436 -0.485103
C30   C     C_2   0.626768 0.879328 0.665615 0.416266
H8    H     H_    0.642026 0.783130 0.648555 0.063094
O12   O     O_2   0.666620 0.936965 0.752563 -0.485104
C31   C     C_2   0.374465 0.352507 0.865548 0.409028
H9    H     H_    0.381009 0.318605 0.761234 0.121285
O13   O     O_2   0.310313 0.321903 0.930734 -0.514614
C32   C     C_2   0.625534 0.647493 0.134452 0.409028
H10   H     H_    0.618990 0.681395 0.238766 0.121285
O14   O     O_2   0.689687 0.678096 0.069266 -0.514614

loop_
_geom_bond_atom_site_label_1
_geom_bond_atom_site_label_2
_ccdc_geom_bond_type
C12   O6    A    
C14   C28   S    
Cu2   O6    S    
C32   H10   S    
C1    O3    A    
C30   O12   D    
C2    O4    A    
C4    C26   A    
C13   C15   S    
C15   C21   S    
C4    H2    S    
C7    C9    A    
C28   O10   D    
C15   I1    S    
C31   H9    S    
C10   N2    A    
C10   C32   S    
C27   H5    S    
Cu1   N1    S    
C13   C27   S    
Cu1   O8    S    
C1    O1    A    
C17   C23   T    
C12   O8    A    
Cu1   O5    S    
Cu2   O3    S    
C9    N1    A    
C16   C19   S    
C18   C24   T    
C26   C30   S    
C14   C21   S    
C4    C6    A    
C28   H6    S    
C19   C21   S    
C20   C22   S    
C13   C22   S    
C11   O7    A    
C20   I3    S    
C14   C16   S    
C8    N1    A    
C29   O11   D    
C21   C23   S    
C15   C20   S    
C11   O5    A    
C7    N2    A    
C22   C24   S    
C31   O13   D    
C2    C5    S    
C7    H3    S    
C13   C19   S    
Cu1   O4    S    
Cu2   N2    S    
C5    C26   A    
C6    C25   A    
C14   C20   S    
Cu2   O7    S    
C3    C25   A    
C30   H8    S    
Cu2   O2    S    
C8    C10   A    
C27   O9    D    
C2    O2    A    
Cu1   Cu2   S    
C3    H1    S    
C16   I2    S    
C11   C17   S    
C32   O14   D    
Cu1   O1    S    
C29   H7    S    
C9    C31   S    
C19   I4    S    
C12   C18   S    
C25   C29   S    
C1    C6    S    
C16   C22   S    
C3    C5    A    
C8    H4    S    
