data_mof_unit_45460.cif
_audit_creation_date              2012-12-10T17:33:51-0500
_audit_creation_method            fapswitch 2.2
_symmetry_space_group_name_H-M    P1
_symmetry_Int_Tables_number       1
_space_group_crystal_system       triclinic
_cell_length_a                    10.857161
_cell_length_b                    12.09221
_cell_length_c                    12.983177
_cell_angle_alpha                 91.695806
_cell_angle_beta                  92.496874
_cell_angle_gamma                 86.090807
_cell_volume                      1698.33678204

loop_
_atom_site_label
_atom_site_type_symbol
_atom_type_description
_atom_site_fract_x
_atom_site_fract_y
_atom_site_fract_z
_atom_type_partial_charge
C1    C     C_R   0.491745 0.519964 0.700266 0.979792
C2    C     C_3   0.121640 0.504194 0.499926 -0.309243
C3    C     C_3   0.076279 0.412264 0.422557 -0.012204
C4    C     C_3   0.061914 0.619577 0.460985 -0.118523
C5    C     C_R   0.541313 0.469350 0.191490 -0.259632
C6    C     C_R   0.486314 0.528725 0.812415 -0.316659
C7    C     C_R   0.472796 0.646299 0.966056 0.557686
C8    C     C_R   0.443321 0.627846 0.861203 0.069954
C9    C     C_R   0.525802 0.436550 0.871977 0.516272
C10   C     C_R   0.546148 0.450223 0.978189 -0.235407
C11   C     C_R   0.521833 0.555968 0.025627 -0.194833
C12   C     C_R   0.742333 0.500626 0.498549 1.023460
C13   C     C_R   0.540194 0.565883 0.132653 0.328228
C14   C     C_R   0.573705 0.365291 0.144092 0.201733
C15   C     C_R   0.590182 0.359661 0.038570 0.504489
C16   C     C_R   0.398697 0.953577 0.387301 0.343278
C17   C     C_R   0.404169 0.836850 0.401888 0.494849
C18   C     C_R   0.544341 0.856540 0.546707 0.541475
C19   C     C_R   0.540482 0.973899 0.534430 -0.220057
C20   C     C_R   0.460586 0.024292 0.459125 -0.185631
C21   C     C_R   0.451733 0.143203 0.454693 0.387045
C22   C     C_R   0.606150 0.158405 0.588969 0.663067
C23   C     C_R   0.513513 0.479620 0.300657 1.015661
C24   C     C_R   0.619034 0.040844 0.592452 -0.393047
C25   C     C_R   0.258012 0.500919 0.501368 1.026034
C26   C     C_3   0.935247 0.497880 0.610613 -0.039915
C27   C     C_3   0.078151 0.491559 0.611867 0.293108
C28   C     C_3   0.933824 0.405214 0.424765 0.418221
C29   C     C_3   0.915558 0.620261 0.451828 0.849392
C30   C     C_3   0.878982 0.504003 0.496215 -0.292473
H1    H     H_    0.102074 0.631040 0.386573 0.174038
H2    H     H_    0.906218 0.578201 0.649230 0.196994
H3    H     H_    0.692498 0.001037 0.638799 0.178229
H4    H     H_    0.101699 0.569611 0.652659 0.204551
H5    H     H_    0.120112 0.331327 0.445253 0.207107
N1    N     N_R   0.523380 0.207800 0.519350 -0.177300
N2    N     N_R   0.476620 0.792180 0.480650 -0.178513
O1    O     O_R   0.506240 0.421700 0.658830 -0.555346
O2    O     O_R   0.491240 0.609310 0.646410 -0.581291
O3    O     O_R   0.692710 0.406190 0.506230 -0.534107
O4    O     O_R   0.677700 0.593810 0.493810 -0.558882
O5    O     O_R   0.508760 0.390690 0.353590 -0.557858
O6    O     O_R   0.493760 0.578300 0.341170 -0.546833
O7    O     O_R   0.322300 0.406190 0.506190 -0.627661
O8    O     O_R   0.307290 0.593810 0.493770 -0.566665
Zn1   Zn    Zn3+2 0.510020 0.374730 0.508290 1.096800
Zn2   Zn    Zn3+2 0.489980 0.625270 0.491710 1.106708
Br1   Br    Br    0.864321 0.405035 0.708026 -0.473496
Br2   Br    Br    0.851666 0.402974 0.286827 -0.396343
Br3   Br    Br    0.140204 0.430298 0.284002 -0.439904
Br4   Br    Br    0.596784 0.702476 0.193476 -0.489678
Br5   Br    Br    0.607775 0.228399 0.216646 -0.418492
O9    O     O_3   0.440350 0.748269 0.012405 -0.554183
C31   C     C_3   0.514253 0.829521 0.975194 -0.236656
H6    H     H_    0.466075 0.872461 0.909342 0.183147
H7    H     H_    0.608485 0.796169 0.954156 0.138023
H8    H     H_    0.528270 0.893750 0.036097 0.184219
O10   O     O_3   0.642769 0.263123 0.994524 -0.577335
C32   C     C_3   0.772443 0.268243 0.002153 -0.192559
H9    H     H_    0.807569 0.276233 0.083542 0.225500
H10   H     H_    0.802330 0.337911 0.957109 0.179380
H11   H     H_    0.815892 0.189666 0.970207 0.168327
Br6   Br    Br    0.321494 0.726918 0.792253 -0.452947
O11   O     O_3   0.538315 0.331558 0.826875 -0.538920
C33   C     C_3   0.423963 0.282810 0.829348 -0.186710
H12   H     H_    0.347593 0.336379 0.793429 0.179716
H13   H     H_    0.401878 0.264336 0.909632 0.173403
H14   H     H_    0.430252 0.203267 0.784465 0.155738
Br7   Br    Br    0.332868 0.216641 0.363178 -0.351046
O12   O     O_3   0.676893 0.226751 0.652112 -0.517921
C34   C     C_3   0.730183 0.173073 0.740380 -0.127669
H15   H     H_    0.814658 0.121147 0.720450 0.142446
H16   H     H_    0.663013 0.124839 0.779691 0.134965
H17   H     H_    0.759227 0.236341 0.797128 0.244494
O13   O     O_3   0.342729 0.996232 0.298304 -0.579439
C35   C     C_3   0.428065 0.985275 0.219238 -0.169797
H18   H     H_    0.521697 0.009881 0.245014 0.188264
H19   H     H_    0.434494 0.898874 0.188806 0.213971
H20   H     H_    0.393914 0.039512 0.155231 0.213085
O14   O     O_3   0.354190 0.762933 0.329997 -0.551906
C36   C     C_3   0.234069 0.796700 0.292417 -0.133492
H21   H     H_    0.177667 0.842941 0.351088 0.169549
H22   H     H_    0.187914 0.721442 0.266805 0.157317
H23   H     H_    0.236776 0.844826 0.221447 0.206745
O15   O     O_3   0.625470 0.803112 0.617402 -0.563453
C37   C     C_3   0.595093 0.832274 0.719804 -0.225153
H24   H     H_    0.595008 0.755340 0.763561 0.201861
H25   H     H_    0.504042 0.879680 0.727329 0.161659
H26   H     H_    0.668613 0.880133 0.757904 0.138570
O16   O     O_3   0.145030 0.413992 0.678027 -0.594361
C38   C     C_3   0.141321 0.301033 0.649456 -0.179020
H27   H     H_    0.049258 0.277667 0.624884 0.233211
H28   H     H_    0.166751 0.251837 0.718828 0.163721
H29   H     H_    0.210604 0.274990 0.592324 0.173192
Br8   Br    Br    0.899816 0.255590 0.466610 -0.420270
O17   O     O_3   0.859134 0.628711 0.349526 -0.590933
C39   C     C_3   0.923661 0.681295 0.274234 -0.255306
H30   H     H_    0.985744 0.619921 0.233604 0.221833
H31   H     H_    0.975286 0.751649 0.304153 0.104689
H32   H     H_    0.856293 0.715417 0.215168 0.231644
O18   O     O_3   0.863991 0.707108 0.518004 -0.596814
C40   C     C_3   0.833158 0.809287 0.469506 0.005308
H33   H     H_    0.753957 0.803050 0.412976 0.178356
H34   H     H_    0.912998 0.843434 0.434847 0.139292
H35   H     H_    0.805789 0.871705 0.529479 0.180914
Br9   Br    Br    0.116361 0.749760 0.545053 -0.494827

loop_
_geom_bond_atom_site_label_1
_geom_bond_atom_site_label_2
_ccdc_geom_bond_type
C26   H2    S    
O18   C40   S    
C9    O11   S    
C19   C20   A    
C35   H20   S    
C39   H32   S    
C6    C9    A    
C39   H30   S    
C7    C8    A    
C21   N1    A    
O9    C31   S    
O3    Zn1   S    
C26   C27   S    
C29   C30   S    
C23   O5    A    
C27   O16   S    
C28   Br8   S    
C3    C28   S    
C18   N2    A    
C35   H19   S    
C10   C15   A    
C37   H25   S    
C16   O13   S    
C23   O6    A    
C40   H35   S    
C18   C19   A    
O5    Zn1   S    
C36   H22   S    
C13   Br4   S    
C14   Br5   S    
C16   C17   A    
C33   H13   S    
N1    Zn1   S    
O12   C34   S    
N2    Zn2   S    
C9    C10   A    
C5    C13   A    
C4    C29   S    
C26   Br1   S    
C32   H9    S    
C25   O7    A    
C39   H31   S    
C3    Br3   S    
O7    Zn1   S    
C36   H21   S    
O8    Zn2   S    
C27   H4    S    
C31   H7    S    
C32   H10   S    
C18   O15   S    
C1    C6    S    
C35   H18   S    
C38   H27   S    
C34   H16   S    
C37   H24   S    
C6    C8    A    
O10   C32   S    
O15   C37   S    
C4    Br9   S    
C17   O14   S    
C21   Br7   S    
C12   O3    A    
C2    C4    S    
O13   C35   S    
C12   O4    A    
C38   H28   S    
C28   Br2   S    
C7    C11   A    
C5    C23   S    
C3    H5    S    
C16   C20   A    
C33   H14   S    
O17   C39   S    
O4    Zn2   S    
C29   O18   S    
C17   N2    A    
C40   H34   S    
C5    C14   A    
C2    C27   S    
C1    O1    A    
C26   C30   S    
C15   O10   S    
C22   C24   A    
C7    O9    S    
C25   O8    A    
C36   H23   S    
O2    Zn2   S    
C31   H6    S    
C32   H11   S    
C12   C30   S    
O14   C36   S    
C37   H26   S    
C34   H17   S    
C22   N1    A    
C24   H3    S    
O11   C33   S    
C28   C30   S    
C2    C3    S    
C34   H15   S    
C29   O17   S    
C38   H29   S    
C11   C13   A    
O16   C38   S    
C19   C24   A    
C2    C25   S    
C40   H33   S    
O1    Zn1   S    
C4    H1    S    
C10   C11   A    
C1    O2    A    
C8    Br6   S    
C20   C21   A    
C33   H12   S    
C14   C15   A    
O6    Zn2   S    
C22   O12   S    
C31   H8    S    
