data_mof_unit_23168.cif
_audit_creation_date              2012-10-26T18:50:04-0400
_audit_creation_method            fapswitch 2.2
_symmetry_space_group_name_H-M    P1
_symmetry_Int_Tables_number       1
_space_group_crystal_system       triclinic
_cell_length_a                    10.815
_cell_length_b                    12.951574
_cell_length_c                    11.685847
_cell_angle_alpha                 101.873756
_cell_angle_beta                  93.817354
_cell_angle_gamma                 89.638171
_cell_volume                      1598.22870667

loop_
_atom_site_label
_atom_site_type_symbol
_atom_type_description
_atom_site_fract_x
_atom_site_fract_y
_atom_site_fract_z
_atom_type_partial_charge
C1    C     C_R   0.504031 0.298173 0.476028 0.627611
C2    C     C_R   0.522818 0.859867 0.449436 -0.084168
C3    C     C_R   0.441221 0.030066 0.530857 -0.031062
C4    C     C_R   0.503097 0.964401 0.441885 -0.032190
C5    C     C_R   0.382495 0.405183 0.014848 -0.099013
C6    C     C_R   0.617009 0.594940 0.985571 -0.074723
C7    C     C_R   0.392119 0.410760 0.136658 0.413784
C8    C     C_R   0.608448 0.588633 0.863819 0.428112
C9    C     C_R   0.550811 0.541245 0.159619 0.054311
C10   C     C_R   0.448235 0.459457 0.840512 0.043308
C11   C     C_R   0.542052 0.534432 0.036627 -0.037720
C12   C     C_R   0.493130 0.701900 0.524086 0.610737
C13   C     C_R   0.456891 0.466188 0.963626 -0.046796
C14   C     C_R   0.262255 0.514229 0.502762 0.599561
C15   C     C_R   0.737885 0.486062 0.497309 0.603765
C16   C     C_R   0.127169 0.549370 0.722885 -0.054586
C17   C     C_R   0.873685 0.454147 0.276052 -0.070971
C18   C     C_R   0.080620 0.519892 0.819203 -0.112881
C19   C     C_R   0.922949 0.483123 0.180497 -0.127032
C20   C     C_R   0.977123 0.455105 0.803855 -0.043632
C21   C     C_R   0.027327 0.546934 0.197379 -0.028038
C22   C     C_R   0.912119 0.427367 0.694203 0.254246
C23   C     C_R   0.478512 0.817507 0.539631 -0.000264
C24   C     C_R   0.089543 0.574542 0.308174 0.256461
C25   C     C_R   0.948957 0.470890 0.598156 0.015022
C26   C     C_R   0.051563 0.529571 0.402336 -0.000445
C27   C     C_R   0.068179 0.517528 0.609287 -0.024113
C28   C     C_R   0.932106 0.483559 0.390503 -0.018630
C29   C     C_R   0.874398 0.469682 0.492614 0.031731
C30   C     C_R   0.125779 0.530415 0.507377 0.006876
C31   C     C_R   0.504516 0.182329 0.456972 -0.008179
C32   C     C_R   0.545249 0.004667 0.347447 0.222773
C33   C     C_R   0.378263 0.986439 0.612204 0.256161
C34   C     C_R   0.557406 0.115405 0.360147 0.249823
C35   C     C_R   0.408166 0.882460 0.626629 0.216799
C36   C     C_R   0.444525 0.138654 0.537769 -0.106051
Cu1   Cu    Cu3+1 0.509250 0.507730 0.615930 1.150504
Cu2   Cu    Cu3+1 0.490750 0.492270 0.384070 1.151269
H1    H     H_    0.056948 0.578590 0.124682 0.159289
H2    H     H_    0.405089 0.191270 0.610263 0.199509
H3    H     H_    0.381841 0.406120 0.785064 0.138130
H4    H     H_    0.616912 0.594867 0.215085 0.140925
H5    H     H_    0.964812 0.207815 0.694513 0.372991
H6    H     H_    0.138056 0.770735 0.501450 0.385956
H7    H     H_    0.420287 0.977222 0.878938 0.370951
H8    H     H_    0.803589 0.115132 0.156723 0.382101
H9    H     H_    0.454728 0.999712 0.099201 0.379622
H10   H     H_    0.077934 0.023510 0.749425 0.388912
H11   H     H_    0.756654 0.844525 0.904263 0.393354
H12   H     H_    0.949118 0.424103 0.877575 0.161382
H13   H     H_    0.207121 0.252238 0.308778 0.374560
H14   H     H_    0.316682 0.351351 0.958798 0.174052
H15   H     H_    0.683053 0.648512 0.041702 0.176929
H16   H     H_    0.209165 0.598378 0.739374 0.207753
H17   H     H_    0.790490 0.407232 0.257110 0.206202
H18   H     H_    0.128755 0.542845 0.904916 0.142046
H19   H     H_    0.875692 0.461197 0.094268 0.136652
H20   H     H_    0.578549 0.810542 0.386647 0.191238
N1    N     N_R   0.523180 0.519350 0.790130 -0.235818
N2    N     N_R   0.476820 0.480650 0.209870 -0.240890
O1    O     O_R   0.506570 0.354460 0.582000 -0.491442
O2    O     O_2   0.778815 0.268646 0.553099 -0.258024
O3    O     O_3   0.889912 0.224106 0.739116 -0.479093
O4    O     O_2   0.300623 0.662610 0.268447 -0.221601
O5    O     O_2   0.116085 0.771154 0.277202 -0.225185
O6    O     O_3   0.216084 0.737525 0.473058 -0.532554
O7    O     O_2   0.234966 0.782798 0.719691 -0.230999
O8    O     O_2   0.446013 0.767195 0.799507 -0.222744
O9    O     O_3   0.337868 0.942388 0.862937 -0.390531
O10   O     O_2   0.574205 0.197262 0.167479 -0.239488
O11   O     O_2   0.719817 0.264185 0.333828 -0.298767
O12   O     O_R   0.493430 0.645540 0.418000 -0.484807
O13   O     O_3   0.760658 0.080847 0.211477 -0.403843
O14   O     O_2   0.694447 0.872542 0.211213 -0.206612
O15   O     O_2   0.474670 0.825867 0.192559 -0.242912
O16   O     O_3   0.542098 0.976422 0.096561 -0.399627
O17   O     O_2   0.293447 0.132171 0.788203 -0.272626
O18   O     O_2   0.188071 0.119644 0.594106 -0.299092
O19   O     O_3   0.139947 0.976166 0.707458 -0.404058
O20   O     O_2   0.842855 0.652857 0.870548 -0.324850
O21   O     O_2   0.721434 0.690549 0.702344 -0.252815
O22   O     O_3   0.682550 0.800355 0.905664 -0.429422
O23   O     O_R   0.490940 0.341410 0.386200 -0.411144
O24   O     O_2   0.160649 0.341001 0.125364 -0.318613
O25   O     O_2   0.322402 0.210266 0.108160 -0.223181
O26   O     O_3   0.272262 0.306618 0.313229 -0.501244
O27   O     O_R   0.509060 0.658590 0.613800 -0.423376
O28   O     O_R   0.327470 0.506520 0.597900 -0.552311
O29   O     O_R   0.672530 0.493480 0.402100 -0.545286
O30   O     O_R   0.311840 0.493460 0.402100 -0.423290
O31   O     O_R   0.688160 0.506540 0.597900 -0.436712
O32   O     O_2   0.700638 0.346053 0.744107 -0.250924
S1    S     S_3+6 0.814507 0.315797 0.678741 0.037508
S2    S     S_3+6 0.183642 0.688582 0.330085 0.039891
S3    S     S_3+6 0.356894 0.839241 0.752156 0.117631
S4    S     S_3+6 0.652864 0.167835 0.266460 0.092884
S5    S     S_3+6 0.565393 0.916209 0.210423 0.101391
S6    S     S_3+6 0.248542 0.057167 0.677403 0.056539
S7    S     S_3+6 0.715687 0.680468 0.827029 0.079478
S8    S     S_3+6 0.287203 0.317391 0.174366 0.073639

loop_
_geom_bond_atom_site_label_1
_geom_bond_atom_site_label_2
_ccdc_geom_bond_type
Cu2   O23   S    
O22   S7    S    
O19   S6    S    
H6    O6    S    
O15   S5    D    
H5    O3    S    
C19   H19   S    
C12   C23   S    
C9    H4    S    
H10   O19   S    
C28   C29   A    
C19   C21   A    
C8    S7    S    
C34   S4    S    
H9    O16   S    
C8    N1    A    
C3    C33   A    
C1    C31   S    
C32   S5    S    
C33   S6    S    
C14   O30   A    
C20   H12   S    
Cu1   O28   S    
C17   C19   A    
O10   S4    D    
C22   C25   A    
C21   H1    S    
O18   S6    D    
C5    H14   S    
O26   S8    S    
C17   H17   S    
C5    C13   A    
C18   H18   S    
O6    S2    S    
C16   C27   A    
C12   O12   A    
C27   C30   A    
O7    S3    D    
C14   C30   S    
H13   O26   S    
C15   C29   S    
O14   S5    D    
C25   C29   A    
Cu2   O12   S    
O8    S3    D    
C7    S8    S    
Cu1   O31   S    
H7    O9    S    
O24   S8    D    
C36   H2    S    
C6    C11   A    
C5    C7    A    
C6    C8    A    
O11   S4    D    
O21   S7    D    
O16   S5    S    
C15   O31   A    
C32   C34   A    
H11   O22   S    
C2    C4    A    
Cu1   Cu2   S    
C24   S2    S    
C15   O29   A    
Cu2   O29   S    
C31   C34   A    
O17   S6    D    
Cu1   N1    S    
C9    C11   A    
C4    C32   A    
Cu2   N2    S    
O5    S2    D    
C20   C22   A    
C26   C30   A    
C23   C35   A    
O20   S7    D    
C22   S1    S    
O2    S1    D    
C1    O23   A    
C6    H15   S    
C3    C4    A    
C7    N2    A    
O3    S1    S    
C12   O27   A    
C17   C28   A    
Cu1   O27   S    
C24   C26   A    
O9    S3    S    
C10   C13   A    
C1    O1    A    
Cu1   O1    S    
C2    H20   S    
C35   S3    S    
C25   C27   A    
Cu2   O30   S    
C26   C28   A    
C9    N2    A    
C10   N1    A    
C14   O28   A    
O25   S8    D    
C11   C13   A    
C3    C36   A    
O32   S1    D    
C33   C35   A    
C18   C20   A    
C16   H16   S    
O4    S2    D    
C16   C18   A    
C21   C24   A    
C2    C23   A    
C31   C36   A    
O13   S4    S    
H8    O13   S    
C10   H3    S    
