data_mof_unit_40704.cif
_audit_creation_date              2013-03-05T16:02:02-0500
_audit_creation_method            fapswitch 2.2
_symmetry_space_group_name_H-M    P1
_symmetry_Int_Tables_number       1
_space_group_crystal_system       triclinic
_cell_length_a                    6.931627
_cell_length_b                    17.531125
_cell_length_c                    19.528583
_cell_angle_alpha                 108.524604
_cell_angle_beta                  89.646195
_cell_angle_gamma                 90.953397
_cell_volume                      2249.8290656

loop_
_atom_site_label
_atom_site_type_symbol
_atom_site_description
_atom_site_fract_x
_atom_site_fract_y
_atom_site_fract_z
_atom_type_partial_charge
O1    O     O_R   0.494330 0.415720 0.413720 -0.587521
O2    O     O_R   0.819330 0.430070 0.560210 -0.565151
O3    O     O_R   0.994320 0.584280 0.586280 -0.557036
C1    C     C_R   0.650341 0.416690 0.583278 1.006493
O4    O     O_R   0.823730 0.406300 0.412670 -0.613362
O5    O     O_R   0.998760 0.560340 0.437690 -0.606067
C2    C     C_R   0.655127 0.383533 0.384815 0.961782
O6    O     O_R   0.489890 0.439660 0.562310 -0.595507
O7    O     O_3   0.662340 0.550560 0.508380 -0.255088
V1    V     V_3+5 0.935370 0.490620 0.498450 1.223985
O8    O     O_R   0.328750 0.569930 0.439790 -0.553429
C3    C     C_R   0.161648 0.580085 0.414061 1.015190
O9    O     O_R   0.324340 0.593700 0.587330 -0.591905
C4    C     C_R   0.156836 0.618727 0.613832 1.031039
V2    V     V_3+5 0.435940 0.509380 0.501550 1.223555
O10   O     O_3   0.159100 0.449440 0.491620 -0.277382
H1    H     H_    0.935876 0.870995 0.575000 0.141583
C5    C     C_R   0.303954 0.604540 0.748159 -0.048590
C6    C     C_R   0.369812 0.594483 0.811946 -0.066753
C7    C     C_R   0.353294 0.656443 0.876930 -0.131424
C8    C     C_R   0.270729 0.728923 0.878618 -0.153181
C9    C     C_R   0.203660 0.741154 0.814638 0.118810
C10   C     C_R   0.220082 0.677542 0.747872 0.104414
C11   C     C_R   0.114979 0.814197 0.816819 -0.297566
C12   C     C_R   0.043138 0.823441 0.752159 0.116371
C13   C     C_R   0.084220 0.764612 0.684526 0.066640
C14   C     C_R   0.155390 0.688212 0.682570 -0.293952
C15   C     C_R   0.939534 0.892651 0.752780 -0.186865
C16   C     C_R   0.886677 0.905193 0.688670 -0.143728
C17   C     C_R   0.953985 0.854277 0.623369 -0.092306
C18   C     C_R   0.063173 0.787433 0.621502 0.114578
H2    H     H_    0.320778 0.554427 0.699283 0.157812
H3    H     H_    0.433766 0.538180 0.810886 0.133898
H4    H     H_    0.403707 0.648184 0.926426 0.123251
H5    H     H_    0.257899 0.774672 0.930764 0.106831
H6    H     H_    0.899100 0.938257 0.802262 0.139104
H7    H     H_    0.807344 0.958376 0.690107 0.133694
C19   C     C_R   0.304684 0.622116 0.310397 0.110892
C20   C     C_R   0.155374 0.626441 0.361700 -0.199919
C21   C     C_R   0.996439 0.675991 0.363342 -0.211508
C22   C     C_R   0.986245 0.722730 0.317053 0.148585
C23   C     C_R   0.137961 0.720955 0.268158 -0.001397
C24   C     C_R   0.298267 0.670913 0.264751 0.085557
C25   C     C_R   0.826843 0.771925 0.319326 -0.183868
C26   C     C_R   0.816851 0.818757 0.273275 -0.220029
C27   C     C_R   0.966520 0.817638 0.224290 0.147327
C28   C     C_R   0.128402 0.769045 0.222068 0.048438
C29   C     C_R   0.280689 0.768463 0.173696 0.159015
C30   C     C_R   0.439203 0.719337 0.170813 -0.236881
C31   C     C_R   0.447759 0.671050 0.215337 -0.161046
C32   C     C_R   0.957538 0.864309 0.177610 -0.256207
C33   C     C_R   0.110829 0.864662 0.130009 -0.145426
C34   C     C_R   0.272264 0.816864 0.128812 -0.266265
H8    H     H_    0.880779 0.679134 0.401749 0.173940
H9    H     H_    0.708937 0.773828 0.356513 0.156119
H10   H     H_    0.691611 0.855769 0.275896 0.144443
H11   H     H_    0.832919 0.901416 0.179205 0.136618
H12   H     H_    0.390319 0.816278 0.091944 0.141047
H13   H     H_    0.557727 0.718335 0.134077 0.143623
H14   H     H_    0.575057 0.635196 0.210905 0.174510
C35   C     C_R   0.783697 0.183176 0.867874 -0.270362
C36   C     C_R   0.623664 0.132926 0.867903 -0.147725
C37   C     C_R   0.468930 0.129849 0.820606 -0.246483
C38   C     C_R   0.473610 0.175961 0.773490 0.139952
C39   C     C_R   0.633151 0.227419 0.774672 0.060303
C40   C     C_R   0.787836 0.231358 0.822472 0.164146
C41   C     C_R   0.321009 0.171860 0.725483 -0.218805
C42   C     C_R   0.326292 0.218258 0.678927 -0.176854
C43   C     C_R   0.483274 0.270294 0.680027 0.151700
C44   C     C_R   0.637267 0.275398 0.728407 -0.013933
C45   C     C_R   0.793906 0.329031 0.731363 -0.032173
C46   C     C_R   0.944938 0.333264 0.780609 -0.132694
C47   C     C_R   0.942855 0.284333 0.824835 -0.238257
C48   C     C_R   0.488787 0.316860 0.633320 -0.217076
C49   C     C_R   0.643145 0.370494 0.635437 -0.318152
C50   C     C_R   0.793966 0.378164 0.686151 0.309930
H15   H     H_    0.902613 0.186371 0.904559 0.139080
H16   H     H_    0.345452 0.090804 0.819936 0.139578
H17   H     H_    0.197217 0.132776 0.723979 0.142239
H18   H     H_    0.206505 0.213935 0.642414 0.138811
H19   H     H_    0.373629 0.310658 0.594507 0.168100
H20   H     H_    0.066577 0.374030 0.785260 0.178126
H21   H     H_    0.062325 0.288495 0.861457 0.140649
H22   H     H_    0.261127 0.162695 0.418749 0.114341
C51   C     C_R   0.872599 0.384964 0.256518 -0.128748
C52   C     C_R   0.969422 0.389570 0.195263 -0.089600
C53   C     C_R   0.946918 0.328590 0.130005 -0.110452
C54   C     C_R   0.830156 0.261931 0.125873 -0.150681
C55   C     C_R   0.734982 0.254062 0.187835 0.115813
C56   C     C_R   0.752191 0.317992 0.254351 0.126886
C57   C     C_R   0.621245 0.184704 0.183868 -0.322415
C58   C     C_R   0.523042 0.179671 0.246411 0.124650
C59   C     C_R   0.534746 0.244747 0.312366 0.115006
C60   C     C_R   0.646734 0.314625 0.316221 -0.312683
C61   C     C_R   0.416976 0.109443 0.245349 -0.172434
C62   C     C_R   0.321791 0.104152 0.306696 -0.119110
C63   C     C_R   0.332975 0.167545 0.370887 -0.108691
C64   C     C_R   0.439536 0.236666 0.374217 -0.161363
H23   H     H_    0.891853 0.435652 0.304806 0.147187
H24   H     H_    0.059822 0.441520 0.198275 0.137278
H25   H     H_    0.019410 0.333117 0.082149 0.118146
H26   H     H_    0.814397 0.217399 0.073207 0.117010
H27   H     H_    0.408237 0.057128 0.197724 0.126839
H28   H     H_    0.241103 0.050033 0.304609 0.121551
H29   H     H_    0.448911 0.282593 0.426348 0.111285
O11   O     O_R   0.775200 0.060470 0.937800 -0.606367
O12   O     O_R   0.441110 0.093720 0.087350 -0.591230
O13   O     O_R   0.266330 0.939630 0.062280 -0.606553
C65   C     C_R   0.610200 0.116443 0.115125 0.942793
O14   O     O_R   0.445750 0.069950 0.939820 -0.596934
O15   O     O_R   0.271000 0.915700 0.913700 -0.588768
C66   C     C_R   0.615022 0.084508 0.917814 0.946793
O16   O     O_R   0.770530 0.084400 0.086380 -0.593509
O17   O     O_3   0.602830 0.949510 0.991680 -0.273816
V3    V     V_3+5 0.329710 0.009370 0.001550 1.153614
O18   O     O_R   0.940990 0.906170 0.912570 -0.595192
C67   C     C_R   0.108836 0.882863 0.885320 0.940231
O19   O     O_R   0.936350 0.929940 0.060100 -0.596556
C68   C     C_R   0.103933 0.914982 0.081777 0.945542
V4    V     V_3+5 0.829160 0.990450 0.998310 1.152697
O20   O     O_3   0.105910 0.050480 0.008320 -0.274167
N1    N     N_R   0.941065 0.438829 0.694302 0.223765
O21   O     O_R   0.894995 0.514388 0.714774 -0.441851
O22   O     O_R   0.117614 0.418404 0.675160 -0.459579
I1    I     I_    0.271299 0.758316 0.538061 -0.446453
I2    I     I_    0.527970 0.535641 0.295469 -0.484160

loop_
_geom_bond_atom_site_label_1
_geom_bond_atom_site_label_2
_geom_bond_distance
_ccdc_geom_bond_type
C42   H18   1.083730 S    
C53   C54   1.391630 A    
C59   C60   1.421074 A    
V3    O20   1.708084 S    
C22   C23   1.410132 A    
C61   C62   1.392114 A    
C1    O6    1.300804 A    
C63   C64   1.392448 A    
O11   C66   1.299270 A    
C51   C52   1.391971 A    
V4    O20   2.152314 S    
C12   C15   1.416897 A    
C11   C67   1.489353 S    
C36   C37   1.408921 A    
C64   H29   1.080349 S    
H22   C63   1.082700 S    
O13   V3    1.997844 S    
C15   C16   1.390430 A    
O5    C3    1.299856 A    
C17   C18   1.396214 A    
V2    O10   2.152255 S    
O18   C67   1.293741 A    
C5    C6    1.392991 A    
O19   C68   1.297718 A    
C1    C49   1.489337 S    
C53   H25   1.082684 S    
O8    V2    1.996077 S    
C35   C40   1.405422 A    
C6    C7    1.389205 A    
C26   H10   1.083678 S    
C35   H15   1.084475 S    
C42   C43   1.404100 A    
C44   C45   1.413705 A    
O1    V2    2.006430 S    
C10   C14   1.422593 A    
C4    C14   1.499030 S    
C55   C57   1.419500 A    
C52   H24   1.083029 S    
O7    V1    2.157706 S    
C65   O16   1.295552 A    
C7    H4    1.082665 S    
C13   C18   1.418878 A    
C8    C9    1.415617 A    
H1    C17   1.082811 S    
O12   C65   1.296786 A    
O13   C68   1.296879 A    
C35   C36   1.405120 A    
C19   I2    2.137845 S    
C61   H27   1.080130 S    
C56   C60   1.425012 A    
O19   V4    1.996020 S    
C29   C34   1.402337 A    
C48   C49   1.404624 A    
C41   C42   1.399318 A    
C38   C41   1.403519 A    
C41   H17   1.083792 S    
C11   C12   1.417465 A    
C6    H3    1.082901 S    
C55   C56   1.424792 A    
C20   C21   1.408192 A    
O4    C2    1.294380 A    
C52   C53   1.386528 A    
C12   C13   1.424345 A    
C26   C27   1.402940 A    
C40   C47   1.399790 A    
C27   C32   1.407372 A    
C58   C61   1.417949 A    
C32   C33   1.408687 A    
C19   C20   1.422033 A    
O2    C1    1.296745 A    
C49   C50   1.419629 A    
C16   C17   1.387031 A    
C51   H23   1.077890 S    
O16   V4    2.012356 S    
C28   C29   1.410197 A    
C51   C56   1.418857 A    
C62   C63   1.387666 A    
C13   C14   1.424082 A    
C43   C48   1.404117 A    
O17   V4    1.702682 S    
C7    C8    1.393041 A    
O12   V3    1.998505 S    
O3    C4    1.304447 A    
C32   H11   1.084360 S    
C21   C22   1.402462 A    
C39   C40   1.412348 A    
O6    V2    1.995983 S    
C21   H8    1.084479 S    
O9    V2    2.009551 S    
C22   C25   1.404772 A    
C9    C11   1.417959 A    
C5    H2    1.079649 S    
C23   C24   1.415362 A    
C18   I1    2.112803 S    
C48   H19   1.084302 S    
N1    O22   1.299793 A    
O2    V1    2.000383 S    
C57   C58   1.420961 A    
C33   C34   1.404751 A    
C2    C60   1.492467 S    
C27   C28   1.412246 A    
C29   C30   1.397171 A    
O11   V4    1.996378 S    
O1    C2    1.300037 A    
C25   C26   1.399812 A    
C46   C47   1.397204 A    
O5    V1    1.998040 S    
C54   H26   1.080529 S    
C34   H12   1.084626 S    
C24   C31   1.412089 A    
O17   V3    2.157678 S    
C8    H5    1.081867 S    
C30   H13   1.084043 S    
O15   C67   1.298266 A    
C50   N1    1.433332 S    
C38   C39   1.411111 A    
C57   C65   1.489142 S    
C3    C20   1.495899 S    
C62   H28   1.082897 S    
O7    V2    1.704535 S    
C31   H14   1.078947 S    
C19   C24   1.419403 A    
O3    V1    2.000426 S    
V1    O10   1.708073 S    
C25   H9    1.083805 S    
C45   C50   1.415885 A    
C5    C10   1.416099 A    
C59   C64   1.417868 A    
C58   C59   1.425340 A    
C23   C28   1.417756 A    
C43   C44   1.412644 A    
O14   C66   1.296156 A    
C37   C38   1.404474 A    
C33   C68   1.482446 S    
O18   V4    2.009378 S    
O4    V1    1.998654 S    
C36   C66   1.482364 S    
C54   C55   1.418310 A    
C15   H6    1.079228 S    
C30   C31   1.395037 A    
C16   H7    1.082924 S    
C9    C10   1.426559 A    
O15   V3    2.000430 S    
C45   C46   1.410981 A    
N1    O21   1.300938 A    
O9    C4    1.293711 A    
O14   V3    2.000311 S    
C47   H21   1.083852 S    
C46   H20   1.081463 S    
C39   C44   1.416471 A    
O8    C3    1.302560 A    
C37   H16   1.084546 S    
