data_mof_unit_23529.cif
_audit_creation_date              2013-03-05T16:48:40-0500
_audit_creation_method            fapswitch 2.2
_symmetry_space_group_name_H-M    P1
_symmetry_Int_Tables_number       1
_space_group_crystal_system       triclinic
_cell_length_a                    27.612275
_cell_length_b                    8.997385
_cell_length_c                    8.10472
_cell_angle_alpha                 89.999097
_cell_angle_beta                  90.005374
_cell_angle_gamma                 89.832576
_cell_volume                      2013.51400122

loop_
_atom_site_label
_atom_site_type_symbol
_atom_site_description
_atom_site_fract_x
_atom_site_fract_y
_atom_site_fract_z
_atom_type_partial_charge
O1    O     O_R   0.500000 0.285350 0.636850 -0.621390
O2    O     O_R   0.500000 0.714650 0.363150 -0.614554
O3    O     O_R   0.500000 0.714650 0.636850 -0.621398
O4    O     O_R   0.500000 0.285350 0.363150 -0.614550
C1    C     C_R   0.500012 0.217873 0.499999 0.919736
C2    C     C_R   0.499988 0.782127 0.499997 0.919720
O5    O     O_R   0.428760 0.500000 0.636860 -0.582114
O6    O     O_R   0.571240 0.500000 0.363140 -0.567990
O7    O     O_R   0.571240 0.500000 0.636860 -0.582110
O8    O     O_R   0.428760 0.500000 0.363140 -0.567991
C3    C     C_R   0.405688 0.495496 0.499453 1.026619
C4    C     C_R   0.594312 0.504504 0.499466 1.026693
Zn1   Zn    Zn3+2 0.500000 0.500000 0.682780 1.069507
Zn2   Zn    Zn3+2 0.500000 0.500000 0.317220 1.084343
C5    C     C_R   0.174836 0.341293 0.414878 0.628572
C6    C     C_R   0.825169 0.658267 0.414746 0.628301
C7    C     C_R   0.179326 0.605771 0.424029 0.682987
C8    C     C_R   0.820650 0.393794 0.423767 0.683234
O9    O     O_2   0.196078 0.208062 0.439447 -0.484257
O10   O     O_2   0.803949 0.791509 0.439438 -0.484568
O11   O     O_2   0.206529 0.730151 0.424597 -0.432078
O12   O     O_2   0.793434 0.269445 0.424308 -0.432219
N1    N     N_R   0.201190 0.469038 0.431029 -0.319300
N2    N     N_R   0.798802 0.530547 0.430838 -0.319202
C9    C     C_R   0.272855 0.525973 0.601642 0.351431
C10   C     C_R   0.727153 0.473746 0.601542 0.351325
C11   C     C_R   0.282454 0.389581 0.341973 0.366929
C12   C     C_R   0.717542 0.610161 0.341885 0.367002
C13   C     C_R   0.323189 0.533246 0.618145 0.459146
C14   C     C_R   0.676819 0.466607 0.618118 0.459048
C15   C     C_R   0.332654 0.402529 0.357585 0.432573
C16   C     C_R   0.667344 0.597386 0.357591 0.432721
C17   C     C_R   0.252464 0.459726 0.459434 -0.079581
C18   C     C_R   0.747534 0.539930 0.459294 -0.079450
C19   C     C_R   0.101604 0.486761 0.390804 -0.252584
C20   C     C_R   0.898383 0.512745 0.390595 -0.252696
C21   C     C_R   0.125286 0.348574 0.380489 -0.242424
C22   C     C_R   0.874711 0.650948 0.380302 -0.242228
C23   C     C_R   0.128713 0.616722 0.416554 -0.282142
C24   C     C_R   0.871264 0.382799 0.416289 -0.282268
C25   C     C_R   0.099040 0.222870 0.332490 0.623466
C26   C     C_R   0.900961 0.776639 0.332320 0.623434
C27   C     C_R   0.104548 0.752164 0.440800 0.633012
C28   C     C_R   0.895421 0.247339 0.440527 0.633026
C29   C     C_R   0.353132 0.475542 0.494053 -0.437998
C30   C     C_R   0.646869 0.524408 0.494075 -0.437990
C31   C     C_R   0.973060 0.366177 0.384754 -0.087429
C32   C     C_R   0.026924 0.633307 0.384842 -0.087452
C33   C     C_R   0.976166 0.638036 0.361491 -0.097786
C34   C     C_R   0.023824 0.361449 0.361541 -0.097775
C35   C     C_R   0.949285 0.505336 0.377931 -0.059320
C36   C     C_R   0.050702 0.494152 0.378059 -0.059307
C37   C     C_R   0.945647 0.239229 0.427056 0.633023
C38   C     C_R   0.054325 0.760256 0.427239 0.632988
C39   C     C_R   0.951093 0.769148 0.319116 0.653224
C40   C     C_R   0.048907 0.230343 0.319218 0.653165
C41   C     C_1   0.500003 0.065051 0.499993 -0.150867
C42   C     C_1   0.499997 0.934949 0.499991 -0.150873
N3    N     N_1   0.500000 0.500000 0.073640 0.011359
N4    N     N_1   0.500000 0.500000 0.926360 0.004523
F1    F     F_    0.361385 0.347249 0.235863 -0.636380
F2    F     F_    0.638609 0.652757 0.235907 -0.636328
F3    F     F_    0.342484 0.606912 0.748749 -0.615685
F4    F     F_    0.657525 0.392952 0.748719 -0.615716
O13   O     O_3   0.262363 0.329421 0.199787 -0.641031
C43   C     C_3   0.274745 0.176783 0.181228 0.211537
H1    H     H_    0.241733 0.109221 0.201684 0.218105
H2    H     H_    0.302573 0.135417 0.270128 0.155818
C44   C     C_3   0.291830 0.147514 0.004526 -0.412778
H3    H     H_    0.261940 0.173377 0.917219 0.224112
H4    H     H_    0.323059 0.220407 0.975047 0.280749
C45   C     C_3   0.306808 0.985433 0.980663 -0.763577
H5    H     H_    0.337504 0.956988 0.063579 0.266407
H6    H     H_    0.318435 0.967647 0.850970 0.286129
H7    H     H_    0.275860 0.910493 0.007251 0.277400
O14   O     O_3   0.737617 0.670157 0.199606 -0.641127
C46   C     C_3   0.725333 0.822867 0.181043 0.211342
H8    H     H_    0.758386 0.890224 0.201609 0.218295
H9    H     H_    0.697506 0.864375 0.269851 0.155909
C47   C     C_3   0.708303 0.852272 0.004290 -0.412827
H10   H     H_    0.738134 0.825722 0.917024 0.224204
H11   H     H_    0.676916 0.779961 0.974921 0.280602
C48   C     C_3   0.693671 0.014633 0.980174 -0.763419
H12   H     H_    0.663047 0.043822 0.063067 0.266464
H13   H     H_    0.682067 0.032510 0.850459 0.286263
H14   H     H_    0.724788 0.088969 0.006613 0.277363
O15   O     O_3   0.244059 0.605955 0.709960 -0.565546
C49   C     C_3   0.232240 0.519157 0.849546 0.183026
H15   H     H_    0.230492 0.595817 0.956909 0.201765
H16   H     H_    0.260213 0.434232 0.880499 0.149436
C50   C     C_3   0.182522 0.446538 0.825755 -0.426695
H17   H     H_    0.157305 0.527262 0.767085 0.252675
H18   H     H_    0.186409 0.348297 0.744347 0.236611
C51   C     C_3   0.160300 0.395765 0.987987 -0.807562
H19   H     H_    0.182253 0.305127 0.042887 0.298528
H20   H     H_    0.123239 0.352685 0.965318 0.271288
H21   H     H_    0.157761 0.490467 0.075322 0.255682
O16   O     O_3   0.755950 0.393640 0.709765 -0.565586
C52   C     C_3   0.767791 0.480298 0.849439 0.182424
H22   H     H_    0.769752 0.403430 0.956575 0.201693
H23   H     H_    0.739717 0.564739 0.880901 0.150191
C53   C     C_3   0.817383 0.553651 0.825329 -0.426741
H24   H     H_    0.842625 0.473515 0.765820 0.252524
H25   H     H_    0.813253 0.652226 0.744525 0.236747
C54   C     C_3   0.839775 0.603885 0.987525 -0.808035
H26   H     H_    0.817764 0.693891 0.043422 0.298530
H27   H     H_    0.876727 0.647657 0.964487 0.271599
H28   H     H_    0.842609 0.508748 0.074206 0.255699
F5    F     F_    0.122018 0.096211 0.285860 -0.546301
F6    F     F_    0.877987 0.903295 0.285650 -0.546425
F7    F     F_    0.128926 0.874507 0.492037 -0.518734
F8    F     F_    0.871033 0.125002 0.491704 -0.518706
F9    F     F_    0.967297 0.111475 0.476438 -0.514365
F10   F     F_    0.032663 0.887993 0.476605 -0.514409
F11   F     F_    0.974212 0.884107 0.246591 -0.504182
F12   F     F_    0.025801 0.115380 0.246647 -0.504177

loop_
_geom_bond_atom_site_label_1
_geom_bond_atom_site_label_2
_geom_bond_distance
_ccdc_geom_bond_type
C43   H2    1.116383 S    
O15   C49   1.413431 S    
C13   F3    1.358523 S    
C15   F1    1.359361 S    
C14   F4    1.358498 S    
C2    C42   1.375000 S    
C19   C23   1.405786 A    
O3    C2    1.264435 A    
Zn1   N4    1.974148 S    
O2    C2    1.264409 A    
C46   H8    1.109617 S    
C11   C17   1.409760 A    
C32   C38   1.414272 A    
Zn2   N3    1.974148 S    
C54   H27   1.110604 S    
C7    N1    1.369966 A    
O1    C1    1.264441 A    
C19   C21   1.405593 A    
C22   C26   1.400117 A    
C32   C36   1.413106 A    
C44   H3    1.111213 S    
C45   H7    1.111177 S    
C43   C44   1.530447 S    
C9    O15   1.384770 S    
C53   C54   1.521875 S    
C7    C23   1.402037 A    
C44   H4    1.110915 S    
C8    C24   1.402084 A    
C5    C21   1.397606 A    
C20   C24   1.405779 A    
O7    Zn1   2.002027 S    
C5    O9    1.347771 S    
C28   C37   1.392847 A    
C10   C18   1.415102 A    
C52   H22   1.111289 S    
N1    C17   1.436585 S    
C34   C36   1.414023 A    
O3    Zn1   1.966830 S    
C6    O10   1.347771 S    
C31   C37   1.414292 A    
C5    N1    1.368431 A    
C43   H1    1.109592 S    
C12   C18   1.409744 A    
N3    N4    1.193662 T    
C6    N2    1.368401 A    
C25   F5    1.356434 S    
C21   C25   1.400163 A    
C53   H24   1.111485 S    
C27   F7    1.357028 S    
C47   C48   1.527078 S    
C37   F9    1.354515 S    
O5    C3    1.283642 A    
C31   C34   1.414826 A    
C46   H9    1.116405 S    
C9    C13   1.397943 A    
C54   H28   1.109936 S    
C11   C15   1.397081 A    
C12   C16   1.396994 A    
O14   C46   1.422249 S    
C47   H11   1.111015 S    
O8    Zn2   2.002030 S    
C50   H17   1.111498 S    
C47   H10   1.111188 S    
C31   C35   1.413107 A    
C51   H21   1.109788 S    
C33   C35   1.413999 A    
C33   C39   1.408562 A    
C34   C40   1.408588 A    
C13   C29   1.400829 A    
C4    C30   1.463400 S    
C44   C45   1.526955 S    
C53   H25   1.108097 S    
C25   C40   1.389872 A    
C11   O13   1.389383 S    
C26   C39   1.389838 A    
C50   H18   1.107974 S    
C27   C38   1.392802 A    
C48   H12   1.110934 S    
C49   C50   1.534258 S    
O5    Zn1   2.001961 S    
O6    C4    1.276048 A    
C52   C53   1.534354 S    
C40   F12   1.351559 S    
C51   H20   1.110641 S    
C20   C35   1.410670 A    
C10   O16   1.384770 S    
C28   F8    1.357006 S    
C45   H6    1.110549 S    
C32   C33   1.414774 A    
C48   H13   1.110594 S    
C49   H16   1.113509 S    
C10   C14   1.397982 A    
C8    N2    1.369972 A    
C3    C29   1.463414 S    
O1    Zn1   1.966842 S    
C12   O14   1.389318 S    
C46   C47   1.530488 S    
O6    Zn2   2.001959 S    
C52   H23   1.113447 S    
C8    O12   1.349602 S    
C16   C30   1.405929 A    
C14   C30   1.400856 A    
C45   H5    1.110917 S    
C23   C27   1.401486 A    
C54   H26   1.107983 S    
C1    C41   1.375000 S    
C20   C22   1.405566 A    
C26   F6    1.356406 S    
C16   F2    1.359368 S    
C50   C51   1.521762 S    
C41   C42   1.170572 T    
C39   F11   1.351575 S    
O4    C1    1.264403 A    
C38   F10   1.354536 S    
O13   C43   1.422274 S    
O4    Zn2   1.966831 S    
C51   H19   1.107945 S    
O2    Zn2   1.966842 S    
O7    C4    1.283650 A    
N2    C18   1.436553 S    
O8    C3    1.276062 A    
C24   C28   1.401493 A    
C48   H14   1.111215 S    
C49   H15   1.111331 S    
O16   C52   1.413411 S    
C15   C29   1.405942 A    
C9    C17   1.415114 A    
C19   C36   1.410687 A    
C6    C22   1.397546 A    
C7    O11   1.349624 S    
