data_mof_unit_7674.cif
_audit_creation_date              2012-12-10T17:53:14-0500
_audit_creation_method            fapswitch 2.2
_symmetry_space_group_name_H-M    P1
_symmetry_Int_Tables_number       1
_space_group_crystal_system       triclinic
_cell_length_a                    23.375524
_cell_length_b                    10.585493
_cell_length_c                    9.962004
_cell_angle_alpha                 93.176885
_cell_angle_beta                  89.507888
_cell_angle_gamma                 93.754576
_cell_volume                      2455.91148082

loop_
_atom_site_label
_atom_site_type_symbol
_atom_type_description
_atom_site_fract_x
_atom_site_fract_y
_atom_site_fract_z
_atom_type_partial_charge
C1    C     C_R   0.512343 0.266002 0.498355 0.930188
C2    C     C_R   0.124689 0.660414 0.514709 0.597942
C3    C     C_R   0.240306 0.562763 0.396369 -0.096115
C4    C     C_R   0.389572 0.503555 0.501023 0.937183
C5    C     C_R   0.299000 0.549974 0.390663 -0.103397
C6    C     C_R   0.327999 0.519250 0.505606 -0.101856
C7    C     C_R   0.298288 0.509412 0.627876 -0.264182
C8    C     C_R   0.239631 0.523736 0.635074 0.426376
C9    C     C_R   0.210375 0.546784 0.517039 0.133387
C10   C     C_R   0.759918 0.444364 0.396405 0.171372
C11   C     C_R   0.700761 0.428851 0.416586 -0.276883
C12   C     C_R   0.966161 0.310940 0.490788 0.348085
C13   C     C_R   0.672315 0.520141 0.493274 -0.184316
C14   C     C_R   0.702966 0.632180 0.541287 0.368878
C15   C     C_R   0.762201 0.630881 0.550863 -0.205142
C16   C     C_R   0.500824 0.742168 0.504182 0.925574
C17   C     C_R   0.791632 0.538046 0.477498 0.188308
C18   C     C_R   0.567700 0.151479 0.731702 -0.236414
C19   C     C_R   0.573574 0.095995 0.854232 0.554616
C20   C     C_R   0.545591 0.978014 0.873369 -0.194554
C21   C     C_R   0.519101 0.908418 0.765304 -0.224392
C22   C     C_R   0.522145 0.954129 0.633825 0.128500
C23   C     C_R   0.025873 0.315232 0.497755 -0.164421
C24   C     C_R   0.539840 0.082684 0.622777 0.041680
C25   C     C_R   0.531140 0.137983 0.499889 -0.150301
C26   C     C_R   0.530685 0.063092 0.382560 -0.108014
C27   C     C_R   0.518898 0.935174 0.387374 -0.142838
C28   C     C_R   0.610312 0.506589 0.499024 0.922254
C29   C     C_R   0.510373 0.879508 0.511645 -0.080466
C30   C     C_R   0.411635 0.355560 0.126926 0.345433
C31   C     C_R   0.357678 0.349595 0.064321 0.341774
C32   C     C_R   0.357896 0.345283 0.924001 -0.227671
C33   C     C_R   0.409010 0.373560 0.855484 -0.225853
C34   C     C_R   0.058557 0.430979 0.508634 -0.070696
C35   C     C_R   0.455684 0.436296 0.924517 0.149880
C36   C     C_R   0.455783 0.434241 0.068206 0.011409
C37   C     C_R   0.541013 0.565078 0.076993 -0.069184
C38   C     C_R   0.542198 0.564149 0.934695 0.127398
C39   C     C_R   0.885547 0.651960 0.472433 0.556973
C40   C     C_R   0.878477 0.431480 0.511673 0.530659
C41   C     C_R   0.938285 0.426298 0.501671 -0.130944
C42   C     C_R   0.971481 0.543016 0.503076 -0.046761
C43   C     C_R   0.944573 0.656938 0.494331 -0.088104
C44   C     C_3   0.592542 0.639033 0.876818 -0.361964
C45   C     C_R   0.031586 0.546077 0.510785 -0.052098
C46   C     C_3   0.648441 0.569849 0.890488 -0.299392
C47   C     C_3   0.701673 0.660702 0.907839 -0.794533
C48   C     C_3   0.786737 0.366637 0.283082 -0.320237
C49   C     C_3   0.764373 0.401142 0.146214 -0.436797
C50   C     C_3   0.795616 0.333860 0.030630 -0.642808
C51   C     C_R   0.064534 0.663802 0.519768 -0.133662
C52   C     C_R   0.035738 0.778288 0.531209 0.452602
C53   C     C_R   0.976576 0.773104 0.510247 -0.169089
C54   C     C_R   0.118170 0.434024 0.512746 0.631836
H1    H     H_    0.676304 0.350486 0.364745 0.170572
H2    H     H_    0.320087 0.309442 0.868396 0.231077
H3    H     H_    0.411205 0.343312 0.751564 0.236523
H4    H     H_    0.954787 0.860250 0.513457 0.263979
H5    H     H_    0.217645 0.582652 0.306366 0.199433
H6    H     H_    0.321403 0.562008 0.296147 0.179024
H7    H     H_    0.320660 0.490322 0.718135 0.192472
H8    H     H_    0.924195 0.128878 0.659629 0.364168
H9    H     H_    0.649463 0.924119 0.686712 0.395889
H10   H     H_    0.609608 0.324276 0.126902 0.367678
H11   H     H_    0.409310 0.065316 0.304143 0.377417
H12   H     H_    0.785647 0.709019 0.604928 0.210446
H13   H     H_    0.208558 0.345274 0.172468 0.399045
H14   H     H_    0.709509 0.716411 0.818336 0.305688
H15   H     H_    0.697025 0.726119 0.997802 0.283219
H16   H     H_    0.739751 0.605484 0.921824 0.237034
H17   H     H_    0.646435 0.512405 0.980395 0.244370
H18   H     H_    0.654358 0.503588 0.802067 0.248877
H19   H     H_    0.584235 0.661561 0.773105 0.284859
H20   H     H_    0.596885 0.732904 0.932998 0.195207
H21   H     H_    0.136208 0.994264 0.726011 0.413638
H22   H     H_    0.162627 0.686068 0.806028 0.391045
H23   H     H_    0.537595 0.103566 0.287779 0.247536
H24   H     H_    0.842205 0.362226 0.033875 0.247430
H25   H     H_    0.789314 0.229425 0.036914 0.298540
H26   H     H_    0.778396 0.360471 0.933297 0.263708
H27   H     H_    0.717766 0.374175 0.137916 0.259076
H28   H     H_    0.770940 0.505258 0.136624 0.239105
H29   H     H_    0.833920 0.384389 0.280889 0.222292
H30   H     H_    0.776772 0.264123 0.297426 0.265496
H31   H     H_    0.587882 0.245193 0.718900 0.184906
H32   H     H_    0.546012 0.937293 0.970652 0.178287
H33   H     H_    0.497204 0.820196 0.789581 0.193317
H34   H     H_    0.515945 0.880763 0.292047 0.181580
H35   H     H_    0.574422 0.617505 0.135596 0.160746
H36   H     H_    0.047114 0.227294 0.490726 0.260490
N1    N     N_R   0.853176 0.540570 0.485183 -0.357197
N2    N     N_R   0.149509 0.547341 0.516334 -0.351295
N3    N     N_R   0.499460 0.498800 0.142780 -0.114541
N4    N     N_R   0.499440 0.498720 0.857170 -0.117382
O1    O     O_R   0.500000 0.316780 0.614690 -0.632160
O2    O     O_R   0.583850 0.500050 0.614640 -0.654883
O3    O     O_R   0.583840 0.500030 0.385310 -0.616449
O4    O     O_2   0.860902 0.757430 0.438510 -0.476515
O5    O     O_2   0.885098 0.176144 0.343442 -0.239693
O6    O     O_2   0.971695 0.070390 0.388943 -0.247195
O7    O     O_3   0.898475 0.100560 0.583843 -0.431331
O8    O     O_2   0.721165 0.879052 0.500485 -0.220725
O9    O     O_2   0.628915 0.777828 0.429058 -0.310276
O10   O     O_3   0.645313 0.830312 0.683674 -0.613146
O11   O     O_2   0.625498 0.084848 0.092353 -0.311604
O12   O     O_2   0.845712 0.330227 0.550323 -0.469544
O13   O     O_2   0.677094 0.199984 0.916467 -0.318671
O14   O     O_3   0.592629 0.306269 0.036547 -0.562609
O15   O     O_2   0.398299 0.106373 0.055250 -0.273848
O16   O     O_2   0.492939 0.191698 0.122347 -0.304837
O17   O     O_3   0.413808 0.159144 0.309144 -0.516734
O18   O     O_2   0.277164 0.159904 0.082997 -0.196535
O19   O     O_2   0.306037 0.277246 0.293212 -0.258068
O20   O     O_3   0.242190 0.385555 0.126477 -0.509798
O21   O     O_2   0.099793 0.986405 0.468601 -0.195323
O22   O     O_2   0.025542 0.014594 0.640656 -0.305619
O23   O     O_2   0.144971 0.324704 0.510891 -0.478558
O24   O     O_3   0.116786 0.909064 0.708101 -0.497234
O25   O     O_2   0.185386 0.373098 0.807541 -0.189958
O26   O     O_2   0.245178 0.552936 0.903846 -0.272459
O27   O     O_3   0.146792 0.596871 0.803654 -0.515319
O28   O     O_2   0.158564 0.767326 0.504030 -0.455471
O29   O     O_R   0.500000 0.316750 0.385360 -0.531912
O30   O     O_R   0.416160 0.499970 0.614690 -0.647537
O31   O     O_R   0.416150 0.499950 0.385360 -0.623599
O32   O     O_R   0.500000 0.683250 0.614640 -0.646201
O33   O     O_R   0.500000 0.683220 0.385310 -0.619462
S1    S     S_3+6 0.930076 0.161215 0.447128 0.120554
S2    S     S_3+6 0.673992 0.782879 0.535989 0.019364
S3    S     S_3+6 0.619315 0.170344 0.978434 0.005874
S4    S     S_3+6 0.430413 0.199228 0.151831 0.067124
S5    S     S_3+6 0.295182 0.288494 0.146054 0.100353
S6    S     S_3+6 0.069411 0.927626 0.585663 0.109762
S7    S     S_3+6 0.204443 0.509853 0.792065 0.075766
Zn1   Zn    Zn3+2 0.500000 0.500020 0.653130 0.952582
Zn2   Zn    Zn3+2 0.500000 0.499980 0.346870 1.018912

loop_
_geom_bond_atom_site_label_1
_geom_bond_atom_site_label_2
_ccdc_geom_bond_type
C28   O3    A    
C21   H33   S    
O19   S5    D    
C27   C29   A    
C41   C42   A    
C19   C20   A    
C17   N1    S    
O8    S2    D    
N3    Zn2   S    
C50   H25   S    
C7    C8    A    
C54   N2    A    
C12   C23   A    
C26   C27   A    
C31   S5    S    
C4    O31   A    
C18   C24   A    
H22   O27   S    
C22   C29   A    
H13   O20   S    
C30   C31   A    
C45   C51   A    
C10   C17   A    
C30   S4    S    
O7    S1    S    
C4    O30   A    
C18   C19   A    
C49   H27   S    
H11   O17   S    
C36   N3    A    
C43   C53   A    
C47   H15   S    
C35   C36   A    
C8    C9    A    
C20   H32   S    
O15   S4    D    
C13   C28   S    
O27   S7    S    
O14   S3    S    
C5    H6    S    
H8    O7    S    
C19   S3    S    
C13   C14   A    
C1    C25   S    
C52   S6    S    
C44   H19   S    
H21   O24   S    
O20   S5    S    
O13   S3    D    
C50   H24   S    
C9    N2    S    
C39   N1    A    
C44   C46   S    
H10   O14   S    
O2    Zn1   S    
C2    O28   S    
O25   S7    D    
C8    S7    S    
C51   C52   A    
C26   H23   S    
O33   Zn2   S    
C4    C6    S    
C2    C51   A    
C39   O4    S    
C39   C43   A    
O22   S6    D    
O21   S6    D    
C16   C29   S    
C15   H12   S    
O18   S5    D    
C48   H30   S    
C42   C45   A    
C49   H28   S    
C44   H20   S    
C1    O29   A    
C47   H16   S    
C38   C44   S    
C37   C38   A    
C3    C9    A    
C31   C32   A    
C1    O1    A    
C23   C34   A    
C38   N4    A    
O1    Zn1   S    
N4    Zn1   S    
C23   H36   S    
C37   N3    A    
O16   S4    D    
C34   C45   A    
C24   C25   A    
C2    N2    A    
O9    S2    D    
C46   H17   S    
C6    C7    A    
O24   S6    S    
O31   Zn2   S    
O17   S4    S    
C48   C49   S    
O32   Zn1   S    
C34   C54   A    
O10   S2    S    
C10   C48   S    
C22   C24   A    
C42   C43   A    
C47   H14   S    
C11   H1    S    
C52   C53   A    
C12   C41   A    
C40   O12   S    
C35   N4    A    
C15   C17   A    
C46   C47   S    
C40   C41   A    
C33   H3    S    
O30   Zn1   S    
C18   H31   S    
O6    S1    D    
C46   H18   S    
H9    O10   S    
C3    C5    A    
C50   H26   S    
C53   H4    S    
O5    S1    D    
C12   S1    S    
C30   C36   A    
C48   H29   S    
C37   H35   S    
O29   Zn2   S    
C28   O2    A    
C32   C33   A    
C25   C26   A    
C11   C13   A    
C5    C6    A    
C33   C35   A    
O26   S7    D    
C40   N1    A    
C27   H34   S    
C16   O33   A    
C10   C11   A    
O11   S3    D    
C20   C21   A    
C49   C50   S    
C54   O23   S    
C14   C15   A    
O3    Zn2   S    
C21   C22   A    
C16   O32   A    
C32   H2    S    
C7    H7    S    
C14   S2    S    
C3    H5    S    
