data_mof_unit_45127.cif
_audit_creation_date              2012-12-11T17:41:42-0500
_audit_creation_method            fapswitch 2.2
_symmetry_space_group_name_H-M    P1
_symmetry_Int_Tables_number       1
_space_group_crystal_system       triclinic
_cell_length_a                    15.540851
_cell_length_b                    14.798884
_cell_length_c                    14.786078
_cell_angle_alpha                 109.767557
_cell_angle_beta                  121.268918
_cell_angle_gamma                 58.915609
_cell_volume                      2477.78922014

loop_
_atom_site_label
_atom_site_type_symbol
_atom_type_description
_atom_site_fract_x
_atom_site_fract_y
_atom_site_fract_z
_atom_type_partial_charge
C1    C     C_R   0.748520 0.998146 0.792618 -0.068775
C2    C     C_R   0.151073 0.211042 0.964560 -0.188703
C3    C     C_R   0.679664 0.647030 0.841808 0.500648
C4    C     C_R   0.256355 0.134436 0.971992 0.472944
C5    C     C_R   0.690551 0.727134 0.927624 0.077671
C6    C     C_R   0.282358 0.026003 0.961800 0.014836
C7    C     C_R   0.795696 0.728222 0.992577 -0.175900
C8    C     C_R   0.201635 0.995912 0.942264 -0.095688
C9    C     C_R   0.887565 0.651768 0.972315 -0.094072
C10   C     C_R   0.096752 0.072857 0.934212 -0.133184
C11   C     C_R   0.875892 0.573758 0.887284 -0.130132
C12   C     C_R   0.194938 0.065783 0.227608 -0.148514
C13   C     C_R   0.071476 0.180363 0.945666 -0.202530
C14   C     C_R   0.588821 0.829255 0.045693 0.411653
C15   C     C_R   0.394703 0.907159 0.866544 0.468308
C16   C     C_R   0.238178 0.291593 0.485979 -0.072572
C17   C     C_R   0.799923 0.723342 0.558655 -0.107871
C18   C     C_R   0.491855 0.910249 0.059085 -0.089393
C19   C     C_R   0.495690 0.869889 0.863554 -0.035435
C20   C     C_R   0.390918 0.943610 0.964698 -0.096937
C21   C     C_R   0.592390 0.811832 0.947213 -0.105071
C22   C     C_2   0.135696 0.403653 0.601781 -0.349654
C23   C     C_R   0.203962 0.302739 0.560474 0.206281
C24   C     C_2   0.975259 0.642896 0.532987 -0.339179
C25   C     C_2   0.144605 0.494348 0.618176 0.440470
C26   C     C_2   0.051064 0.594713 0.623055 0.426269
C27   C     C_2   0.825392 0.136289 0.902240 -0.196141
C28   C     C_2   0.012021 0.055926 0.162966 -0.221429
C29   C     C_R   0.090911 0.741885 0.207470 -0.156240
C30   C     C_R   0.802101 0.106431 0.349512 -0.131287
C31   C     C_R   0.190936 0.668427 0.273777 -0.127595
C32   C     C_R   0.703584 0.196999 0.341631 -0.134116
C33   C     C_R   0.290148 0.636006 0.267132 0.076428
C34   C     C_R   0.862372 0.722270 0.517666 0.203463
C35   C     C_R   0.705374 0.283788 0.419580 0.099743
C36   C     C_R   0.287429 0.678549 0.193346 -0.134424
C37   C     C_R   0.807673 0.278574 0.504820 -0.173483
C38   C     C_R   0.186883 0.750839 0.126167 -0.026487
C39   C     C_R   0.905997 0.187879 0.512157 -0.086092
C40   C     C_R   0.592433 0.216733 0.486988 -0.131172
C41   C     C_R   0.406077 0.768526 0.443874 -0.067834
C42   C     C_R   0.088628 0.781734 0.132627 -0.123449
C43   C     C_R   0.903217 0.101924 0.434608 -0.074449
C44   C     C_R   0.399680 0.460529 0.336362 -0.156741
C45   C     C_R   0.501394 0.298613 0.427326 0.071339
C46   C     C_R   0.597222 0.478437 0.418091 -0.197519
C47   C     C_R   0.501389 0.376902 0.386464 0.053749
C48   C     C_R   0.496082 0.569096 0.393827 0.061403
C49   C     C_R   0.600544 0.380083 0.409792 0.037595
C50   C     C_R   0.396313 0.555812 0.334687 0.040386
C51   C     C_2   0.853339 0.112877 0.996381 -0.080892
C52   C     C_2   0.951000 0.123448 0.088621 -0.106602
C53   C     C_R   0.408161 0.982285 0.714011 -0.042378
C54   C     C_R   0.590482 0.951911 0.264432 -0.087584
C55   C     C_R   0.408961 0.289477 0.409167 -0.041917
C56   C     C_R   0.497231 0.673154 0.445638 0.061095
C57   C     C_R   0.590914 0.692999 0.515607 -0.086161
C58   C     C_R   0.591142 0.905032 0.787228 -0.149771
C59   C     C_R   0.406245 0.019299 0.192891 -0.127350
C60   C     C_R   0.237199 0.201005 0.579615 -0.131669
C61   C     C_R   0.801198 0.813632 0.466506 -0.064760
C62   C     C_R   0.749252 0.091306 0.701745 -0.104000
C63   C     C_R   0.195184 0.973265 0.318146 -0.147039
C64   C     C_R   0.774591 0.078784 0.802987 0.127627
C65   C     C_R   0.130430 0.029515 0.230441 0.153510
C66   C     C_R   0.499136 0.918059 0.793023 0.119087
C67   C     C_R   0.496440 0.957539 0.167533 0.172664
C68   C     C_R   0.772368 0.571343 0.822326 -0.246749
Cl1   Cl    Cl    0.552659 0.636315 0.758503 -0.572766
Cl2   Cl    Cl    0.353869 0.176176 0.994128 -0.685760
Cl3   Cl    Cl    0.698578 0.741751 0.144500 -0.688771
Cl4   Cl    Cl    0.275835 0.901907 0.749907 -0.628925
Cl5   Cl    Cl    0.039933 0.641995 0.745062 -0.654890
Cl6   Cl    Cl    0.258388 0.499226 0.623565 -0.570536
H1    H     H_    0.756827 0.967137 0.854478 0.088866
H2    H     H_    0.035610 0.048313 0.918917 0.144001
H3    H     H_    0.010570 0.836141 0.079223 0.110893
H4    H     H_    0.979430 0.031845 0.440433 0.122156
H5    H     H_    0.221747 0.353404 0.448367 0.132908
H6    H     H_    0.826787 0.670201 0.612508 0.142054
H7    H     H_    0.014792 0.766701 0.212950 0.128149
H8    H     H_    0.800058 0.039805 0.289493 0.117444
H9    H     H_    0.191205 0.637586 0.330764 0.141579
H10   H     H_    0.625914 0.199490 0.274952 0.146742
H11   H     H_    0.362865 0.654579 0.186893 0.134290
H12   H     H_    0.166185 0.125104 0.179353 0.104214
H13   H     H_    0.811224 0.344062 0.566127 0.115395
H14   H     H_    0.678690 0.191501 0.508992 0.115846
H15   H     H_    0.319570 0.784759 0.403541 0.116733
H16   H     H_    0.321819 0.003879 0.687510 0.149415
H17   H     H_    0.676068 0.914658 0.277235 0.143712
H18   H     H_    0.676246 0.851224 0.828503 0.107457
H19   H     H_    0.320513 0.037619 0.143468 0.112015
H20   H     H_    0.221764 0.180419 0.631659 0.120677
H21   H     H_    0.831453 0.844246 0.437557 0.108323
H22   H     H_    0.758973 0.147978 0.681394 0.110188
H23   H     H_    0.977555 0.010337 0.167014 0.130467
H24   H     H_    0.165245 0.948025 0.352626 0.108674
H25   H     H_    0.983569 0.170885 0.084744 0.134254
H26   H     H_    0.821770 0.064895 0.001043 0.125369
H27   H     H_    0.806031 0.789463 0.057664 0.145061
H28   H     H_    0.220144 0.912893 0.933149 0.172033
H29   H     H_    0.992793 0.615013 0.463685 0.150319
H30   H     H_    0.068089 0.405832 0.608312 0.134311
H31   H     H_    0.185024 0.782540 0.068745 0.133140
H32   H     H_    0.984400 0.184190 0.578076 0.127690
H33   H     H_    0.322379 0.453548 0.301115 0.117920
H34   H     H_    0.855563 0.185886 0.898273 0.130665
H35   H     H_    0.673924 0.484198 0.446014 0.119214
H36   H     H_    0.323917 0.331343 0.354757 0.078756
H37   H     H_    0.676510 0.636499 0.539155 0.085900
H38   H     H_    0.947255 0.514934 0.871809 0.154599
H39   H     H_    0.990264 0.240254 0.939724 0.139653
H40   H     H_    0.764285 0.510133 0.756777 0.156828
H41   H     H_    0.130604 0.294445 0.972846 0.159913
H42   H     H_    0.968028 0.652981 0.022031 0.149091
N1    N     N_R   0.705410 0.966550 0.689210 -0.044178
N2    N     N_R   0.556610 0.796750 0.548620 -0.045408
N3    N     N_R   0.556610 0.951620 0.703500 -0.045478
N4    N     N_R   0.443390 0.048380 0.296500 -0.052758
N5    N     N_R   0.294590 0.131500 0.522480 -0.052885
N6    N     N_R   0.705410 0.868500 0.477520 -0.055539
N7    N     N_R   0.705410 0.023370 0.632390 -0.048358
N8    N     N_R   0.294590 0.976630 0.367610 -0.047628
N9    N     N_R   0.294590 0.033450 0.310790 -0.047112
N10   N     N_R   0.294590 0.188320 0.465660 -0.057712
N11   N     N_R   0.705410 0.811680 0.534340 -0.056498
N12   N     N_R   0.556610 0.157790 0.497330 -0.043622
N13   N     N_R   0.443390 0.842210 0.502670 -0.046451
N14   N     N_R   0.443390 0.997080 0.657540 -0.053762
N15   N     N_R   0.556610 0.002920 0.342460 -0.058117
N16   N     N_R   0.443390 0.203250 0.451380 -0.042533
Ni1   Ni    Ni4+2 0.629830 0.882720 0.617850 0.242304
Ni2   Ni    Ni4+2 0.370170 0.117280 0.382150 0.219019
Ni3   Ni    Ni4+2 0.629830 0.013030 0.487540 0.227848
Ni4   Ni    Ni4+2 0.370170 0.986970 0.512460 0.235369

loop_
_geom_bond_atom_site_label_1
_geom_bond_atom_site_label_2
_ccdc_geom_bond_type
N9    Ni2   S    
C28   H23   S    
C39   H32   S    
C41   H15   S    
C63   C65   A    
C59   N4    A    
C62   H22   S    
C29   C42   A    
N4    N15   A    
C14   Cl3   S    
C14   C18   A    
C3    C68   A    
N1    Ni1   S    
C33   C36   A    
C4    Cl2   S    
C63   N8    A    
C22   H30   S    
C47   C49   A    
C43   H4    S    
C15   C19   A    
C54   N15   A    
C46   C49   A    
N3    Ni1   S    
C14   C21   A    
C3    Cl1   S    
C24   C26   D    
C38   C42   A    
C63   H24   S    
N15   Ni3   S    
C40   N12   A    
N3    N14   A    
C31   H9    S    
C56   C57   A    
C19   C66   S    
C48   C56   S    
C25   Cl6   S    
N6    N11   A    
C2    C13   A    
C62   C64   A    
C59   C67   A    
C10   H2    S    
C58   C66   A    
C22   C25   D    
C35   C49   S    
C31   C33   A    
N4    Ni2   S    
C44   C47   A    
C48   C50   A    
C54   H17   S    
C16   N10   A    
C40   C45   A    
N12   N16   A    
C62   N7    A    
C25   C26   S    
C27   C51   D    
C45   C47   S    
C23   C60   A    
C32   H10   S    
C46   C48   A    
N8    Ni4   S    
C51   C52   S    
C1    H1    S    
C32   C35   A    
C4    C6    A    
N12   Ni3   S    
C5    C7    A    
C17   N11   A    
C39   C43   A    
C12   N9    A    
C33   C50   S    
C26   Cl5   S    
C34   C61   A    
C24   C34   S    
N7    Ni3   S    
C61   N6    A    
C30   H8    S    
C2    C4    A    
C41   C56   A    
C29   H7    S    
C15   Cl4   S    
C41   N13   A    
N13   Ni4   S    
C2    H41   S    
C15   C20   A    
C1    N1    A    
C53   C66   A    
C9    C11   A    
C45   C55   A    
N2    Ni1   S    
N16   Ni2   S    
C16   C23   A    
C55   H36   S    
C30   C43   A    
C17   C34   A    
C1    C64   A    
C11   C68   A    
C44   H33   S    
C44   C50   A    
C51   H26   S    
C7    C9    A    
C35   C37   A    
C11   H38   S    
C9    H42   S    
C37   H13   S    
N14   Ni4   S    
N11   Ni1   S    
C3    C5    A    
C10   C13   A    
C6    C8    A    
C61   H21   S    
C54   C67   A    
C36   H11   S    
C6    C20   S    
C12   C65   A    
C52   H25   S    
C12   H12   S    
C24   H29   S    
C16   H5    S    
C38   H31   S    
C36   C38   A    
C28   C65   S    
C18   C67   S    
N5    N10   A    
C29   C31   A    
N2    N13   A    
C30   C32   A    
C28   C52   D    
C40   H14   S    
C57   H37   S    
C8    H28   S    
C27   H34   S    
C58   N3    A    
C18   C20   A    
C17   H6    S    
N5    Ni4   S    
N1    N7    A    
C60   N5    A    
N6    Ni3   S    
C27   C64   S    
C37   C39   A    
C5    C21   S    
N10   Ni2   S    
C42   H3    S    
C8    C10   A    
C55   N16   A    
C7    H27   S    
C46   H35   S    
C53   H16   S    
C22   C23   S    
N8    N9    A    
C53   N14   A    
C59   H19   S    
C58   H18   S    
C13   H39   S    
C68   H40   S    
C57   N2    A    
C19   C21   A    
C60   H20   S    
