data_mof_unit_66188.cif
_audit_creation_date              2012-12-10T19:39:14-0500
_audit_creation_method            fapswitch 2.2
_symmetry_space_group_name_H-M    P1
_symmetry_Int_Tables_number       1
_space_group_crystal_system       triclinic
_cell_length_a                    25.888024
_cell_length_b                    43.113116
_cell_length_c                    25.195139
_cell_angle_alpha                 89.999915
_cell_angle_beta                  120.997188
_cell_angle_gamma                 90.000094
_cell_volume                      24104.7968342

loop_
_atom_site_label
_atom_site_type_symbol
_atom_type_description
_atom_site_fract_x
_atom_site_fract_y
_atom_site_fract_z
_atom_type_partial_charge
Br1   Br    Br    0.802941 0.686866 0.138942 -0.525961
Br2   Br    Br    0.416367 0.538743 0.043749 -0.461991
Br3   Br    Br    0.416364 0.461257 0.043747 -0.461970
Br4   Br    Br    0.583632 0.538742 0.956264 -0.461980
Br5   Br    Br    0.083619 0.961256 0.956233 -0.461990
Br6   Br    Br    0.916378 0.038746 0.043743 -0.461918
Br7   Br    Br    0.916382 0.961259 0.043753 -0.461980
Br8   Br    Br    0.083624 0.038743 0.956236 -0.461958
Br9   Br    Br    0.197056 0.313121 0.861036 -0.525963
Br10  Br    Br    0.197074 0.686839 0.861103 -0.525950
Br11  Br    Br    0.802997 0.313057 0.139080 -0.525993
Br12  Br    Br    0.302943 0.186896 0.138983 -0.525964
Br13  Br    Br    0.697059 0.813133 0.861057 -0.525962
Br14  Br    Br    0.697025 0.186996 0.860861 -0.525987
Br15  Br    Br    0.302929 0.813162 0.138896 -0.525952
Br16  Br    Br    0.583634 0.461256 0.956269 -0.461937
C1    C     C_R   0.360162 0.749654 0.000505 0.798881
C2    C     C_R   0.500000 0.032548 0.000000 0.102861
C3    C     C_R   0.547613 0.615231 0.048836 -0.222032
C4    C     C_R   0.047617 0.884770 0.048829 -0.222022
C5    C     C_R   0.952397 0.115231 0.951152 -0.222031
C6    C     C_R   0.952384 0.884769 0.951166 -0.222026
C7    C     C_R   0.047608 0.115230 0.048838 -0.222010
C8    C     C_R   0.499999 0.368322 0.000002 -0.004202
C9    C     C_R   0.499999 0.631677 0.000002 -0.004229
C10   C     C_R   0.000000 0.868322 0.999998 -0.004228
C11   C     C_R   0.000002 0.131678 0.999997 -0.004182
C12   C     C_R   0.898791 0.730380 0.730802 -0.174007
C13   C     C_R   1.000000 0.467452 1.000000 0.102861
C14   C     C_R   0.101205 0.269617 0.269198 -0.173989
C15   C     C_R   0.101209 0.730380 0.269198 -0.174001
C16   C     C_R   0.898792 0.269619 0.730802 -0.174000
C17   C     C_R   0.398795 0.230383 0.730802 -0.173988
C18   C     C_R   0.601209 0.769619 0.269198 -0.174006
C19   C     C_R   0.601208 0.230381 0.269198 -0.174000
C20   C     C_R   0.398791 0.769619 0.730802 -0.174002
C21   C     C_R   0.866497 0.730368 0.666273 -0.170509
C22   C     C_R   0.133499 0.269630 0.333727 -0.170501
C23   C     C_R   0.133503 0.730368 0.333727 -0.170510
C24   C     C_R   1.000000 0.532548 1.000000 0.102862
C25   C     C_R   0.866497 0.269632 0.666273 -0.170504
C26   C     C_R   0.366501 0.230371 0.666273 -0.170499
C27   C     C_R   0.633503 0.769632 0.333727 -0.170510
C28   C     C_R   0.633502 0.230368 0.333727 -0.170505
C29   C     C_R   0.366497 0.769632 0.666273 -0.170510
C30   C     C_R   0.816679 0.750066 0.633395 0.106646
C31   C     C_R   0.183321 0.249935 0.366605 0.106642
C32   C     C_R   0.183320 0.750065 0.366605 0.106647
C33   C     C_R   0.816679 0.249935 0.633395 0.106639
C34   C     C_R   0.316679 0.250065 0.633395 0.106642
C35   C     C_R   0.499999 0.532531 0.000006 -0.193719
C36   C     C_R   0.683321 0.749934 0.366605 0.106646
C37   C     C_R   0.683320 0.250065 0.366605 0.106642
C38   C     C_R   0.316679 0.749935 0.633395 0.106647
C39   C     C_R   0.799700 0.769787 0.666147 -0.169853
C40   C     C_R   0.200305 0.230215 0.333853 -0.169847
C41   C     C_R   0.200300 0.769787 0.333853 -0.169852
C42   C     C_R   0.799698 0.230214 0.666147 -0.169840
C43   C     C_R   0.299695 0.269784 0.666147 -0.169848
C44   C     C_R   0.700300 0.730213 0.333853 -0.169852
C45   C     C_R   0.700301 0.269786 0.333853 -0.169844
C46   C     C_R   0.499999 0.467469 0.000007 -0.193737
C47   C     C_R   0.299700 0.730213 0.666147 -0.169853
C48   C     C_R   0.831957 0.769795 0.730687 -0.172013
C49   C     C_R   0.168047 0.230208 0.269313 -0.172002
C50   C     C_R   0.168042 0.769795 0.269313 -0.172019
C51   C     C_R   0.831956 0.230206 0.730687 -0.171984
C52   C     C_R   0.331953 0.269792 0.730687 -0.172007
C53   C     C_R   0.668043 0.730205 0.269313 -0.172013
C54   C     C_R   0.668044 0.269794 0.269313 -0.171997
C55   C     C_R   0.331957 0.730205 0.730687 -0.172018
C56   C     C_R   0.881793 0.750086 0.763585 -0.014867
C57   C     C_R   0.000002 0.032531 0.999991 -0.193746
C58   C     C_R   0.118207 0.249914 0.236415 -0.014873
C59   C     C_R   0.118207 0.750086 0.236415 -0.014866
C60   C     C_R   0.881793 0.249914 0.763585 -0.014876
C61   C     C_R   0.381793 0.250086 0.763585 -0.014871
C62   C     C_R   0.618207 0.749914 0.236415 -0.014868
C63   C     C_R   0.618207 0.250086 0.236415 -0.014874
C64   C     C_R   0.381793 0.749914 0.763585 -0.014866
C65   C     C_R   0.763720 0.778090 0.532206 -0.171763
C66   C     C_R   0.236287 0.221910 0.467794 -0.171755
C67   C     C_R   0.236279 0.778090 0.467793 -0.171762
C68   C     C_R   0.000001 0.967469 0.999993 -0.193718
C69   C     C_R   0.763718 0.221910 0.532207 -0.171759
C70   C     C_R   0.263713 0.278090 0.532206 -0.171754
C71   C     C_R   0.736280 0.721910 0.467794 -0.171762
C72   C     C_R   0.736281 0.278090 0.467793 -0.171758
C73   C     C_R   0.263720 0.721910 0.532207 -0.171761
C74   C     C_R   0.500000 0.665806 0.000000 0.791035
C75   C     C_R   0.500000 0.334194 0.000000 0.791008
C76   C     C_R   0.000000 0.165806 0.999999 0.791004
C77   C     C_R   0.000000 0.834194 1.000000 0.791035
C78   C     C_R   0.731488 0.778057 0.467677 -0.171351
C79   C     C_R   0.627987 0.650375 0.959938 -0.110586
C80   C     C_R   0.268519 0.221943 0.532323 -0.171350
C81   C     C_R   0.268512 0.778057 0.532323 -0.171353
C82   C     C_R   0.731486 0.221943 0.467677 -0.171346
C83   C     C_R   0.231481 0.278057 0.467677 -0.171349
C84   C     C_R   0.768512 0.721943 0.532323 -0.171351
C85   C     C_R   0.768513 0.278057 0.532323 -0.171343
C86   C     C_R   0.231488 0.721943 0.467677 -0.171353
C87   C     C_R   0.717490 0.749967 0.434920 0.102833
C88   C     C_R   0.282510 0.250033 0.565080 0.102834
C89   C     C_R   0.282510 0.749967 0.565080 0.102833
C90   C     C_R   0.371992 0.349629 0.040036 -0.110570
C91   C     C_R   0.717490 0.250033 0.434920 0.102835
C92   C     C_R   0.217491 0.249967 0.434920 0.102834
C93   C     C_R   0.782509 0.750033 0.565080 0.102833
C94   C     C_R   0.782509 0.249967 0.565080 0.102835
C95   C     C_R   0.217490 0.750033 0.434920 0.102833
C96   C     C_R   0.547561 0.417121 0.048837 -0.115056
C97   C     C_R   0.452430 0.582878 0.951178 -0.115062
C98   C     C_R   0.452434 0.417121 0.951174 -0.115057
C99   C     C_R   0.547567 0.582879 0.048830 -0.115062
C100  C     C_R   0.047572 0.917122 0.048820 -0.115064
C101  C     C_R   0.372055 0.650386 0.040125 -0.110630
C102  C     C_R   0.952443 0.082879 0.951157 -0.115054
C103  C     C_R   0.952430 0.917121 0.951172 -0.115063
C104  C     C_R   0.047563 0.082878 0.048827 -0.115058
C105  C     C_R   0.499998 0.433372 0.000006 0.241501
C106  C     C_R   0.499999 0.566628 0.000005 0.241471
C107  C     C_R   0.000001 0.933372 0.999995 0.241475
C108  C     C_R   0.000003 0.066628 0.999992 0.241518
C109  C     C_R   0.535702 0.483714 0.981992 0.228645
C110  C     C_R   0.464296 0.516285 0.018022 0.228643
C111  C     C_R   0.464296 0.483714 0.018022 0.228643
C112  C     C_R   0.639837 0.250348 0.999492 0.798905
C113  C     C_R   0.628119 0.349657 0.960131 -0.110450
C114  C     C_R   0.535702 0.516285 0.981991 0.228636
C115  C     C_R   0.035698 0.983714 0.981970 0.228640
C116  C     C_R   0.964304 0.016287 0.018013 0.228646
C117  C     C_R   0.964304 0.983715 0.018015 0.228631
C118  C     C_R   0.035699 0.016286 0.981969 0.228643
C119  C     C_R   0.500000 0.834089 0.000000 0.786316
C120  C     C_R   0.500000 0.165911 0.000000 0.786319
C121  C     C_R   0.000000 0.334089 1.000000 0.786322
C122  C     C_R   1.000000 0.665911 0.000000 0.786316
C123  C     C_R   0.514141 0.115404 0.961000 -0.176887
C124  C     C_R   0.128027 0.150365 0.959991 -0.110546
C125  C     C_R   0.485859 0.884596 0.039000 -0.176864
C126  C     C_R   0.485859 0.115404 0.039000 -0.176872
C127  C     C_R   0.514141 0.884596 0.961000 -0.176868
C128  C     C_R   0.014148 0.615404 0.961005 -0.176864
C129  C     C_R   0.985852 0.384596 0.038994 -0.176875
C130  C     C_R   0.985852 0.615404 0.038994 -0.176867
C131  C     C_R   0.014148 0.384596 0.961005 -0.176867
C132  C     C_R   0.514121 0.083101 0.961000 -0.168747
C133  C     C_R   0.485878 0.916898 0.039000 -0.168739
C134  C     C_R   0.485878 0.083101 0.039000 -0.168743
C135  C     C_R   0.872011 0.849625 0.040063 -0.110584
C136  C     C_R   0.514122 0.916899 0.961001 -0.168742
C137  C     C_R   0.014128 0.583101 0.961006 -0.168738
C138  C     C_R   0.985871 0.416899 0.038994 -0.168743
C139  C     C_R   0.985871 0.583101 0.038994 -0.168740
C140  C     C_R   0.014129 0.416899 0.961006 -0.168738
C141  C     C_R   0.500000 0.066704 0.000000 0.108786
C142  C     C_R   0.500000 0.933296 0.000000 0.108776
C143  C     C_R   1.000000 0.566704 1.000000 0.108775
C144  C     C_R   0.000000 0.433296 1.000000 0.108780
C145  C     C_R   0.500000 0.131826 0.000000 -0.011438
C146  C     C_R   0.871822 0.150325 0.039806 -0.110394
C147  C     C_R   0.500000 0.868174 0.000000 -0.011451
C148  C     C_R   1.000000 0.631826 1.000000 -0.011453
C149  C     C_R   0.000000 0.368174 1.000000 -0.011444
C150  C     C_R   0.525788 0.016150 0.056066 -0.167923
C151  C     C_R   0.474212 0.983850 0.943934 -0.167922
C152  C     C_R   0.474212 0.016150 0.943933 -0.167926
C153  C     C_R   0.525788 0.983850 0.056067 -0.167922
C154  C     C_R   0.025780 0.516150 0.056066 -0.167920
C155  C     C_R   0.974219 0.483850 0.943934 -0.167920
C156  C     C_R   0.974219 0.516150 0.943934 -0.167920
C157  C     C_R   0.127945 0.849614 0.959875 -0.110628
C158  C     C_R   0.025781 0.483850 0.056066 -0.167922
C159  C     C_R   0.651127 0.679414 0.958356 -0.202917
C160  C     C_R   0.348857 0.320591 0.041625 -0.202920
C161  C     C_R   0.348901 0.679424 0.041687 -0.202918
C162  C     C_R   0.651218 0.320615 0.958494 -0.202895
C163  C     C_R   0.151155 0.179403 0.958390 -0.202940
C164  C     C_R   0.639838 0.749653 0.999494 0.798888
C165  C     C_R   0.848872 0.820587 0.041644 -0.202918
C166  C     C_R   0.848739 0.179367 0.041472 -0.202982
C167  C     C_R   0.151097 0.820576 0.958313 -0.202912
C168  C     C_R   0.703709 0.690704 0.010574 0.065398
C169  C     C_R   0.296281 0.309295 0.989408 0.065402
C170  C     C_R   0.296312 0.690703 0.989464 0.065384
C171  C     C_R   0.703777 0.309293 0.010695 0.065442
C172  C     C_R   0.203726 0.190706 0.010605 0.065406
C173  C     C_R   0.796291 0.809296 0.989426 0.065398
C174  C     C_R   0.796205 0.190709 0.989271 0.065446
C175  C     C_R   0.360162 0.250347 0.000506 0.798892
C176  C     C_R   0.203688 0.809297 0.010536 0.065385
C177  C     C_R   0.732703 0.672489 0.064831 0.308785
C178  C     C_R   0.267288 0.327506 0.935145 0.308789
C179  C     C_R   0.267323 0.672477 0.935222 0.308778
C180  C     C_R   0.732789 0.327479 0.064991 0.308789
C181  C     C_R   0.232720 0.172502 0.064877 0.308808
C182  C     C_R   0.767297 0.827511 0.935169 0.308788
C183  C     C_R   0.767201 0.172545 0.934946 0.308862
C184  C     C_R   0.232679 0.827523 0.064778 0.308775
C185  C     C_R   0.709183 0.643389 0.065853 -0.167640
C186  C     C_R   0.860163 0.249652 0.000508 0.798925
C187  C     C_R   0.290801 0.356606 0.934117 -0.167644
C188  C     C_R   0.290856 0.643378 0.934220 -0.167615
C189  C     C_R   0.709311 0.356583 0.066068 -0.167706
C190  C     C_R   0.209212 0.143401 0.065917 -0.167656
C191  C     C_R   0.790815 0.856611 0.934148 -0.167645
C192  C     C_R   0.790663 0.143441 0.933840 -0.167745
C193  C     C_R   0.209147 0.856623 0.065779 -0.167620
C194  C     C_R   0.657207 0.632310 0.013485 -0.132394
C195  C     C_R   0.342772 0.367690 0.986484 -0.132398
C196  C     C_R   0.342840 0.632310 0.986592 -0.132381
C197  C     C_R   0.139838 0.750346 0.999494 0.798879
C198  C     C_R   0.657358 0.367694 0.013716 -0.132437
C199  C     C_R   0.157248 0.132310 0.013553 -0.132401
C200  C     C_R   0.842790 0.867691 0.986516 -0.132403
C201  C     C_R   0.842591 0.132309 0.986192 -0.132446
C202  C     C_R   0.157162 0.867690 0.013407 -0.132384
C203  C     C_R   0.282094 0.222562 0.008562 -0.182573
C204  C     C_R   0.717912 0.777439 0.991448 -0.182562
C205  C     C_R   0.717878 0.222567 0.991384 -0.182597
C206  C     C_R   0.282079 0.777441 0.008534 -0.182558
C207  C     C_R   0.782088 0.722561 0.008552 -0.182562
C208  C     C_R   0.139838 0.249653 0.999493 0.798894
C209  C     C_R   0.217907 0.277438 0.991438 -0.182562
C210  C     C_R   0.217921 0.722559 0.991466 -0.182558
C211  C     C_R   0.782120 0.277434 0.008613 -0.182560
C212  C     C_R   0.304370 0.250771 0.001157 -0.054569
C213  C     C_R   0.695630 0.749230 0.998843 -0.054572
C214  C     C_R   0.695629 0.250772 0.998842 -0.054577
C215  C     C_R   0.304370 0.749230 0.001156 -0.054569
C216  C     C_R   0.804370 0.750770 0.001157 -0.054571
C217  C     C_R   0.195630 0.249229 0.998843 -0.054568
C218  C     C_R   0.195630 0.750770 0.998844 -0.054570
C219  C     C_R   0.860162 0.750346 0.000506 0.798889
C220  C     C_R   0.804370 0.249228 0.001157 -0.054568
C221  C     C_R   0.415871 0.749933 0.831729 0.787196
C222  C     C_R   0.584129 0.250067 0.168271 0.787210
C223  C     C_R   0.584129 0.749933 0.168271 0.787195
C224  C     C_R   0.415871 0.250067 0.831729 0.787212
C225  C     C_R   0.915871 0.249933 0.831729 0.787215
C226  C     C_R   0.084129 0.750067 0.168271 0.787196
C227  C     C_R   0.084129 0.249933 0.168271 0.787214
C228  C     C_R   0.915871 0.750067 0.831729 0.787195
C229  C     C_R   0.272264 0.278584 0.992711 0.041894
C230  C     C_R   0.500000 0.967452 0.000000 0.102863
C231  C     C_R   0.727731 0.721415 0.007279 0.041891
C232  C     C_R   0.727763 0.278582 0.007339 0.041884
C233  C     C_R   0.272278 0.721414 0.992738 0.041898
C234  C     C_R   0.772269 0.778585 0.992720 0.041891
C235  C     C_R   0.227737 0.221416 0.007291 0.041884
C236  C     C_R   0.227722 0.778586 0.007262 0.041897
C237  C     C_R   0.772233 0.221419 0.992654 0.041858
C238  C     C_R   0.547607 0.384769 0.048843 -0.222020
C239  C     C_R   0.452385 0.615230 0.951169 -0.222026
C240  C     C_R   0.452389 0.384769 0.951165 -0.222014
H1    H     H_    0.584785 0.372641 0.087088 0.167437
H2    H     H_    0.268841 0.370655 0.892602 0.167256
H3    H     H_    0.546719 0.971680 0.099918 0.137306
H4    H     H_    0.046705 0.528320 0.099918 0.137305
H5    H     H_    0.953294 0.471680 0.900082 0.137306
H6    H     H_    0.953294 0.528320 0.900082 0.137306
H7    H     H_    0.046706 0.471680 0.099918 0.137305
H8    H     H_    0.639484 0.609730 0.014475 0.185204
H9    H     H_    0.360490 0.390271 0.985489 0.185191
H10   H     H_    0.360573 0.609731 0.985618 0.185234
H11   H     H_    0.639669 0.390277 0.014748 0.185117
H12   H     H_    0.139535 0.109730 0.014557 0.185169
H13   H     H_    0.268900 0.629318 0.892720 0.167265
H14   H     H_    0.860512 0.890271 0.985527 0.185200
H15   H     H_    0.860267 0.109725 0.985137 0.185071
H16   H     H_    0.139429 0.890270 0.014381 0.185230
H17   H     H_    0.587487 0.641823 0.919561 0.151968
H18   H     H_    0.412487 0.358186 0.080413 0.151976
H19   H     H_    0.412561 0.641842 0.080506 0.151953
H20   H     H_    0.587637 0.358235 0.919766 0.152014
H21   H     H_    0.087536 0.141803 0.919616 0.151986
H22   H     H_    0.912510 0.858178 0.080440 0.151971
H23   H     H_    0.912284 0.141731 0.080171 0.152051
H24   H     H_    0.731286 0.370613 0.107608 0.167245
H25   H     H_    0.087438 0.858158 0.919494 0.151954
H26   H     H_    0.628222 0.693097 0.916347 0.137227
H27   H     H_    0.371762 0.306911 0.083639 0.137232
H28   H     H_    0.371803 0.693115 0.083686 0.137229
H29   H     H_    0.628300 0.306955 0.916454 0.137221
H30   H     H_    0.128250 0.193078 0.916369 0.137233
H31   H     H_    0.871777 0.806903 0.083654 0.137228
H32   H     H_    0.871651 0.193012 0.083533 0.137242
H33   H     H_    0.128194 0.806884 0.916315 0.137226
H34   H     H_    0.231173 0.129358 0.107440 0.167249
H35   H     H_    0.768855 0.870664 0.892638 0.167257
H36   H     H_    0.768695 0.129427 0.892277 0.167221
H37   H     H_    0.231105 0.870684 0.107278 0.167265
H38   H     H_    0.306340 0.201185 0.013643 0.170585
H39   H     H_    0.693670 0.798817 0.986378 0.170585
H40   H     H_    0.693610 0.201192 0.986260 0.170597
H41   H     H_    0.415203 0.627357 0.912927 0.167468
H42   H     H_    0.306314 0.798819 0.013590 0.170580
H43   H     H_    0.806330 0.701183 0.013622 0.170586
H44   H     H_    0.193661 0.298815 0.986359 0.170590
H45   H     H_    0.193686 0.701181 0.986410 0.170578
H46   H     H_    0.806386 0.298808 0.013731 0.170619
H47   H     H_    0.937136 0.715007 0.754961 0.170965
H48   H     H_    0.062856 0.284988 0.245038 0.170970
H49   H     H_    0.062864 0.715007 0.245039 0.170965
H50   H     H_    0.937138 0.284992 0.754961 0.170966
H51   H     H_    0.437144 0.215012 0.754961 0.170966
H52   H     H_    0.415211 0.372643 0.912919 0.167456
H53   H     H_    0.562864 0.784993 0.245038 0.170965
H54   H     H_    0.562862 0.215008 0.245039 0.170965
H55   H     H_    0.437136 0.784993 0.754961 0.170965
H56   H     H_    0.880931 0.715226 0.642056 0.139733
H57   H     H_    0.119061 0.284769 0.357944 0.139737
H58   H     H_    0.119069 0.715226 0.357944 0.139734
H59   H     H_    0.880933 0.284772 0.642056 0.139735
H60   H     H_    0.380939 0.215231 0.642056 0.139737
H61   H     H_    0.619069 0.784774 0.357944 0.139732
H62   H     H_    0.619067 0.215227 0.357944 0.139735
H63   H     H_    0.584795 0.627358 0.087077 0.167461
H64   H     H_    0.380931 0.784774 0.642056 0.139733
H65   H     H_    0.760993 0.784922 0.641823 0.140298
H66   H     H_    0.239015 0.215083 0.358177 0.140301
H67   H     H_    0.239007 0.784922 0.358177 0.140296
H68   H     H_    0.760990 0.215080 0.641824 0.140305
H69   H     H_    0.260985 0.284917 0.641823 0.140300
H70   H     H_    0.739007 0.715078 0.358177 0.140298
H71   H     H_    0.739009 0.284920 0.358177 0.140302
H72   H     H_    0.260993 0.715078 0.641823 0.140297
H73   H     H_    0.817740 0.785172 0.754764 0.172774
H74   H     H_    0.084801 0.872643 0.087069 0.167469
H75   H     H_    0.182268 0.214833 0.245236 0.172780
H76   H     H_    0.182260 0.785172 0.245236 0.172771
H77   H     H_    0.817737 0.214829 0.754764 0.172790
H78   H     H_    0.317731 0.285167 0.754764 0.172779
H79   H     H_    0.682260 0.714828 0.245236 0.172773
H80   H     H_    0.682262 0.285171 0.245236 0.172781
H81   H     H_    0.317740 0.714828 0.754764 0.172771
H82   H     H_    0.774745 0.800075 0.556425 0.136956
H83   H     H_    0.225267 0.199925 0.443574 0.136957
H84   H     H_    0.225254 0.800075 0.443574 0.136957
H85   H     H_    0.915223 0.127359 0.912904 0.167421
H86   H     H_    0.774742 0.199925 0.556426 0.136954
H87   H     H_    0.274733 0.300075 0.556426 0.136958
H88   H     H_    0.725254 0.699925 0.443574 0.136955
H89   H     H_    0.725257 0.300075 0.443574 0.136955
H90   H     H_    0.274746 0.699925 0.556426 0.136957
H91   H     H_    0.718267 0.800019 0.443369 0.136853
H92   H     H_    0.281746 0.199981 0.556631 0.136852
H93   H     H_    0.281733 0.800019 0.556631 0.136853
H94   H     H_    0.718264 0.199981 0.443369 0.136853
H95   H     H_    0.218255 0.300019 0.443369 0.136854
H96   H     H_    0.915201 0.872642 0.912927 0.167462
H97   H     H_    0.781733 0.699981 0.556631 0.136854
H98   H     H_    0.781736 0.300019 0.556631 0.136855
H99   H     H_    0.218267 0.699981 0.443369 0.136854
H100  H     H_    0.584527 0.429524 0.086780 0.151637
H101  H     H_    0.415460 0.570475 0.913240 0.151668
H102  H     H_    0.415468 0.429525 0.913232 0.151655
H103  H     H_    0.584537 0.570476 0.086770 0.151661
H104  H     H_    0.084543 0.929525 0.086756 0.151666
H105  H     H_    0.915480 0.070476 0.913211 0.151623
H106  H     H_    0.915458 0.929524 0.913235 0.151658
H107  H     H_    0.084783 0.127357 0.087087 0.167447
H108  H     H_    0.084527 0.070475 0.086772 0.151647
H109  H     H_    0.525392 0.127483 0.930591 0.168561
H110  H     H_    0.474608 0.872516 0.069408 0.168591
H111  H     H_    0.474608 0.127483 0.069409 0.168580
H112  H     H_    0.525393 0.872517 0.930592 0.168585
H113  H     H_    0.025405 0.627483 0.930601 0.168592
H114  H     H_    0.974595 0.372516 0.069399 0.168573
H115  H     H_    0.974595 0.627483 0.069399 0.168586
H116  H     H_    0.025405 0.372516 0.930601 0.168584
H117  H     H_    0.525871 0.070928 0.931067 0.140357
H118  H     H_    0.731143 0.629337 0.107364 0.167259
H119  H     H_    0.474129 0.929072 0.068932 0.140371
H120  H     H_    0.474128 0.070928 0.068933 0.140367
H121  H     H_    0.525872 0.929072 0.931068 0.140367
H122  H     H_    0.025884 0.570928 0.931077 0.140372
H123  H     H_    0.974116 0.429072 0.068923 0.140363
H124  H     H_    0.974115 0.570928 0.068923 0.140369
H125  H     H_    0.025884 0.429072 0.931077 0.140369
H126  H     H_    0.546718 0.028320 0.099918 0.137305
H127  H     H_    0.453282 0.971680 0.900082 0.137304
H128  H     H_    0.453281 0.028320 0.900082 0.137304
O1    O     O_3   0.500000 0.749970 0.000000 -0.484976
O2    O     O_R   0.097640 0.731860 0.963670 -0.636037
O3    O     O_R   0.097640 0.268140 0.963670 -0.636050
O4    O     O_R   0.902360 0.731860 0.036330 -0.636044
O5    O     O_R   0.400350 0.731780 0.861400 -0.640460
O6    O     O_R   0.599650 0.268220 0.138600 -0.640450
O7    O     O_R   0.599650 0.731780 0.138600 -0.640458
O8    O     O_R   0.400350 0.268220 0.861400 -0.640455
O9    O     O_R   0.900350 0.231780 0.861400 -0.640444
O10   O     O_R   0.099650 0.768220 0.138600 -0.640459
O11   O     O_R   0.099650 0.231780 0.138600 -0.640453
O12   O     O_3   0.500000 0.250030 0.000000 -0.484970
O13   O     O_R   0.900350 0.768220 0.861400 -0.640458
O14   O     O_R   0.451490 0.680670 0.963650 -0.639055
O15   O     O_R   0.548510 0.319330 0.036350 -0.639064
O16   O     O_R   0.548510 0.680670 0.036350 -0.639058
O17   O     O_R   0.451490 0.319330 0.963650 -0.639053
O18   O     O_R   0.951490 0.180670 0.963650 -0.639067
O19   O     O_R   0.048510 0.819330 0.036350 -0.639055
O20   O     O_R   0.048510 0.180670 0.036350 -0.639054
O21   O     O_R   0.951490 0.819330 0.963650 -0.639060
O22   O     O_R   0.487790 0.819270 0.036340 -0.643405
O23   O     O_3   0.000000 0.249970 0.000000 -0.484975
O24   O     O_R   0.512210 0.180730 0.963660 -0.643421
O25   O     O_R   0.512210 0.819270 0.963660 -0.643409
O26   O     O_R   0.487790 0.180730 0.036340 -0.643409
O27   O     O_R   0.987790 0.319270 0.036340 -0.643416
O28   O     O_R   0.012210 0.680730 0.963660 -0.643405
O29   O     O_R   0.012210 0.319270 0.963660 -0.643409
O30   O     O_R   0.987790 0.680730 0.036340 -0.643409
O31   O     O_R   0.461070 0.768120 0.861410 -0.641643
O32   O     O_R   0.538930 0.231880 0.138590 -0.641644
O33   O     O_R   0.538930 0.768120 0.138590 -0.641643
O34   O     O_3   1.000000 0.750030 0.000000 -0.484976
O35   O     O_R   0.461070 0.231880 0.861410 -0.641644
O36   O     O_R   0.961070 0.268120 0.861410 -0.641644
O37   O     O_R   0.038930 0.731880 0.138590 -0.641642
O38   O     O_R   0.038930 0.268120 0.138590 -0.641641
O39   O     O_R   0.961070 0.731880 0.861410 -0.641643
O40   O     O_R   0.366040 0.731790 0.963660 -0.622387
O41   O     O_R   0.633960 0.268210 0.036340 -0.622402
O42   O     O_R   0.633960 0.731790 0.036340 -0.622390
O43   O     O_R   0.366040 0.268210 0.963660 -0.622393
O44   O     O_R   0.866040 0.231790 0.963660 -0.622400
O45   O     O_R   0.402360 0.768140 0.036330 -0.636038
O46   O     O_R   0.133960 0.768210 0.036340 -0.622389
O47   O     O_R   0.133960 0.231790 0.036340 -0.622392
O48   O     O_R   0.866040 0.768210 0.963660 -0.622391
O49   O     O_R   0.597640 0.231860 0.963670 -0.636073
O50   O     O_R   0.597640 0.768140 0.963670 -0.636044
O51   O     O_R   0.402360 0.231860 0.036330 -0.636052
O52   O     O_R   0.902360 0.268140 0.036330 -0.636066
Zn1   Zn    Zn3+2 0.517420 0.775920 0.948090 0.983534
Zn2   Zn    Zn3+2 0.569330 0.276000 0.051920 0.989491
Zn3   Zn    Zn3+2 0.569330 0.724000 0.051920 0.989495
Zn4   Zn    Zn3+2 0.430670 0.276000 0.948080 0.989500
Zn5   Zn    Zn3+2 0.930670 0.224000 0.948080 0.989498
Zn6   Zn    Zn3+2 0.069330 0.776000 0.051920 0.989497
Zn7   Zn    Zn3+2 0.069330 0.224000 0.051920 0.989502
Zn8   Zn    Zn3+2 0.930670 0.776000 0.948080 0.989495
Zn9   Zn    Zn3+2 0.482580 0.224080 0.051910 0.983535
Zn10  Zn    Zn3+2 0.482580 0.775920 0.051910 0.983539
Zn11  Zn    Zn3+2 0.517420 0.224080 0.948090 0.983515
Zn12  Zn    Zn3+2 0.017420 0.275920 0.948090 0.983540
Zn13  Zn    Zn3+2 0.982580 0.724080 0.051910 0.983535
Zn14  Zn    Zn3+2 0.982580 0.275920 0.051910 0.983535
Zn15  Zn    Zn3+2 0.017420 0.724080 0.948090 0.983538
Zn16  Zn    Zn3+2 0.430670 0.724000 0.948080 0.989498

loop_
_geom_bond_atom_site_label_1
_geom_bond_atom_site_label_2
_ccdc_geom_bond_type
C45   C54   A    
C110  C111  A    
C204  C234  A    
O42   Zn3   S    
C67   H84   S    
C2    C150  A    
C133  H119  S    
O3    Zn12  S    
C102  H105  S    
O12   Zn4   S    
C198  H11   S    
C34   C43   A    
C42   H68   S    
O10   Zn6   S    
C160  H27   S    
Br7   C117  S    
O24   Zn11  S    
C38   C47   A    
C168  C177  A    
O45   Zn10  S    
C75   O17   A    
C177  C185  A    
C14   C22   A    
C113  C198  A    
C79   C159  A    
C211  C232  A    
C28   C37   A    
C97   C106  A    
C30   C39   A    
C77   O19   A    
C220  C237  A    
C17   H51   S    
C119  O22   A    
C169  C178  A    
C103  H106  S    
C121  O29   A    
C81   C89   A    
C128  H113  S    
C10   C77   S    
C146  C201  A    
C196  H10   S    
C84   C93   A    
C128  C148  A    
C134  H120  S    
C86   C95   A    
C211  H46   S    
C127  C147  A    
C101  C161  A    
C174  C183  A    
C225  O9    A    
C162  H29   S    
C164  C213  S    
C68   C117  A    
C152  H128  S    
C18   H53   S    
Br6   C116  S    
C69   C94   A    
C20   C64   A    
O34   Zn6   S    
Br4   C114  S    
C163  C172  A    
C85   C94   A    
C201  H15   S    
Br8   C118  S    
C74   O16   A    
C161  C170  A    
C219  O4    A    
C55   H81   S    
Br1   C177  S    
C208  C217  S    
O43   Zn4   S    
O1    Zn10  S    
C188  C196  A    
O13   Zn8   S    
C102  C108  A    
C104  H108  S    
C225  O36   A    
C8    C238  A    
C70   C83   A    
C223  O7    A    
C71   C87   A    
C86   H99   S    
C150  H126  S    
C47   C55   A    
C189  C198  A    
C80   C88   A    
C164  O50   A    
C207  C216  A    
C154  C158  A    
C192  C201  A    
O1    Zn1   S    
C38   C89   S    
C54   C63   A    
C79   C194  A    
C119  C147  S    
C101  C196  A    
C85   H98   S    
C146  H23   S    
C112  O49   A    
C103  C107  A    
Br14  C183  S    
C184  C193  A    
C60   C225  S    
O29   Zn12  S    
O47   Zn7   S    
C2    C141  S    
C84   H97   S    
C207  H43   S    
C15   H49   S    
C191  C200  A    
C176  C184  A    
C5    H85   S    
C202  H16   S    
C138  H123  S    
C129  H114  S    
C42   C51   A    
O40   Zn16  S    
C26   H60   S    
C210  H45   S    
O14   Zn16  S    
C113  H20   S    
C166  C174  A    
C28   H62   S    
C206  C236  A    
C130  H115  S    
C210  C233  A    
C139  H124  S    
C36   C87   S    
C97   H101  S    
O49   Zn11  S    
C100  C107  A    
C120  O26   A    
C24   C143  S    
C99   H103  S    
C44   H70   S    
C199  H12   S    
C101  H19   S    
C70   C88   A    
C126  C145  A    
C4    H74   S    
C32   C41   A    
O20   Zn7   S    
C83   C92   A    
O17   Zn4   S    
C9    C74   S    
C74   O14   A    
C204  C213  A    
C17   C26   A    
C136  H121  S    
O32   Zn9   S    
C14   C58   A    
C27   C36   A    
C157  H25   S    
C43   H69   S    
C122  O28   A    
C155  H5    S    
C170  C233  S    
C131  C149  A    
C120  O24   A    
C37   C45   A    
C205  C214  A    
C174  C237  S    
C16   C25   A    
C66   C92   A    
C203  C212  A    
C133  C142  A    
O1    Zn3   S    
C57   C116  A    
C227  O38   A    
C187  C195  A    
O11   Zn7   S    
O48   Zn8   S    
C13   C144  S    
C52   C61   A    
C205  C237  A    
C123  C132  A    
C139  C143  A    
C140  C144  A    
C47   H72   S    
C167  H33   S    
C66   H83   S    
C238  H1    S    
C207  C231  A    
C73   H90   S    
C176  C236  S    
C130  C148  A    
O31   Zn1   S    
C49   C58   A    
C64   C221  S    
C12   H47   S    
O22   Zn10  S    
C96   C238  A    
C65   H82   S    
C13   C155  A    
C157  C202  A    
C26   C34   A    
C129  C138  A    
C132  H117  S    
O26   Zn9   S    
C67   C81   A    
C197  O2    A    
C239  H41   S    
C228  O13   A    
C215  C233  A    
Br2   C110  S    
O52   Zn14  S    
C71   C84   A    
C78   H91   S    
C181  C190  A    
C182  C191  A    
C35   C110  A    
O39   Zn15  S    
C18   C27   A    
C3    H63   S    
O37   Zn13  S    
C29   C38   A    
C16   C60   A    
C208  O47   A    
C151  C230  A    
C210  C218  A    
C45   H71   S    
C96   C105  A    
O46   Zn6   S    
Br15  C184  S    
C17   C61   A    
C126  H111  S    
C12   C21   A    
C41   H67   S    
C90   C195  A    
C19   C63   A    
C183  C192  A    
C1    O45   A    
C132  C141  A    
O41   Zn2   S    
C213  C231  A    
C151  H127  S    
C57   C118  A    
C25   H59   S    
C31   C92   S    
C73   C89   A    
C90   C160  A    
C23   C32   A    
C185  H118  S    
C63   C222  S    
C127  H112  S    
C33   C94   S    
C190  C199  A    
C228  O39   A    
C34   C88   S    
C175  C212  S    
C171  C180  A    
C56   C228  S    
O18   Zn5   S    
C186  O44   A    
O7    Zn3   S    
C13   C158  A    
C115  C118  A    
C167  C176  A    
C121  C149  S    
C9    C239  A    
C160  C169  A    
C129  C149  A    
C68   C107  S    
C211  C220  A    
C166  H32   S    
C16   H50   S    
C209  H44   S    
C224  O8    A    
C20   C29   A    
C154  H4    S    
O23   Zn14  S    
C134  C141  A    
C135  H22   S    
C190  H34   S    
C46   C111  A    
C221  O5    A    
C195  H9    S    
C27   H61   S    
C164  O42   A    
C192  H36   S    
C124  C199  A    
C158  H7    S    
C98   C105  A    
C165  C173  A    
C130  C139  A    
O34   Zn15  S    
C159  H26   S    
C123  H109  S    
C41   C50   A    
C49   H75   S    
C5    C11   A    
C50   H76   S    
C20   H55   S    
C203  C235  A    
C12   C56   A    
O6    Zn2   S    
C208  O3    A    
C135  C165  A    
C120  C145  S    
C6    C103  A    
C136  C142  A    
O30   Zn13  S    
C61   C224  S    
O15   Zn2   S    
C123  C145  A    
O28   Zn15  S    
Br11  C180  S    
C226  O37   A    
O2    Zn15  S    
C151  C152  A    
C72   C91   A    
Br9   C178  S    
C179  C188  A    
C113  C162  A    
C82   C91   A    
C172  C235  S    
C5    C102  A    
C37   C91   S    
C161  H28   S    
C15   C59   A    
C51   H77   S    
C48   H73   S    
C69   H86   S    
C131  C140  A    
C162  C171  A    
C131  H116  S    
C127  C136  A    
C65   C93   A    
C78   C87   A    
C135  C200  A    
C226  O10   A    
C168  C231  S    
C67   C95   A    
C197  C218  S    
C24   C156  A    
C186  O52   A    
C217  C235  A    
C68   C115  A    
C21   H56   S    
C124  H21   S    
O33   Zn10  S    
C223  O33   A    
C46   C109  A    
C125  H110  S    
C240  H52   S    
C79   H17   S    
C209  C217  A    
C126  C134  A    
C112  O41   A    
C59   C226  S    
C172  C181  A    
O5    Zn16  S    
C50   C59   A    
O34   Zn13  S    
C39   H65   S    
Br3   C111  S    
C165  H31   S    
C76   O18   A    
Br5   C115  S    
C157  C167  A    
O21   Zn8   S    
C6    C10   A    
C30   C93   S    
C35   C106  S    
C173  C234  S    
C21   C30   A    
C159  C168  A    
C173  C182  A    
C98   H102  S    
C155  C156  A    
C24   C154  A    
C97   C239  A    
C73   C86   A    
C22   H57   S    
C122  O30   A    
C90   H18   S    
C71   H88   S    
C7    H107  S    
C72   C85   A    
C1    C215  S    
C125  C133  A    
C100  H104  S    
O23   Zn7   S    
C193  C202  A    
C44   C53   A    
C81   H93   S    
C146  C166  A    
C83   H95   S    
C53   H79   S    
C40   C49   A    
C180  C189  A    
C124  C163  A    
C8    C240  A    
C128  C137  A    
C69   C82   A    
C6    H96   S    
C109  C114  A    
C25   C33   A    
C205  H40   S    
C116  C117  A    
C1    O40   A    
O51   Zn9   S    
Br12  C181  S    
C96   H100  S    
C7    C11   A    
C36   C44   A    
C29   H64   S    
C175  O43   A    
C187  H2    S    
C188  H13   S    
C197  O46   A    
O16   Zn3   S    
C99   C106  A    
C206  H42   S    
C52   H78   S    
O12   Zn9   S    
C53   C62   A    
C40   H66   S    
C200  H14   S    
C55   C64   A    
C35   C114  A    
C227  O11   A    
O9    Zn5   S    
O19   Zn6   S    
C209  C229  A    
C222  O6    A    
C194  H8    S    
C66   C80   A    
Br13  C182  S    
C221  O31   A    
C170  C179  A    
C222  O32   A    
C72   H89   S    
C218  C236  A    
C7    C104  A    
C4    C100  A    
C224  O35   A    
C2    C152  A    
C212  C229  A    
C186  C220  S    
C216  C219  S    
O12   Zn2   S    
C33   C42   A    
C137  C143  A    
C138  C144  A    
C171  C232  S    
C43   C52   A    
C76   O20   A    
C137  H122  S    
C203  H38   S    
C77   O21   A    
C3    C99   A    
O44   Zn5   S    
C57   C108  S    
C39   C48   A    
O8    Zn4   S    
C11   C76   S    
C19   C28   A    
C22   C31   A    
C82   H94   S    
C14   H48   S    
O25   Zn1   S    
C206  C215  A    
C125  C147  A    
O4    Zn13  S    
C153  C230  A    
C216  C234  A    
C58   C227  S    
C8    C75   S    
C185  C194  A    
O1    Zn16  S    
C214  C232  A    
C121  O27   A    
C169  C229  S    
Br16  C109  S    
O23   Zn5   S    
O23   Zn12  S    
C112  C214  S    
C80   H92   S    
O38   Zn14  S    
C191  H35   S    
C119  O25   A    
C122  C148  S    
C65   C78   A    
C98   C240  A    
C163  H30   S    
C62   C223  S    
O27   Zn14  S    
Br10  C179  S    
C18   C62   A    
C19   H54   S    
O34   Zn8   S    
C204  H39   S    
C4    C10   A    
C178  C187  A    
C189  H24   S    
C15   C23   A    
C75   O15   A    
C48   C56   A    
C156  H6    S    
C3    C9    A    
O50   Zn1   S    
C219  O48   A    
C54   H80   S    
C32   C95   S    
C175  O51   A    
C140  H125  S    
C150  C153  A    
C153  H3    S    
O12   Zn11  S    
C193  H37   S    
C70   H87   S    
C31   C40   A    
O35   Zn11  S    
C51   C60   A    
C142  C230  S    
O36   Zn12  S    
C23   H58   S    
C46   C105  S    
C104  C108  A    
