data_mof_unit_39615.cif
_audit_creation_date              2012-12-10T20:49:45-0500
_audit_creation_method            fapswitch 2.2
_symmetry_space_group_name_H-M    P1
_symmetry_Int_Tables_number       1
_space_group_crystal_system       triclinic
_cell_length_a                    8.166884
_cell_length_b                    8.919357
_cell_length_c                    16.754291
_cell_angle_alpha                 90.050795
_cell_angle_beta                  86.917797
_cell_angle_gamma                 89.987475
_cell_volume                      1218.67276526

loop_
_atom_site_label
_atom_site_type_symbol
_atom_type_description
_atom_site_fract_x
_atom_site_fract_y
_atom_site_fract_z
_atom_type_partial_charge
C1    C     C_R   0.500015 0.781738 0.499785 0.910191
C2    C     C_R   0.499991 0.218239 0.500095 0.918923
C3    C     C_1   0.499975 0.934693 0.499916 -0.204799
C4    C     C_1   0.499975 0.065237 0.500036 -0.196643
C5    C     C_R   0.480764 0.514801 0.653197 0.886684
C6    C     C_R   0.519466 0.497007 0.346068 0.884201
C7    C     C_R   0.476977 0.576439 0.735245 -0.310182
C8    C     C_R   0.523821 0.497301 0.258171 -0.311807
C9    C     C_R   0.624234 0.605587 0.774435 -0.134275
C10   C     C_R   0.377437 0.481967 0.217025 -0.124130
C11   C     C_R   0.615824 0.687423 0.846020 -0.040258
C12   C     C_R   0.379464 0.518704 0.135840 -0.029258
C13   C     C_R   0.465711 0.694289 0.890175 -0.096101
C14   C     C_R   0.530280 0.528558 0.091891 -0.082479
C15   C     C_R   0.319479 0.666357 0.852638 -0.087585
C16   C     C_R   0.676724 0.509105 0.130298 -0.106034
C17   C     C_R   0.327624 0.630308 0.771141 0.481655
C18   C     C_R   0.673400 0.519621 0.213677 0.478390
C19   C     C_2   0.468364 0.681986 0.976877 -0.251513
C20   C     C_2   0.535807 0.558250 0.006187 -0.241390
H1    H     H_    0.598169 0.477522 0.966437 0.167474
H2    H     H_    0.404338 0.763525 0.015322 0.175950
N1    N     N_1   0.926360 0.500000 0.499990 -0.000778
N2    N     N_1   0.073640 0.500000 0.500010 -0.005662
O1    O     O_R   0.363150 0.714660 0.500000 -0.629845
O2    O     O_R   0.636850 0.285340 0.500000 -0.613716
O3    O     O_R   0.636850 0.714660 0.500000 -0.618387
O4    O     O_R   0.363150 0.285340 0.500000 -0.620263
O5    O     O_R   0.346950 0.500000 0.615800 -0.562241
O6    O     O_R   0.653050 0.500000 0.384200 -0.565369
O7    O     O_R   0.620700 0.500000 0.615800 -0.593748
O8    O     O_R   0.379300 0.500000 0.384200 -0.593927
Zn1   Zn    Zn3+2 0.317220 0.500000 0.500010 1.022041
Zn2   Zn    Zn3+2 0.682780 0.500000 0.499990 1.029689
C21   C     C_2   0.160450 0.663930 0.898781 0.484520
H3    H     H_    0.138042 0.738132 0.949546 0.049860
O9    O     O_2   0.056077 0.572389 0.882849 -0.584330
C22   C     C_2   0.831232 0.474908 0.084545 0.506211
H4    H     H_    0.860959 0.527837 0.027327 0.065100
O10   O     O_2   0.922673 0.379003 0.108966 -0.562314
C23   C     C_2   0.224587 0.547191 0.097272 0.460082
H5    H     H_    0.202946 0.497404 0.039728 0.089848
O11   O     O_2   0.124305 0.633996 0.127972 -0.579544
C24   C     C_2   0.761420 0.763488 0.876635 0.465579
H6    H     H_    0.770746 0.783271 0.940135 0.063224
O12   O     O_2   0.867884 0.813944 0.830306 -0.564249
C25   C     C_2   0.783206 0.535087 0.749881 0.612312
H7    H     H_    0.828616 0.443347 0.784945 0.060517
O13   O     O_2   0.867199 0.582677 0.693179 -0.509539
C26   C     C_2   0.229273 0.407187 0.253164 0.582430
H8    H     H_    0.208317 0.289669 0.240528 0.028229
O14   O     O_2   0.128115 0.476442 0.294621 -0.498519
O15   O     O_3   0.813402 0.563561 0.250458 -0.518011
C27   C     C_3   0.810867 0.722277 0.255967 0.169652
H9    H     H_    0.692563 0.763975 0.284171 0.087130
H10   H     H_    0.829606 0.773270 0.195506 0.143589
C28   C     C_3   0.946697 0.776893 0.307527 -0.648599
H11   H     H_    0.068555 0.755648 0.277187 0.285032
H12   H     H_    0.933883 0.899508 0.317616 0.169838
H13   H     H_    0.938569 0.719302 0.366336 0.257751
O16   O     O_3   0.194468 0.660360 0.725947 -0.524989
C29   C     C_3   0.212374 0.809703 0.697679 0.161216
H14   H     H_    0.333097 0.826034 0.664478 0.093366
H15   H     H_    0.202294 0.890757 0.748360 0.135812
C30   C     C_3   0.079618 0.847241 0.640551 -0.633956
H16   H     H_    0.958346 0.854838 0.673401 0.283540
H17   H     H_    0.106633 0.957391 0.611914 0.171495
H18   H     H_    0.075440 0.760600 0.593186 0.262906

loop_
_geom_bond_atom_site_label_1
_geom_bond_atom_site_label_2
_ccdc_geom_bond_type
C1    C3    S    
C6    O8    A    
N1    N2    T    
C27   H10   S    
C15   C17   A    
C29   H14   S    
N2    Zn1   S    
C14   C20   S    
C25   O13   D    
C11   C13   A    
C23   H5    S    
C2    C4    S    
C19   C20   D    
C29   C30   S    
C29   H15   S    
C30   H18   S    
C1    O3    A    
O8    Zn1   S    
N1    Zn2   S    
C13   C15   A    
C26   H8    S    
O7    Zn2   S    
C11   C24   S    
C2    O2    A    
C16   C22   S    
O15   C27   S    
C24   H6    S    
C1    O1    A    
C23   O11   D    
C28   H11   S    
C12   C23   S    
C10   C12   A    
C6    C8    S    
C16   C18   A    
C22   O10   D    
C12   C14   A    
O4    Zn1   S    
C9    C25   S    
C5    O5    A    
C9    C11   A    
O3    Zn2   S    
O16   C29   S    
C6    O6    A    
C14   C16   A    
C28   H12   S    
C30   H17   S    
C13   C19   S    
C3    C4    T    
C10   C26   S    
O5    Zn1   S    
C19   H2    S    
C22   H4    S    
C20   H1    S    
C21   O9    D    
C7    C9    A    
C30   H16   S    
C15   C21   S    
C26   O14   D    
C5    C7    S    
O6    Zn2   S    
C27   H9    S    
C28   H13   S    
C2    O4    A    
C21   H3    S    
C24   O12   D    
C18   O15   S    
C17   O16   S    
O2    Zn2   S    
C8    C10   A    
C8    C18   A    
C25   H7    S    
O1    Zn1   S    
C5    O7    A    
C27   C28   S    
C7    C17   A    
