data_mof_unit_52138.cif
_audit_creation_date              2012-12-11T16:56:11-0500
_audit_creation_method            fapswitch 2.2
_symmetry_space_group_name_H-M    P1
_symmetry_Int_Tables_number       1
_space_group_crystal_system       triclinic
_cell_length_a                    6.950675
_cell_length_b                    14.480573
_cell_length_c                    16.274131
_cell_angle_alpha                 90.389475
_cell_angle_beta                  90.398068
_cell_angle_gamma                 89.902012
_cell_volume                      1637.90768655

loop_
_atom_site_label
_atom_site_type_symbol
_atom_type_description
_atom_site_fract_x
_atom_site_fract_y
_atom_site_fract_z
_atom_type_partial_charge
O1    O     O_R   0.505830 0.583360 0.413880 -0.535803
O2    O     O_R   0.175830 0.595460 0.585520 -0.546399
O3    O     O_R   0.005520 0.416640 0.586120 -0.540625
C1    C     C_R   0.344983 0.618136 0.613606 0.701004
O4    O     O_R   0.176120 0.594390 0.414490 -0.545382
O5    O     O_R   0.005810 0.415570 0.413870 -0.541502
C2    C     C_R   0.344263 0.617130 0.386776 0.700186
O6    O     O_R   0.505540 0.584430 0.586130 -0.535895
O7    O     O_3   0.339200 0.441330 0.500000 -0.368841
V1    V     V_3+5 0.064350 0.510880 0.500000 1.387240
O8    O     O_R   0.676100 0.404540 0.414480 -0.536594
C3    C     C_R   0.844270 0.384252 0.384437 0.696679
O9    O     O_R   0.675810 0.405610 0.585510 -0.539511
C4    C     C_R   0.845379 0.383896 0.613810 0.744271
V2    V     V_3+5 0.564340 0.489120 0.500000 1.403046
O10   O     O_3   0.839360 0.558670 0.500000 -0.372434
C5    C     C_2   0.720328 0.210097 0.786392 -0.133972
C6    C     C_2   0.884999 0.182147 0.822930 -0.310757
H1    H     H_    0.584419 0.182017 0.807171 0.135700
H2    H     H_    0.022471 0.209671 0.804234 0.128244
C7    C     C_2   0.708761 0.278613 0.718425 -0.139539
C8    C     C_2   0.862166 0.315930 0.680894 -0.316545
H3    H     H_    0.565131 0.298225 0.698365 0.135403
H4    H     H_    0.007018 0.297153 0.699106 0.129803
C9    C     C_R   0.704990 0.206242 0.222374 0.023579
C10   C     C_R   0.878370 0.188151 0.181550 -0.091882
C11   C     C_R   0.035961 0.245601 0.201494 -0.204122
H5    H     H_    0.170818 0.238086 0.169225 0.127828
C12   C     C_R   0.023164 0.311538 0.265638 -0.190153
H6    H     H_    0.149007 0.352386 0.280678 0.130230
C13   C     C_R   0.852492 0.321971 0.311673 -0.091210
C14   C     C_R   0.690496 0.272737 0.284440 0.029787
C15   C     C_3   0.548203 0.217902 0.332507 -0.495096
C16   C     C_3   0.569570 0.142969 0.266147 0.296012
H7    H     H_    0.403898 0.250796 0.331635 0.154394
H8    H     H_    0.598907 0.200619 0.395363 0.157621
H9    H     H_    0.434655 0.132446 0.230257 0.087491
C17   C     C_R   0.514211 0.693064 0.733494 0.046490
C18   C     C_R   0.355082 0.686551 0.681453 -0.093079
C19   C     C_R   0.204798 0.750230 0.697408 -0.196366
H10   H     H_    0.079725 0.752268 0.657600 0.122609
C20   C     C_R   0.217867 0.814401 0.763774 -0.188530
H11   H     H_    0.102765 0.863765 0.772460 0.120422
C21   C     C_R   0.380510 0.816581 0.816797 -0.146190
C22   C     C_R   0.527615 0.754783 0.796922 0.078188
C23   C     C_3   0.731638 0.729483 0.815083 0.305082
C24   C     C_3   0.712662 0.657380 0.745092 -0.463212
H12   H     H_    0.826477 0.789014 0.801786 0.040821
H13   H     H_    0.713056 0.584398 0.765898 0.179571
H14   H     H_    0.804549 0.671806 0.691313 0.145474
C25   C     C_R   0.499150 0.678453 0.260158 0.008374
C26   C     C_R   0.350305 0.681705 0.316736 -0.081623
C27   C     C_R   0.199536 0.743929 0.299515 -0.178106
H15   H     H_    0.077670 0.748663 0.340153 0.119774
C28   C     C_R   0.211826 0.805607 0.232682 -0.127357
H16   H     H_    0.097302 0.854644 0.223352 0.118332
C29   C     C_R   0.374720 0.807318 0.181083 -0.121052
C30   C     C_R   0.507152 0.735187 0.191877 0.004840
C31   C     C_3   0.722480 0.726625 0.190976 0.313440
C32   C     C_3   0.710618 0.667847 0.268776 -0.437117
H17   H     H_    0.792883 0.794376 0.201586 0.083890
H18   H     H_    0.764360 0.703964 0.324714 0.140979
H19   H     H_    0.758467 0.595060 0.262539 0.169222
O11   O     O_R   0.229930 0.912420 0.917160 -0.548189
O12   O     O_R   0.559420 0.902500 0.088780 -0.531140
O13   O     O_R   0.729660 0.081330 0.089380 -0.532658
C33   C     C_R   0.390406 0.878577 0.115898 0.723888
O14   O     O_R   0.559650 0.901420 0.917750 -0.535145
O15   O     O_R   0.729880 0.080250 0.917130 -0.541260
C34   C     C_R   0.391104 0.881196 0.887715 0.698737
O16   O     O_R   0.229700 0.913500 0.089410 -0.541708
O17   O     O_3   0.396250 0.055540 0.003280 -0.375650
V3    V     V_3+5 0.671130 0.986010 0.003260 1.448473
O18   O     O_R   0.059600 0.091310 0.917720 -0.546842
C35   C     C_R   0.890508 0.113351 0.889671 0.732248
O19   O     O_R   0.059370 0.092380 0.088750 -0.550364
C36   C     C_R   0.890574 0.115187 0.117038 0.707539
V4    V     V_3+5 0.171120 0.007820 0.003230 1.392838
O20   O     O_3   0.896130 0.938240 0.003240 -0.367928
O21   O     O_3   0.652405 0.056533 0.289450 -0.564551
C37   C     C_3   0.803678 0.062071 0.348396 0.102108
H20   H     H_    0.743212 0.050361 0.410509 0.123753
H21   H     H_    0.881105 0.129049 0.348666 0.132061
C38   C     C_3   0.951958 0.987403 0.329809 -0.313954
H22   H     H_    0.881969 0.918463 0.331483 0.186740
H23   H     H_    0.009438 0.999232 0.267238 0.188580
C39   C     C_3   0.118649 0.989931 0.391404 -0.834972
H24   H     H_    0.192913 0.057765 0.389219 0.238422
H25   H     H_    0.224373 0.935080 0.375995 0.245556
H26   H     H_    0.065176 0.977997 0.454600 0.224438
O22   O     O_3   0.752958 0.688768 0.893326 -0.569830
C40   C     C_3   0.949668 0.687285 0.917054 0.113217
H27   H     H_    0.956428 0.683389 0.984745 0.184609
H28   H     H_    0.026489 0.752150 0.901972 0.117908
C41   C     C_3   0.054434 0.602868 0.881326 -0.360431
H29   H     H_    0.070046 0.610933 0.813941 0.204736
H30   H     H_    0.968825 0.539562 0.892866 0.206217
C42   C     C_3   0.254573 0.591270 0.919445 -0.806984
H31   H     H_    0.338211 0.655964 0.914451 0.251589
H32   H     H_    0.333104 0.535163 0.887035 0.234426
H33   H     H_    0.244433 0.573299 0.985389 0.213753
O23   O     O_3   0.801207 0.679504 0.121544 -0.567133
C43   C     C_3   0.705675 0.596531 0.097113 0.089572
H34   H     H_    0.648469 0.606114 0.033892 0.170943
H35   H     H_    0.581203 0.576513 0.135281 0.114020
C44   C     C_3   0.849206 0.516235 0.096880 -0.313506
H36   H     H_    0.968968 0.531939 0.054788 0.199898
H37   H     H_    0.910698 0.506884 0.159451 0.193384
C45   C     C_3   0.754088 0.426200 0.069234 -0.832043
H38   H     H_    0.638586 0.406715 0.112640 0.230050
H39   H     H_    0.863050 0.370062 0.067944 0.236080
H40   H     H_    0.691898 0.433690 0.006553 0.231376

loop_
_geom_bond_atom_site_label_1
_geom_bond_atom_site_label_2
_ccdc_geom_bond_type
C28   H16   S    
C6    C35   S    
C11   C12   A    
C16   H9    S    
C41   H29   S    
C38   C39   S    
C1    O6    A    
C37   H20   S    
C41   C42   S    
C24   H13   S    
C27   H15   S    
C26   C27   A    
C10   C11   A    
C32   H19   S    
O19   V4    S    
C2    C26   S    
C45   H39   S    
O5    C3    A    
C17   C18   A    
C15   H7    S    
C44   H36   S    
V2    O10   S    
C15   H8    S    
O12   V3    S    
C32   H18   S    
C17   C22   A    
O17   V4    S    
C16   O21   S    
O8    V2    S    
O12   C33   A    
O15   V3    S    
O1    V2    S    
O11   C34   A    
O7    V1    S    
C33   O16   A    
C9    C16   S    
O14   V3    S    
C9    C14   A    
C19   C20   A    
C31   C32   S    
O9    C4    A    
C20   C21   A    
C29   C33   S    
C37   H21   S    
C15   C16   S    
C24   H14   S    
C27   C28   A    
C23   H12   S    
C31   H17   S    
C10   C36   S    
O18   C35   A    
C25   C26   A    
C38   H22   S    
C45   H40   S    
O22   C40   S    
O4    C2    A    
V4    O20   S    
O17   V3    S    
C23   O22   S    
C9    C10   A    
C22   C23   S    
O13   V3    S    
C40   C41   S    
C5    C7    S    
O2    C1    A    
C28   C29   A    
C12   H6    S    
C13   C14   A    
C1    C18   S    
C40   H28   S    
C5    C6    D    
V3    O20   S    
C43   H35   S    
C25   C30   A    
O19   C36   A    
C21   C34   S    
C17   C24   S    
O3    C4    A    
C19   H10   S    
O6    V2    S    
C42   H32   S    
O9    V2    S    
C3    C13   S    
C8    H4    S    
C20   H11   S    
O2    V1    S    
C18   C19   A    
C37   C38   S    
C21   C22   A    
O13   C36   A    
C23   C24   S    
O1    C2    A    
C31   O23   S    
O11   V4    S    
C38   H23   S    
O21   C37   S    
O5    V1    S    
O8    C3    A    
C41   H30   S    
C42   H33   S    
C14   C15   S    
C4    C8    S    
C7    H3    S    
C30   C31   S    
O4    V1    S    
C12   C13   A    
O3    V1    S    
V1    O10   S    
C45   H38   S    
C29   C30   A    
C44   H37   S    
C40   H27   S    
C5    H1    S    
O15   C35   A    
C43   C44   S    
C6    H2    S    
O7    V2    S    
O23   C43   S    
C39   H24   S    
O14   C34   A    
C42   H31   S    
O18   V4    S    
C39   H26   S    
C43   H34   S    
C39   H25   S    
C25   C32   S    
C7    C8    D    
O16   V4    S    
C11   H5    S    
C44   C45   S    
