data_mof_unit_61129.cif
_audit_creation_date              2012-12-10T17:54:46-0500
_audit_creation_method            fapswitch 2.2
_symmetry_space_group_name_H-M    P1
_symmetry_Int_Tables_number       1
_space_group_crystal_system       triclinic
_cell_length_a                    18.774731
_cell_length_b                    18.823043
_cell_length_c                    18.892333
_cell_angle_alpha                 109.597407
_cell_angle_beta                  109.546693
_cell_angle_gamma                 109.288661
_cell_volume                      5138.33164774

loop_
_atom_site_label
_atom_site_type_symbol
_atom_type_description
_atom_site_fract_x
_atom_site_fract_y
_atom_site_fract_z
_atom_type_partial_charge
C1    C     C_R   0.120290 0.001581 0.618789 0.935970
C2    C     C_R   0.321900 0.085692 0.827901 0.356203
C3    C     C_R   0.313476 0.005595 0.821429 -0.285839
C4    C     C_R   0.121959 0.118774 0.503235 0.904237
C5    C     C_R   0.237370 0.928440 0.754095 0.063452
C6    C     C_3   0.225482 0.844101 0.694777 0.121523
C7    C     C_3   0.158138 0.843484 0.620910 0.648449
C8    C     C_R   0.762732 0.731169 0.434225 0.161023
C9    C     C_R   0.816724 0.815788 0.503110 -0.179893
C10   C     C_R   0.804583 0.836450 0.575812 -0.145061
C11   C     C_R   0.739750 0.773223 0.577480 0.404995
C12   C     C_R   0.265632 0.176936 0.506113 -0.005729
C13   C     C_R   0.685167 0.687587 0.503897 -0.144777
C14   C     C_R   0.699292 0.670653 0.434170 0.010567
C15   C     C_3   0.668990 0.601108 0.346166 -0.482466
C16   C     C_R   0.879797 0.998914 0.381477 0.867947
C17   C     C_3   0.740993 0.670556 0.345740 0.235285
C18   C     C_R   0.819788 0.002745 0.246420 -0.108065
C19   C     C_R   0.812666 0.000717 0.316753 -0.206370
C20   C     C_R   0.746565 0.012214 0.330279 0.406545
C21   C     C_R   0.683393 0.016750 0.267412 0.317019
C22   C     C_R   0.686283 0.006744 0.190621 -0.211382
C23   C     C_R   0.193888 0.185720 0.508152 -0.087522
C24   C     C_R   0.757816 0.005438 0.184611 -0.031732
C25   C     C_3   0.763732 0.947534 0.112376 0.629016
C26   C     C_3   0.833110 0.945058 0.181674 0.234355
C27   C     C_R   0.499647 0.618397 0.618516 0.774915
C28   C     C_R   0.881799 0.881315 0.500643 0.817574
C29   C     C_R   0.380972 0.379331 0.498073 0.914823
C30   C     C_R   0.501893 0.383117 0.381559 0.888525
C31   C     C_R   0.618580 0.618785 0.500503 0.779476
C32   C     C_R   0.500059 0.118725 0.118531 0.768467
C33   C     C_R   0.381088 0.001342 0.882781 0.811636
C34   C     C_R   0.185988 0.256719 0.507950 -0.189632
C35   C     C_R   0.500646 0.881092 0.881896 0.815529
C36   C     C_R   0.618829 0.001114 0.119579 0.781422
C37   C     C_R   0.540319 0.769267 0.706574 -0.141335
C38   C     C_R   0.498219 0.682670 0.685556 -0.099653
C39   C     C_R   0.467075 0.662828 0.739399 0.436523
C40   C     C_R   0.285058 0.115125 0.522063 0.393095
C41   C     C_R   0.470123 0.729081 0.805252 -0.142883
C42   C     C_R   0.504612 0.814318 0.819115 -0.227558
C43   C     C_R   0.545041 0.833930 0.773064 0.082151
C44   C     C_3   0.540854 0.885138 0.727197 0.708934
C45   C     C_R   0.246436 0.318882 0.503743 0.349140
C46   C     C_3   0.535774 0.813063 0.653138 0.092909
C47   C     C_R   0.427429 0.246870 0.243425 -0.111594
C48   C     C_R   0.504248 0.318075 0.316135 -0.153753
C49   C     C_R   0.583759 0.322627 0.323960 0.360709
C50   C     C_R   0.582304 0.256736 0.258613 -0.183249
C51   C     C_R   0.502388 0.185384 0.186428 -0.102075
C52   C     C_R   0.348684 0.100870 0.507301 -0.274596
C53   C     C_R   0.426593 0.182847 0.182304 -0.099878
C54   C     C_3   0.329601 0.134989 0.124606 0.210149
C55   C     C_3   0.330350 0.207787 0.195172 0.272139
C56   C     C_R   0.313942 0.308120 0.494124 -0.114344
C57   C     C_R   0.393708 0.146553 0.477760 0.299541
C58   C     C_R   0.380341 0.213154 0.468071 0.366631
C59   C     C_R   0.320962 0.233553 0.489602 -0.085714
C60   C     C_R   0.176454 0.927795 0.687787 -0.041494
C61   C     C_R   0.188424 0.004408 0.686851 -0.252106
C62   C     C_R   0.259827 0.084534 0.759620 0.372611
Cl1   Cl    Cl    0.047108 0.759826 0.568527 -0.463034
Cl2   Cl    Cl    0.799011 0.999922 0.057160 -0.436617
Cl3   Cl    Cl    0.942101 0.999079 0.202235 -0.452710
Cl4   Cl    Cl    0.435061 0.753093 0.552443 -0.517637
Cl5   Cl    Cl    0.685940 0.411381 0.410953 -0.539107
Cl6   Cl    Cl    0.468727 0.119490 0.456716 -0.537429
Cl7   Cl    Cl    0.235672 0.410801 0.512893 -0.527843
Cl8   Cl    Cl    0.276375 0.184511 0.764539 -0.467767
Cu1   Cu    Cu3+1 0.000020 0.938200 0.438210 1.117625
Cu2   Cu    Cu3+1 0.999980 0.061800 0.561790 1.098984
Cu3   Cu    Cu3+1 0.438170 0.500030 0.438220 1.114279
Cu4   Cu    Cu3+1 0.561770 0.500000 0.561810 1.113165
Cu5   Cu    Cu3+1 0.561810 0.061820 0.000030 1.104920
Cu6   Cu    Cu3+1 0.438190 0.938280 0.000080 1.077849
H1    H     H_    0.131965 0.263934 0.511050 0.196222
H2    H     H_    0.643221 0.261288 0.264262 0.189367
H3    H     H_    0.309471 0.134671 0.062027 0.120156
H4    H     H_    0.309805 0.249210 0.173343 0.132332
H5    H     H_    0.285455 0.850428 0.691918 0.103264
H6    H     H_    0.185739 0.726794 0.673027 0.358227
H7    H     H_    0.180164 0.797232 0.527918 0.352117
H8    H     H_    0.681237 0.750738 0.642185 0.317968
H9    H     H_    0.787067 0.609767 0.288042 0.344731
H10   H     H_    0.694087 0.022684 0.404467 0.391895
H11   H     H_    0.268164 0.034367 0.566222 0.351093
H12   H     H_    0.845410 0.901564 0.631675 0.201548
H13   H     H_    0.594784 0.051665 0.246229 0.335309
H14   H     H_    0.645145 0.873878 0.015933 0.328210
H15   H     H_    0.425274 0.538120 0.676183 0.332716
H16   H     H_    0.416093 0.841909 0.688303 0.320993
H17   H     H_    0.614621 0.988495 0.732287 0.354419
H18   H     H_    0.325063 0.046982 0.160413 0.354726
H19   H     H_    0.317175 0.151860 0.264795 0.363009
H20   H     H_    0.455755 0.232283 0.417363 0.363328
H21   H     H_    0.413293 0.158568 0.949254 0.319115
H22   H     H_    0.680477 0.547312 0.348027 0.255992
H23   H     H_    0.601916 0.580599 0.298323 0.181339
H24   H     H_    0.717567 0.690253 0.297143 0.101507
H25   H     H_    0.812912 0.880025 0.176347 0.136888
H26   H     H_    0.442870 0.712909 0.843638 0.202366
H27   H     H_    0.363000 0.053037 0.518293 0.207920
H28   H     H_    0.594306 0.834251 0.645823 0.155182
O1    O     O_R   0.090180 0.947810 0.537990 -0.519828
O2    O     O_R   0.447830 0.038100 0.090230 -0.565419
O3    O     O_R   0.462030 0.052220 0.909860 -0.558369
O4    O     O_R   0.090150 0.052180 0.642350 -0.565052
O5    O     O_R   0.357640 0.947890 0.909900 -0.538474
O6    O     O_R   0.552170 0.962000 0.909870 -0.519301
O7    O     O_R   0.447780 0.857670 0.909910 -0.587960
O8    O     O_R   0.642360 0.052210 0.090200 -0.552069
O9    O     O_R   0.537970 0.947880 0.090240 -0.569535
O10   O     O_R   0.090190 0.037990 0.447830 -0.542578
O11   O     O_R   0.090170 0.142360 0.552190 -0.581740
O12   O     O_R   0.552150 0.590170 0.642370 -0.594397
O13   O     O_R   0.909850 0.947820 0.357650 -0.598342
O14   O     O_R   0.909820 0.052190 0.462010 -0.536368
O15   O     O_R   0.909830 0.857640 0.447810 -0.548138
O16   O     O_R   0.909810 0.962010 0.552170 -0.591385
O17   O     O_R   0.447770 0.590190 0.538000 -0.512860
O18   O     O_3   0.189050 0.779433 0.713147 -0.629206
O19   O     O_3   0.185178 0.853448 0.562425 -0.718102
O20   O     O_3   0.732037 0.798674 0.650909 -0.692929
O21   O     O_3   0.808381 0.652809 0.348624 -0.618499
O22   O     O_3   0.743812 0.015694 0.403629 -0.692587
O23   O     O_R   0.357600 0.409850 0.447820 -0.533446
O24   O     O_3   0.246083 0.073731 0.557809 -0.704543
O25   O     O_3   0.620114 0.029296 0.282427 -0.694758
O26   O     O_3   0.687753 0.865814 0.055777 -0.733535
O27   O     O_3   0.429719 0.580240 0.728090 -0.671710
O28   O     O_3   0.467180 0.896208 0.705942 -0.680739
O29   O     O_3   0.618763 0.964321 0.771859 -0.661673
O30   O     O_3   0.286103 0.051766 0.113724 -0.630498
O31   O     O_3   0.289275 0.179944 0.238550 -0.621154
O32   O     O_3   0.419912 0.255463 0.433267 -0.730343
O33   O     O_3   0.389705 0.165521 0.898233 -0.643388
O34   O     O_R   0.461980 0.409830 0.552180 -0.566630
O35   O     O_R   0.447790 0.409860 0.357660 -0.594947
O36   O     O_R   0.552170 0.409840 0.462020 -0.517671
O37   O     O_R   0.537960 0.590200 0.447840 -0.579250
O38   O     O_R   0.642340 0.590180 0.552210 -0.553940
O39   O     O_R   0.552220 0.142430 0.090190 -0.590047

loop_
_geom_bond_atom_site_label_1
_geom_bond_atom_site_label_2
_ccdc_geom_bond_type
C52   H27   S    
Cu5   O3    S    
H10   O22   S    
Cu3   Cu4   S    
C4    O11   A    
H9    O21   S    
C11   O20   S    
C33   O3    A    
Cu5   Cu6   S    
C27   O17   A    
H20   O32   S    
Cu3   O37   S    
C53   C54   S    
C29   O34   A    
Cu4   O34   S    
C12   C23   A    
C10   H12   S    
Cu5   O8    S    
C39   O27   S    
C18   C24   A    
C4    O10   A    
H16   O28   S    
C46   Cl4   S    
H17   O29   S    
C16   C19   S    
C26   H25   S    
C38   C39   A    
H15   O27   S    
C25   O26   S    
C27   C38   S    
C40   O24   S    
H13   O25   S    
C41   H26   S    
C62   Cl8   S    
C18   C19   A    
C41   C42   A    
C35   C42   S    
C32   O39   A    
C12   C59   A    
Cu2   O4    S    
C45   C56   A    
Cu6   O5    S    
C18   C26   S    
C36   O8    A    
C8    C14   A    
C9    C10   A    
C47   C53   A    
C27   O12   A    
Cu4   O38   S    
C6    H5    S    
C32   O2    A    
C13   C14   A    
C26   Cl3   S    
C36   O9    A    
C50   H2    S    
H21   O33   S    
H11   O24   S    
C44   C46   S    
Cu6   O9    S    
C30   O36   A    
Cu1   O13   S    
C45   Cl7   S    
C24   C25   S    
C39   C41   A    
C7    Cl1   S    
C15   H23   S    
C4    C23   S    
C8    C9    A    
Cu3   O35   S    
C58   O32   S    
C25   C26   S    
C40   C52   A    
Cu4   O36   S    
Cu1   O10   S    
C60   C61   A    
C51   C53   A    
C25   Cl2   S    
C12   C40   A    
C43   C44   S    
C32   C51   S    
C20   O22   S    
C37   C38   A    
C16   O14   A    
C47   C48   A    
Cu2   O11   S    
C23   C34   A    
Cu4   O12   S    
Cu2   O16   S    
H19   O31   S    
C50   C51   A    
C34   C45   A    
C21   O25   S    
C35   O6    A    
Cu5   O39   S    
C31   O37   A    
Cu3   O17   S    
Cu1   O1    S    
C28   O16   A    
C22   C24   A    
C37   C43   A    
C44   O28   S    
C42   C43   A    
C6    O18   S    
C15   H22   S    
C52   C57   A    
C7    C60   S    
C35   O7    A    
C47   C55   S    
C54   H3    S    
C30   C48   S    
C44   O29   S    
C15   C17   S    
C54   C55   S    
C48   C49   A    
Cu5   O6    S    
Cu6   O2    S    
C30   O35   A    
C49   Cl5   S    
C5    C60   A    
C2    O33   S    
C13   C31   S    
C7    O19   S    
C3    C5    A    
C28   O15   A    
C1    C61   S    
C6    C7    S    
C29   C56   S    
H8    O20   S    
C22   C36   S    
C8    C17   S    
C56   C59   A    
Cu1   O15   S    
C19   C20   A    
C29   O23   A    
C2    C3    A    
C58   C59   A    
Cu1   Cu2   S    
C34   H1    S    
Cu3   O23   S    
C16   O13   A    
C55   H4    S    
C11   C13   A    
C17   O21   S    
C57   C58   A    
C5    C6    S    
C46   H28   S    
C31   O38   A    
Cu6   O7    S    
C55   O31   S    
H18   O30   S    
C61   C62   A    
C17   H24   S    
C10   C11   A    
C1    O4    A    
H14   O26   S    
C33   O5    A    
C20   C21   A    
C49   C50   A    
Cu2   O14   S    
C3    C33   S    
C14   C15   S    
C57   Cl6   S    
H7    O19   S    
C37   C46   S    
C21   C22   A    
H6    O18   S    
C2    C62   A    
C9    C28   S    
C1    O1    A    
C54   O30   S    
