data_mof_unit_15187.cif
_audit_creation_date              2012-12-11T15:53:51-0500
_audit_creation_method            fapswitch 2.2
_symmetry_space_group_name_H-M    P1
_symmetry_Int_Tables_number       1
_space_group_crystal_system       triclinic
_cell_length_a                    10.662577
_cell_length_b                    10.645128
_cell_length_c                    16.949115
_cell_angle_alpha                 81.065543
_cell_angle_beta                  99.489541
_cell_angle_gamma                 118.316961
_cell_volume                      1663.81906895

loop_
_atom_site_label
_atom_site_type_symbol
_atom_type_description
_atom_site_fract_x
_atom_site_fract_y
_atom_site_fract_z
_atom_type_partial_charge
C1    C     C_R   0.384425 0.284371 0.632234 0.551924
C2    C     C_1   0.332984 0.186796 0.781751 -0.055938
C3    C     C_1   0.336876 0.662432 0.277500 -0.062880
C4    C     C_R   0.372662 0.655520 0.587461 0.548690
C5    C     C_1   0.325492 0.672137 0.206544 -0.075925
C6    C     C_R   0.807474 0.653205 0.151912 0.007666
C7    C     C_R   0.821069 0.546833 0.206760 0.019842
C8    C     C_R   0.783710 0.523783 0.282409 -0.009687
C9    C     C_R   0.694869 0.698578 0.249551 -0.155888
C10   C     C_R   0.735911 0.724705 0.171524 -0.054695
C11   C     C_3   0.953656 0.530139 0.234958 -0.248099
C12   C     C_R   0.417774 0.830643 0.685894 0.255746
C13   C     C_3   0.913750 0.507122 0.318835 -0.249655
C14   C     C_R   0.728190 0.604257 0.306554 -0.001553
C15   C     C_R   0.260757 0.049718 0.180541 -0.041943
C16   C     C_R   0.782279 0.621708 0.625899 0.553057
C17   C     C_R   0.155872 0.062749 0.212152 -0.015243
C18   C     C_R   0.175221 0.097397 0.288897 -0.003603
C19   C     C_R   0.390960 0.073495 0.315331 0.225512
C20   C     C_R   0.370483 0.036938 0.235465 -0.152516
C21   C     C_3   0.067583 0.138633 0.182155 -0.248102
C22   C     C_3   0.083626 0.171784 0.268395 -0.128185
C23   C     C_R   0.384064 0.855921 0.756144 -0.135313
C24   C     C_R   0.303513 0.125412 0.337453 0.028667
C25   C     C_R   0.948609 0.724849 0.851823 0.539578
C26   C     C_R   0.280022 0.752190 0.883398 0.557050
C27   C     C_R   0.286158 0.118399 0.858434 0.542447
C28   C     C_R   0.347649 0.219151 0.402103 0.561903
C29   C     C_R   0.882536 0.689372 0.081702 0.551859
C30   C     C_R   0.313973 0.700161 0.123389 0.549671
C31   C     C_R   0.246103 0.037169 0.094806 0.575258
C32   C     C_R   0.365260 0.653871 0.360778 0.562500
C33   C     C_R   0.702593 0.583796 0.389459 0.558249
C34   C     C_3   0.094017 0.471640 0.778787 -0.245573
C35   C     C_R   0.275370 0.745089 0.797865 -0.055964
C36   C     C_R   0.172572 0.629357 0.755716 -0.021302
C37   C     C_R   0.197871 0.608164 0.682696 -0.022951
C38   C     C_3   0.656337 0.897715 0.709640 0.007443
C39   C     C_3   0.802841 0.001433 0.683149 -0.330203
C40   C     C_3   0.623195 0.136874 0.365188 0.002752
C41   C     C_3   0.712203 0.124750 0.443323 -0.286117
C42   C     C_1   0.950629 0.088144 0.306747 0.205298
C43   C     C_1   0.998988 0.386211 0.640141 0.223449
C44   C     C_1   0.712690 0.829706 0.115081 0.212760
C45   C     C_3   0.124965 0.449460 0.698712 -0.130746
C46   C     C_R   0.325937 0.699722 0.649973 0.008836
C47   C     C_1   0.852221 0.670118 0.702350 -0.054723
C48   C     C_1   0.899415 0.703962 0.769326 -0.061134
C49   C     C_1   0.364752 0.233738 0.714668 -0.050172
Cr1   Cr    Cr6+3 0.608440 0.389080 0.519680 1.052309
Cr2   Cr    Cr6+3 0.288640 0.400090 0.490760 1.012278
Cr3   Cr    Cr6+3 0.602940 0.710800 0.489510 1.036771
Cr4   Cr    Cr6+3 0.052530 0.947560 0.964210 1.018085
Cr5   Cr    Cr6+3 0.059970 0.626800 0.992920 1.009818
Cr6   Cr    Cr6+3 0.373320 0.938440 0.995370 1.038375
H1    H     H_    0.948067 0.433281 0.214246 0.148394
H2    H     H_    0.150448 0.435595 0.831235 0.154049
H3    H     H_    0.198208 0.400538 0.704649 0.123685
H4    H     H_    0.645126 0.756871 0.266866 0.160238
H5    H     H_    0.053037 0.631178 0.224319 0.143224
H6    H     H_    0.637604 0.786601 0.705586 0.144899
H7    H     H_    0.658740 0.911995 0.773695 0.130799
H8    H     H_    0.829998 0.110546 0.696390 0.163216
H9    H     H_    0.885091 0.972312 0.717032 0.116487
H10   H     H_    0.803154 0.999245 0.617883 0.171806
H11   H     H_    0.640370 0.249284 0.353587 0.142317
H12   H     H_    0.888347 0.397879 0.346917 0.131139
H13   H     H_    0.658551 0.110585 0.314762 0.150621
H14   H     H_    0.695610 0.012852 0.457570 0.191817
H15   H     H_    0.827739 0.196688 0.438509 0.097279
H16   H     H_    0.678766 0.154624 0.493183 0.194123
H17   H     H_    0.990050 0.594991 0.356584 0.169967
H18   H     H_    0.441374 0.003614 0.216425 0.149492
H19   H     H_    0.957199 0.065032 0.158423 0.163025
H20   H     H_    0.123634 0.236617 0.141686 0.150650
H21   H     H_    0.138949 0.288197 0.276609 0.133102
H22   H     H_    0.457767 0.953504 0.784025 0.154012
H23   H     H_    0.978818 0.435425 0.783594 0.156957
N1    N     N_1   0.846397 0.019040 0.336998 -0.325178
N2    N     N_1   0.901062 0.337412 0.593009 -0.298552
N3    N     N_1   0.695661 0.914523 0.069421 -0.268036
O1    O     O_R   0.754020 0.497590 0.609930 -0.480927
O2    O     O_R   0.406180 0.826930 0.920660 -0.495470
O3    O     O_R   0.358620 0.062870 0.901950 -0.509639
O4    O     O_R   0.481420 0.271390 0.600630 -0.461198
O5    O     O_R   0.163910 0.085460 0.050210 -0.506916
O6    O     O_R   0.935200 0.815170 0.045770 -0.502213
O7    O     O_R   0.916120 0.596690 0.069430 -0.510718
O8    O     O_R   0.192310 0.631200 0.086170 -0.504205
O9    O     O_R   0.406770 0.819480 0.096420 -0.494166
O10   O     O_R   0.359170 0.055960 0.064880 -0.493166
O11   O     O_3   0.161940 0.837600 0.984160 -0.320424
O12   O     O_R   0.295080 0.533620 0.397890 -0.510885
O13   O     O_R   0.263810 0.254550 0.589590 -0.505684
O14   O     O_R   0.300820 0.531200 0.560890 -0.518953
O15   O     O_R   0.491480 0.744020 0.564270 -0.465796
O16   O     O_R   0.726290 0.693800 0.583010 -0.511939
O17   O     O_R   0.747830 0.500190 0.434090 -0.514435
O18   O     O_R   0.475680 0.273800 0.437630 -0.497275
O19   O     O_R   0.257620 0.257160 0.413750 -0.521378
O20   O     O_3   0.550004 0.925804 0.659912 -0.526572
O21   O     O_3   0.479113 0.039989 0.374116 -0.532604
O22   O     O_R   0.485280 0.746620 0.388440 -0.484297
O23   O     O_R   0.720550 0.696220 0.420010 -0.477820
O24   O     O_3   0.500010 0.499990 0.499980 -0.306226
O25   O     O_R   0.163320 0.092900 0.874450 -0.515957
O26   O     O_R   0.934650 0.822080 0.882840 -0.493264
O27   O     O_R   0.915520 0.604140 0.893670 -0.503510
O28   O     O_R   0.191760 0.638110 0.923230 -0.503584

loop_
_geom_bond_atom_site_label_1
_geom_bond_atom_site_label_2
_ccdc_geom_bond_type
Cr3   O22   S    
C8    C13   S    
C33   O23   A    
C19   C20   A    
C22   H21   S    
C30   O9    A    
C14   C33   S    
C7    C8    A    
C4    C46   S    
C7    C11   S    
C39   H9    S    
C12   C23   A    
C25   O26   A    
Cr1   O18   S    
C26   O2    A    
C18   C24   A    
C36   C37   A    
Cr6   O9    S    
C38   C39   S    
C19   O21   S    
C16   O16   A    
Cr3   O16   S    
C33   O17   A    
C29   O7    A    
Cr6   O10   S    
Cr1   O4    S    
C4    O15   A    
Cr4   O25   S    
Cr3   O23   S    
C35   C36   A    
C1    O13   A    
Cr1   O24   S    
Cr4   O5    S    
C9    C10   A    
C41   H16   S    
C38   H6    S    
C28   O19   A    
C32   O12   A    
C42   N1    T    
C31   O5    A    
C40   H11   S    
C21   C22   S    
C39   H10   S    
C30   O8    A    
C16   C47   S    
C1    O4    A    
C15   C20   A    
C45   H3    S    
Cr1   O17   S    
C10   C44   S    
Cr5   O8    S    
C12   C46   A    
C44   N3    T    
C27   O25   A    
C43   N2    T    
C21   H19   S    
C17   C21   S    
Cr5   O28   S    
C9    H4    S    
C9    C14   A    
Cr5   O11   S    
Cr6   O11   S    
C2    C49   T    
C34   H2    S    
C4    O14   A    
Cr4   O26   S    
C47   C48   T    
C25   C48   S    
Cr2   O24   S    
Cr4   O11   S    
C16   O1    A    
C17   C18   A    
C32   O22   A    
Cr4   O6    S    
C34   C45   S    
C23   H22   S    
C43   C45   S    
C26   O28   A    
C2    C27   S    
Cr2   O12   S    
C28   O18   A    
C40   C41   S    
Cr3   O24   S    
C23   C35   A    
Cr6   O2    S    
C11   H5    S    
Cr1   O1    S    
C41   H14   S    
C5    C30   S    
C13   H12   S    
Cr2   O19   S    
C15   C17   A    
C27   O3    A    
C8    C14   A    
C18   C22   S    
C24   C28   S    
C3    C5    T    
C6    C10   A    
C15   C31   S    
C6    C7    A    
C13   H17   S    
C38   O20   S    
C39   H8    S    
C21   H20   S    
C31   O10   A    
Cr5   O27   S    
C19   C24   A    
C37   C46   A    
C12   O20   S    
C34   H23   S    
Cr5   O7    S    
C11   C13   S    
C22   C42   S    
C1    C49   S    
C20   H18   S    
Cr3   O15   S    
C34   C36   S    
C3    C32   S    
C29   O6    A    
Cr2   O13   S    
C40   O21   S    
C26   C35   S    
C6    C29   S    
C40   H13   S    
Cr6   O3    S    
C37   C45   S    
C11   H1    S    
C25   O27   A    
Cr2   O14   S    
C41   H15   S    
C38   H7    S    
