data_mof_unit_48005.cif
_audit_creation_date              2012-12-11T15:37:19-0500
_audit_creation_method            fapswitch 2.2
_symmetry_space_group_name_H-M    P1
_symmetry_Int_Tables_number       1
_space_group_crystal_system       triclinic
_cell_length_a                    17.644615
_cell_length_b                    24.457593
_cell_length_c                    15.036597
_cell_angle_alpha                 90.551077
_cell_angle_beta                  127.071792
_cell_angle_gamma                 89.817625
_cell_volume                      5177.15368228

loop_
_atom_site_label
_atom_site_type_symbol
_atom_type_description
_atom_site_fract_x
_atom_site_fract_y
_atom_site_fract_z
_atom_type_partial_charge
C1    C     C_R   0.809380 0.625305 0.904399 -0.129561
C2    C     C_R   0.152703 0.349637 0.093338 -0.158842
C3    C     C_R   0.154786 0.650120 0.094380 -0.160751
C4    C     C_R   0.809758 0.373973 0.905684 -0.131225
C5    C     C_R   0.343681 0.149437 0.907149 -0.164073
C6    C     C_R   0.652693 0.848508 0.090907 -0.134205
C7    C     C_R   0.654256 0.151083 0.092846 -0.131935
C8    C     C_R   0.341728 0.851086 0.905715 -0.157338
C9    C     C_3   0.426976 0.499779 0.359022 0.130611
C10   C     C_3   0.609005 0.498689 0.521405 0.124779
C11   C     C_3   0.897262 0.000035 0.469448 0.129999
C12   C     C_3   0.076446 0.999940 0.636484 0.134307
C13   C     C_R   0.766536 0.309921 0.099167 -0.172045
C14   C     C_R   0.148520 0.753578 0.915768 -0.214649
C15   C     C_R   0.147350 0.242580 0.919562 -0.205982
C16   C     C_R   0.664024 0.692718 0.890400 -0.163797
C17   C     C_R   0.345369 0.749285 0.084470 -0.199400
C18   C     C_R   0.618992 0.262001 0.897342 -0.182950
C19   C     C_R   0.709400 0.732834 0.091287 -0.176755
C20   C     C_R   0.344431 0.250197 0.087718 -0.223510
C21   C     C_R   0.286301 0.716322 0.090296 -0.187281
C22   C     C_R   0.664783 0.307833 0.897380 -0.171446
C23   C     C_R   0.754827 0.686705 0.090460 -0.173427
C24   C     C_R   0.284502 0.283126 0.092329 -0.181764
C25   C     C_R   0.720639 0.264152 0.099207 -0.180602
C26   C     C_R   0.207618 0.786706 0.910121 -0.181804
C27   C     C_R   0.207499 0.209092 0.915641 -0.195928
C28   C     C_R   0.618347 0.738658 0.890729 -0.177398
C29   C     C_R   0.188124 0.718571 0.005647 0.153254
C30   C     C_R   0.745109 0.328504 0.998488 0.149307
C31   C     C_R   0.740032 0.670278 0.991875 0.144006
C32   C     C_R   0.186416 0.279935 0.006864 0.172507
C33   C     C_R   0.652357 0.237136 0.998467 0.148433
C34   C     C_R   0.305702 0.784467 0.994934 0.166855
C35   C     C_R   0.305833 0.214010 0.998766 0.159937
C36   C     C_R   0.647309 0.761913 0.992350 0.145160
C37   C     C_R   0.121056 0.467216 0.640821 -0.055824
C38   C     C_R   0.044954 0.552951 0.490123 -0.021889
C39   C     C_R   0.138697 0.469187 0.561281 -0.059286
C40   C     C_R   0.005323 0.541196 0.543453 -0.047905
C41   C     C_R   0.366024 0.975445 0.438980 -0.063774
C42   C     C_R   0.525801 0.030229 0.479669 -0.061968
C43   C     C_R   0.377053 0.977517 0.354705 -0.054585
C44   C     C_R   0.518839 0.024533 0.565635 -0.056815
C45   C     C_R   0.095907 0.511273 0.481708 -0.034865
C46   C     C_R   0.048455 0.500536 0.625192 -0.027630
C47   C     C_R   0.456892 0.004714 0.376630 -0.018696
C48   C     C_R   0.437533 0.998890 0.543425 -0.016052
C49   C     C_R   0.905831 0.375116 0.093127 -0.124283
C50   C     C_R   0.061805 0.648515 0.907986 -0.138529
C51   C     C_R   0.062216 0.351296 0.907087 -0.113787
C52   C     C_R   0.903681 0.624792 0.091509 -0.129387
C53   C     C_R   0.434447 0.853247 0.092573 -0.115221
C54   C     C_R   0.558969 0.149180 0.906430 -0.109299
C55   C     C_R   0.557647 0.850531 0.904681 -0.132181
C56   C     C_R   0.436749 0.147838 0.093519 -0.137656
C57   C     C_R   0.058012 0.547930 0.305907 -0.153437
C58   C     C_R   0.001866 0.453088 0.733497 -0.131288
C59   C     C_R   0.009802 0.545465 0.742441 -0.109205
C60   C     C_R   0.055204 0.457062 0.309394 -0.131603
C61   C     C_R   0.490691 0.047145 0.257227 -0.120104
C62   C     C_R   0.450900 0.953116 0.696528 -0.131159
C63   C     C_R   0.442536 0.044568 0.692453 -0.112004
C64   C     C_R   0.497385 0.954703 0.265924 -0.125475
C65   C     C_R   0.744990 0.454321 0.693226 -0.165361
C66   C     C_R   0.268703 0.545321 0.249603 -0.120428
C67   C     C_R   0.268761 0.454305 0.252500 -0.122450
C68   C     C_R   0.745650 0.544579 0.692487 -0.111936
C69   C     C_R   0.231637 0.954212 0.748058 -0.122919
C70   C     C_R   0.758649 0.045628 0.303275 -0.107705
C71   C     C_R   0.759657 0.954600 0.301209 -0.164318
C72   C     C_R   0.232174 0.045253 0.752444 -0.119831
C73   C     C_R   0.812958 0.638741 0.996397 0.039157
C74   C     C_R   0.129182 0.322011 0.001197 0.041746
C75   C     C_R   0.130776 0.677451 0.002301 0.051591
C76   C     C_R   0.815289 0.360540 0.999162 0.039055
C77   C     C_R   0.366147 0.175816 0.000224 0.050933
C78   C     C_R   0.622139 0.818468 0.996002 0.041402
C79   C     C_R   0.624771 0.180950 0.999177 0.028350
C80   C     C_R   0.363499 0.825111 0.998143 0.046541
C81   C     C_R   0.075949 0.504759 0.372661 0.086519
C82   C     C_R   0.025008 0.499082 0.701728 0.077444
C83   C     C_R   0.474444 0.001902 0.296299 0.079294
C84   C     C_R   0.430155 0.998221 0.632280 0.068304
C85   C     C_R   0.701003 0.499091 0.628168 0.037835
C86   C     C_R   0.324537 0.499679 0.278803 0.024264
C87   C     C_R   0.176655 0.999616 0.722381 0.022617
C88   C     C_R   0.806234 0.000165 0.363847 0.036043
C89   C     C_3   0.530758 0.484593 0.533415 -0.186605
C90   C     C_3   0.503739 0.513689 0.344529 -0.216595
C91   C     C_3   0.481877 0.448814 0.427586 -0.232351
C92   C     C_3   0.554668 0.549451 0.452493 -0.225058
C93   C     C_3   0.022077 0.949473 0.563689 -0.229091
C94   C     C_3   0.951318 0.050497 0.542122 -0.223972
C95   C     C_3   0.977277 0.985913 0.460492 -0.190007
C96   C     C_3   0.997906 0.014030 0.647238 -0.226008
C97   C     C_3   0.476816 0.535126 0.464937 0.083024
C98   C     C_3   0.560499 0.463114 0.416042 0.075234
C99   C     C_3   0.941569 0.963858 0.571952 0.074305
C100  C     C_3   0.031379 0.036011 0.533409 0.084358
H1    H     H_    0.751453 0.630295 0.817398 0.090985
H2    H     H_    0.195986 0.335899 0.178800 0.092175
H3    H     H_    0.199624 0.664003 0.180277 0.097746
H4    H     H_    0.750957 0.368119 0.819002 0.091543
H5    H     H_    0.297964 0.163278 0.821814 0.097321
H6    H     H_    0.694031 0.834372 0.175853 0.086914
H7    H     H_    0.695842 0.165132 0.178395 0.085278
H8    H     H_    0.296436 0.836825 0.820124 0.088050
H9    H     H_    0.935556 0.369681 0.179558 0.088884
H10   H     H_    0.022021 0.661423 0.822305 0.089794
H11   H     H_    0.024254 0.338507 0.821092 0.083443
H12   H     H_    0.931739 0.630857 0.177207 0.104867
H13   H     H_    0.472337 0.841117 0.178419 0.081645
H14   H     H_    0.513076 0.161745 0.820412 0.082987
H15   H     H_    0.510703 0.837699 0.818394 0.081517
H16   H     H_    0.476246 0.161070 0.179420 0.088012
H17   H     H_    0.317943 0.687685 0.158413 0.117246
H18   H     H_    0.642187 0.323354 0.817810 0.103291
H19   H     H_    0.806855 0.666946 0.168006 0.106861
H20   H     H_    0.315706 0.313245 0.158995 0.111077
H21   H     H_    0.744717 0.247949 0.178853 0.100121
H22   H     H_    0.176245 0.815362 0.842044 0.111192
H23   H     H_    0.177162 0.179181 0.848695 0.118735
H24   H     H_    0.566909 0.758144 0.811882 0.100970
N1    N     N_R   0.892620 0.603790 0.941800 -0.040939
N2    N     N_R   0.107380 0.396210 0.058200 -0.035769
N3    N     N_R   0.107380 0.603790 0.058200 -0.036444
N4    N     N_R   0.892620 0.396210 0.941800 -0.040678
N5    N     N_R   0.392620 0.103790 0.941800 -0.035228
N6    N     N_R   0.607380 0.896210 0.058200 -0.038726
N7    N     N_R   0.607380 0.103790 0.058200 -0.040034
N8    N     N_R   0.392620 0.896210 0.941800 -0.034303
N9    N     N_R   0.952210 0.397600 0.057910 -0.039679
N10   N     N_R   0.047790 0.602400 0.942090 -0.038414
N11   N     N_R   0.047790 0.397600 0.942090 -0.037127
N12   N     N_R   0.952210 0.602400 0.057910 -0.039048
N13   N     N_R   0.452210 0.897600 0.057910 -0.035283
N14   N     N_R   0.547790 0.102400 0.942090 -0.036264
N15   N     N_R   0.547790 0.897600 0.942090 -0.038382
N16   N     N_R   0.452210 0.102400 0.057910 -0.036978
N17   N     N_R   0.026300 0.529110 0.206760 -0.041664
N18   N     N_R   0.973700 0.470890 0.793240 -0.043372
N19   N     N_R   0.973700 0.529110 0.793240 -0.043186
N20   N     N_R   0.026300 0.470890 0.206760 -0.042352
N21   N     N_R   0.526300 0.029110 0.206760 -0.041913
N22   N     N_R   0.473700 0.970890 0.793240 -0.042020
N23   N     N_R   0.473700 0.029110 0.793240 -0.038504
N24   N     N_R   0.526300 0.970890 0.206760 -0.044290
N25   N     N_R   0.818530 0.472270 0.792960 -0.036658
N26   N     N_R   0.181470 0.527730 0.207040 -0.041029
N27   N     N_R   0.181470 0.472270 0.207040 -0.039845
N28   N     N_R   0.818530 0.527730 0.792960 -0.039583
N29   N     N_R   0.318530 0.972270 0.792960 -0.040620
N30   N     N_R   0.681470 0.027730 0.207040 -0.041607
N31   N     N_R   0.681470 0.972270 0.207040 -0.038565
N32   N     N_R   0.318530 0.027730 0.792960 -0.041224
Ni1   Ni    Ni4+2 0.934150 0.565840 0.869060 0.213908
Ni2   Ni    Ni4+2 0.065850 0.434160 0.130940 0.213417
Ni3   Ni    Ni4+2 0.065850 0.565840 0.130940 0.217474
Ni4   Ni    Ni4+2 0.934150 0.434160 0.869060 0.209003
Ni5   Ni    Ni4+2 0.434150 0.065840 0.869060 0.215918
Ni6   Ni    Ni4+2 0.565850 0.934160 0.130940 0.206260
Ni7   Ni    Ni4+2 0.565850 0.065840 0.130940 0.212506
Ni8   Ni    Ni4+2 0.434150 0.934160 0.869060 0.208632
H25   H     H_    0.082248 0.589473 0.332060 0.120063
H26   H     H_    0.002122 0.411057 0.711123 0.096821
H27   H     H_    0.022945 0.587219 0.733639 0.100903
H28   H     H_    0.067449 0.415604 0.338402 0.098801
H29   H     H_    0.481000 0.089193 0.269452 0.100097
H30   H     H_    0.448293 0.910660 0.674803 0.088220
H31   H     H_    0.429696 0.086482 0.664538 0.087350
H32   H     H_    0.497232 0.913269 0.289928 0.094030
H33   H     H_    0.731513 0.412078 0.665706 0.102055
H34   H     H_    0.291688 0.587435 0.264883 0.106213
H35   H     H_    0.290772 0.412125 0.269039 0.091936
H36   H     H_    0.733119 0.586427 0.664332 0.087752
H37   H     H_    0.208961 0.912110 0.729006 0.090306
H38   H     H_    0.773036 0.087801 0.331292 0.090989
H39   H     H_    0.775141 0.912403 0.327312 0.106457
H40   H     H_    0.209048 0.087229 0.736674 0.106681
C101  C     C_R   0.433821 0.574779 0.500219 0.113511
C102  C     C_R   0.467261 0.628901 0.530883 -0.162546
C103  C     C_R   0.427644 0.664921 0.565142 -0.124509
C104  C     C_R   0.354191 0.647366 0.568419 -0.072971
C105  C     C_R   0.320368 0.593726 0.537693 -0.119767
C106  C     C_R   0.360714 0.557366 0.505007 -0.164969
H41   H     H_    0.524288 0.643449 0.529470 0.095939
H42   H     H_    0.453997 0.706446 0.589307 0.097446
H43   H     H_    0.323929 0.675355 0.595121 0.100563
H44   H     H_    0.263121 0.580116 0.539379 0.112361
H45   H     H_    0.334093 0.515863 0.481739 0.130798
C107  C     C_R   0.603391 0.422956 0.381555 0.121369
C108  C     C_R   0.543315 0.389963 0.286501 -0.166645
C109  C     C_R   0.581591 0.353137 0.251630 -0.112483
C110  C     C_R   0.679979 0.349148 0.311027 -0.077272
C111  C     C_R   0.740213 0.382123 0.405124 -0.124131
C112  C     C_R   0.702218 0.419012 0.440210 -0.187238
H46   H     H_    0.466879 0.392851 0.239322 0.104961
H47   H     H_    0.535045 0.327821 0.178362 0.103221
H48   H     H_    0.709518 0.320730 0.283831 0.096517
H49   H     H_    0.816419 0.379402 0.450515 0.101013
H50   H     H_    0.750208 0.444916 0.511656 0.123964
C113  C     C_R   0.897392 0.922991 0.602668 0.124403
C114  C     C_R   0.956775 0.890753 0.697712 -0.159724
C115  C     C_R   0.917820 0.853304 0.729739 -0.116157
C116  C     C_R   0.819356 0.847559 0.666947 -0.083215
C117  C     C_R   0.759735 0.879635 0.572636 -0.127595
C118  C     C_R   0.798467 0.917435 0.540904 -0.191609
H51   H     H_    0.033251 0.894829 0.747185 0.101135
H52   H     H_    0.963882 0.828958 0.803562 0.101428
H53   H     H_    0.789274 0.818588 0.691868 0.095345
H54   H     H_    0.683399 0.875758 0.524831 0.102367
H55   H     H_    0.750729 0.943046 0.470141 0.125969
C119  C     C_R   0.080939 0.075825 0.507733 0.099314
C120  C     C_R   0.056191 0.131487 0.490035 -0.161739
C121  C     C_R   0.104842 0.168143 0.469900 -0.112046
C122  C     C_R   0.178384 0.149630 0.467179 -0.102835
C123  C     C_R   0.203210 0.094405 0.484275 -0.122842
C124  C     C_R   0.154548 0.057577 0.504073 -0.139953
H56   H     H_    0.999947 0.146925 0.492366 0.097359
H57   H     H_    0.085728 0.210982 0.456798 0.099328
H58   H     H_    0.216231 0.178090 0.452038 0.094977
H59   H     H_    0.260433 0.080224 0.482558 0.109572
H60   H     H_    0.175705 0.015072 0.519419 0.137131
H61   H     H_    0.542083 0.472728 0.611770 0.119635
H62   H     H_    0.490150 0.525396 0.264925 0.120164
H63   H     H_    0.453412 0.407140 0.419225 0.115181
H64   H     H_    0.587136 0.589917 0.462400 0.107759
H65   H     H_    0.050148 0.907757 0.570977 0.115266
H66   H     H_    0.919010 0.091045 0.532245 0.108423
H67   H     H_    0.967751 0.974488 0.382613 0.121449
H68   H     H_    0.011013 0.025170 0.727206 0.116792
H69   H     H_    0.824203 0.327129 0.178658 0.103896
H70   H     H_    0.072775 0.754653 0.849932 0.113809
H71   H     H_    0.071508 0.240369 0.854002 0.114032
H72   H     H_    0.645272 0.678829 0.811039 0.110082
H73   H     H_    0.421280 0.747715 0.149749 0.112354
H74   H     H_    0.563055 0.244042 0.817791 0.103511
H75   H     H_    0.728797 0.747494 0.170572 0.107814
H76   H     H_    0.420339 0.253348 0.152338 0.114343
C125  C     C_R   0.184425 0.435733 0.744813 0.162915
C126  C     C_R   0.178975 0.378528 0.744680 -0.170915
C127  C     C_R   0.243612 0.349541 0.842194 -0.090488
C128  C     C_R   0.312339 0.377490 0.940816 -0.072940
C129  C     C_R   0.316318 0.434524 0.942256 -0.114888
C130  C     C_R   0.252830 0.463624 0.844464 -0.135303
H77   H     H_    0.125398 0.356456 0.669223 0.098930
H78   H     H_    0.240757 0.305418 0.840915 0.124768
H79   H     H_    0.362766 0.355065 0.016060 0.107339
H80   H     H_    0.369327 0.456118 0.018800 0.110872
H81   H     H_    0.257568 0.507815 0.845901 0.108214
C131  C     C_R   0.055892 0.611504 0.475368 0.128775
C132  C     C_R   0.979937 0.641244 0.386449 -0.173588
C133  C     C_R   0.988406 0.697731 0.380057 -0.125767
C134  C     C_R   0.072018 0.724903 0.463385 -0.084157
C135  C     C_R   0.147094 0.695767 0.553575 -0.124016
C136  C     C_R   0.139213 0.639283 0.559660 -0.179237
H82   H     H_    0.914079 0.620427 0.324289 0.117331
H83   H     H_    0.929915 0.720835 0.311838 0.110924
H84   H     H_    0.078058 0.768654 0.458908 0.090721
H85   H     H_    0.210946 0.717094 0.619482 0.100955
H86   H     H_    0.196990 0.617386 0.631533 0.111344
C137  C     C_R   0.211293 0.433197 0.571340 0.166489
C138  C     C_R   0.302387 0.453834 0.618278 -0.154729
C139  C     C_R   0.372123 0.419955 0.630680 -0.109017
C140  C     C_R   0.351586 0.365125 0.597252 -0.088633
C141  C     C_R   0.261444 0.344013 0.552110 -0.112495
C142  C     C_R   0.191621 0.377808 0.539732 -0.173421
H87   H     H_    0.319747 0.495859 0.646854 0.109748
H88   H     H_    0.442250 0.436128 0.666925 0.106579
H89   H     H_    0.405693 0.338932 0.607064 0.092698
H90   H     H_    0.245716 0.301447 0.526923 0.099179
H91   H     H_    0.122061 0.360993 0.504705 0.092092
C143  C     C_R   0.914414 0.567953 0.505961 0.145065
C144  C     C_R   0.910709 0.623366 0.529347 -0.162805
C145  C     C_R   0.824267 0.647183 0.492361 -0.122847
C146  C     C_R   0.740917 0.616057 0.431799 -0.102220
C147  C     C_R   0.743981 0.560953 0.408813 -0.109377
C148  C     C_R   0.830341 0.536933 0.445884 -0.144746
H92   H     H_    0.974773 0.647941 0.577162 0.124609
H93   H     H_    0.821916 0.689803 0.510613 0.109814
H94   H     H_    0.673971 0.634710 0.402481 0.094522
H95   H     H_    0.679372 0.536913 0.361742 0.121618
H96   H     H_    0.831761 0.494273 0.427012 0.115550
C149  C     C_R   0.278645 0.950913 0.415764 0.154538
C150  C     C_R   0.191517 0.978291 0.346937 -0.147592
C151  C     C_R   0.108416 0.954704 0.321641 -0.116838
C152  C     C_R   0.111649 0.903518 0.364304 -0.100706
C153  C     C_R   0.197587 0.875287 0.430082 -0.112946
C154  C     C_R   0.280584 0.898532 0.454520 -0.159978
H97   H     H_    0.188050 0.017840 0.312900 0.110976
H98   H     H_    0.041641 0.976266 0.269469 0.111551
H99   H     H_    0.047413 0.885449 0.345283 0.099300
H100  H     H_    0.199715 0.835106 0.461046 0.099443
H101  H     H_    0.345662 0.875179 0.501271 0.090871
C155  C     C_R   0.609643 0.059590 0.502514 0.166299
C156  C     C_R   0.604604 0.115844 0.481407 -0.183111
C157  C     C_R   0.685880 0.144518 0.512985 -0.113558
C158  C     C_R   0.773115 0.117649 0.569260 -0.102361
C159  C     C_R   0.778837 0.062085 0.593367 -0.100498
C160  C     C_R   0.697415 0.033060 0.559595 -0.140888
H102  H     H_    0.538009 0.137460 0.441744 0.099267
H103  H     H_    0.681599 0.187756 0.495892 0.105435
H104  H     H_    0.836468 0.140128 0.596068 0.091777
H105  H     H_    0.846489 0.041667 0.640524 0.119775
H106  H     H_    0.702987 0.990587 0.582022 0.116714
C161  C     C_R   0.306129 0.951206 0.244146 0.153866
C162  C     C_R   0.294038 0.894172 0.235308 -0.153978
C163  C     C_R   0.228837 0.869421 0.131320 -0.096282
C164  C     C_R   0.176089 0.901274 0.035386 -0.079470
C165  C     C_R   0.188232 0.957998 0.043277 -0.106569
C166  C     C_R   0.252840 0.982991 0.147306 -0.144842
H107  H     H_    0.335581 0.868939 0.308772 0.104587
H108  H     H_    0.219449 0.825521 0.125151 0.126200
H109  H     H_    0.125878 0.881991 0.955009 0.102894
H110  H     H_    0.147532 0.982580 0.968793 0.108792
H111  H     H_    0.261676 0.026990 0.152529 0.110129
C167  C     C_R   0.599475 0.043104 0.680458 0.163969
C168  C     C_R   0.659618 0.004480 0.762152 -0.136648
C169  C     C_R   0.733798 0.021630 0.870187 -0.109209
C170  C     C_R   0.748719 0.077360 0.897138 -0.075304
C171  C     C_R   0.689624 0.116056 0.816030 -0.104754
C172  C     C_R   0.615084 0.099085 0.708072 -0.152128
H112  H     H_    0.648602 0.961210 0.742129 0.106391
H113  H     H_    0.779643 0.991709 0.933073 0.111898
H114  H     H_    0.805986 0.090561 0.980896 0.106157
H115  H     H_    0.701043 0.159188 0.837096 0.114416
H116  H     H_    0.568751 0.129373 0.646412 0.100018

loop_
_geom_bond_atom_site_label_1
_geom_bond_atom_site_label_2
_ccdc_geom_bond_type
C129  H80   S    
C10   C85   S    
C138  H87   S    
C68   H36   S    
C15   C32   A    
C5    H5    S    
C16   C31   A    
C40   C46   A    
C100  C119  S    
C167  C172  A    
C53   N13   A    
C7    C79   A    
N15   Ni8   S    
N22   N23   A    
C58   C82   A    
C56   N16   A    
C96   C99   S    
C50   H10   S    
C55   N15   A    
C128  C129  A    
N9    Ni2   S    
C102  C103  A    
C38   C45   A    
C21   H17   S    
C168  H112  S    
N12   Ni3   S    
C132  H82   S    
C156  H102  S    
C47   C83   S    
C108  C109  A    
C129  C130  A    
C41   C43   A    
C43   C161  S    
C42   C44   A    
C41   C149  S    
C53   H13   S    
N31   Ni6   S    
C62   H30   S    
C24   H20   S    
N26   Ni3   S    
N27   Ni2   S    
C13   C30   A    
C105  H44   S    
C50   N10   A    
N17   N20   A    
C116  C117  A    
C27   C35   A    
N8    N13   A    
C21   C29   A    
C17   C21   A    
N16   Ni7   S    
C23   C31   A    
C19   C23   A    
C139  H88   S    
C24   C32   A    
C30   C76   S    
C141  H90   S    
C15   C27   A    
C56   H16   S    
C14   C26   A    
N29   N32   A    
C94   C96   S    
N30   N31   A    
C150  H97   S    
C155  C156  A    
C42   C155  S    
C12   C93   S    
C61   H29   S    
C157  C158  A    
C5    C77   A    
C1    H1    S    
N21   N24   A    
C59   H27   S    
C159  C160  A    
C169  H113  S    
C54   C79   A    
C3    H3    S    
C22   H18   S    
C49   N9    A    
N28   Ni1   S    
C90   H62   S    
C45   C81   S    
C111  C112  A    
C9    C90   S    
C63   C84   A    
N24   Ni6   S    
C144  H92   S    
N7    N14   A    
C103  H42   S    
C133  H83   S    
C4    H4    S    
C91   C98   S    
C65   N25   A    
C162  H107  S    
C71   C88   A    
C127  H78   S    
C66   H34   S    
C44   C167  S    
C120  H56   S    
C25   H21   S    
C60   N20   A    
C170  H114  S    
C131  C132  A    
C159  H105  S    
C146  H94   S    
C118  H55   S    
C72   N32   A    
N3    N10   A    
C6    N6    A    
C123  H59   S    
C143  C144  A    
C140  H89   S    
C32   C74   S    
C132  C133  A    
C6    C78   A    
C52   H12   S    
C54   H14   S    
C104  C105  A    
C11   C99   S    
C161  C166  A    
C124  H60   S    
C46   C82   S    
C20   C35   A    
N17   Ni3   S    
C38   C131  S    
C171  H115  S    
C10   C89   S    
C138  C139  A    
C89   C91   S    
C3    C75   A    
C158  H104  S    
C39   C45   A    
N6    Ni6   S    
C59   N19   A    
C93   C95   S    
C146  C147  A    
C64   N24   A    
C68   C85   A    
C63   N23   A    
C92   C97   S    
C130  H81   S    
C90   C92   S    
C37   C125  S    
C128  H79   S    
C143  C148  A    
C53   C80   A    
C55   C78   A    
N21   Ni7   S    
C122  C123  A    
C20   H76   S    
N22   Ni8   S    
C166  H111  S    
C110  C111  A    
C19   H75   S    
C60   C81   A    
C125  C130  A    
C94   C100  S    
C153  C154  A    
N5    Ni5   S    
C112  H50   S    
C28   C36   A    
N32   Ni5   S    
C170  C171  A    
C147  H95   S    
C52   N12   A    
C7    H7    S    
C72   H40   S    
C14   C29   A    
C72   C87   A    
C94   H66   S    
C13   H69   S    
C62   C84   A    
C134  H84   S    
C22   C30   A    
C99   C113  S    
C18   C22   A    
C66   C86   A    
C101  C106  A    
C28   H24   S    
C113  C118  A    
C43   C47   A    
C115  H52   S    
C109  C110  A    
C157  H103  S    
C58   H26   S    
N25   Ni4   S    
C44   C48   A    
C145  C146  A    
C62   N22   A    
C151  H98   S    
C111  H49   S    
C18   H74   S    
C25   C33   A    
C144  C145  A    
C51   C74   A    
C113  C114  A    
C137  C138  A    
C101  C102  A    
C95   H67   S    
C66   N26   A    
N1    Ni1   S    
C57   H25   S    
C11   C95   S    
C127  C128  A    
C106  H45   S    
C61   N21   A    
C121  H57   S    
C69   H37   S    
C67   H35   S    
C114  H51   S    
C59   C82   A    
C93   C99   S    
C7    N7    A    
C69   C87   A    
C5    N5    A    
C171  C172  A    
C10   C92   S    
C135  H85   S    
N6    N15   A    
C131  C136  A    
C164  H109  S    
C137  C142  A    
C152  C153  A    
C4    N4    A    
C136  H86   S    
N23   Ni5   S    
C95   C100  S    
C33   C79   S    
C163  C164  A    
C35   C77   S    
C69   N29   A    
C161  C162  A    
C64   H32   S    
C158  C159  A    
N8    Ni8   S    
C64   C83   A    
C149  C150  A    
C68   N28   A    
C58   N18   A    
C63   H31   S    
C151  C152  A    
N7    Ni7   S    
C141  C142  A    
C71   N31   A    
C126  C127  A    
C152  H99   S    
C65   C85   A    
N1    N12   A    
N2    N11   A    
C61   C83   A    
C122  H58   S    
C164  C165  A    
C67   C86   A    
C9    C97   S    
N11   Ni4   S    
C91   H63   S    
C89   H61   S    
C163  H108  S    
C153  H100  S    
C57   N17   A    
C19   C36   A    
C1    C73   A    
C133  C134  A    
C37   C39   A    
C50   C75   A    
C169  C170  A    
C38   C40   A    
C105  C106  A    
C150  C151  A    
C55   H15   S    
C160  H106  S    
N14   Ni5   S    
C120  C121  A    
C12   C100  S    
C168  C169  A    
C92   H64   S    
C15   H71   S    
C2    H2    S    
N18   N19   A    
C12   C96   S    
C23   H19   S    
C39   C137  S    
C26   H22   S    
C37   C46   A    
C16   C28   A    
C165  C166  A    
C156  C157  A    
C103  C104  A    
C70   C88   A    
C9    C91   S    
C115  C116  A    
C60   H28   S    
C1    N1    A    
C125  C126  A    
C119  C124  A    
N13   Ni6   S    
C3    N3    A    
C31   C73   S    
C145  H93   S    
C16   H72   S    
C172  H116  S    
C71   H39   S    
C10   C98   S    
C34   C80   S    
C51   N11   A    
C116  H53   S    
C26   C34   A    
C20   C24   A    
C142  H91   S    
C8    N8    A    
C139  C140  A    
C2    C74   A    
C102  H41   S    
C165  H110  S    
C13   C25   A    
C8    H8    S    
C18   C33   A    
N19   Ni1   S    
N2    Ni2   S    
C6    H6    S    
C155  C160  A    
C117  C118  A    
N29   Ni8   S    
C67   N27   A    
C154  H101  S    
N30   Ni7   S    
C121  C122  A    
C98   C107  S    
C52   C73   A    
N25   N28   A    
C27   H23   S    
C119  C120  A    
C70   H38   S    
C107  C112  A    
C149  C154  A    
C56   C77   A    
C48   C84   S    
C89   C97   S    
C167  C168  A    
C9    C86   S    
C109  H47   S    
C40   C143  S    
C11   C88   S    
C135  C136  A    
C148  H96   S    
C49   C76   A    
C147  C148  A    
C114  C115  A    
C2    N2    A    
C117  H54   S    
C57   C81   A    
N20   Ni2   S    
C134  C135  A    
N3    Ni3   S    
C14   H70   S    
C162  C163  A    
N4    Ni4   S    
C49   H9    S    
C110  H48   S    
C93   H65   S    
C51   H11   S    
C12   C87   S    
C65   H33   S    
C70   N30   A    
N18   Ni4   S    
C97   C101  S    
C108  H46   S    
C29   C75   S    
C126  H77   S    
N26   N27   A    
C107  C108  A    
C36   C78   S    
N4    N9    A    
C123  C124  A    
C54   N14   A    
N5    N16   A    
C11   C94   S    
C41   C48   A    
C42   C47   A    
C96   H68   S    
C4    C76   A    
C140  C141  A    
N10   Ni1   S    
C17   C34   A    
C8    C80   A    
C104  H43   S    
C90   C98   S    
C17   H73   S    
