data_mof_unit_53913.cif
_audit_creation_date              2012-12-10T20:41:45-0500
_audit_creation_method            fapswitch 2.2
_symmetry_space_group_name_H-M    P1
_symmetry_Int_Tables_number       1
_space_group_crystal_system       triclinic
_cell_length_a                    15.059724
_cell_length_b                    15.189206
_cell_length_c                    9.877851
_cell_angle_alpha                 91.191468
_cell_angle_beta                  89.269488
_cell_angle_gamma                 90.436714
_cell_volume                      2258.77819574

loop_
_atom_site_label
_atom_site_type_symbol
_atom_type_description
_atom_site_fract_x
_atom_site_fract_y
_atom_site_fract_z
_atom_type_partial_charge
C1    C     C_R   0.381384 0.878975 0.499705 0.887772
C2    C     C_R   0.386191 0.125274 0.500803 0.881152
C3    C     C_R   0.881805 0.378683 0.499490 0.886515
C4    C     C_R   0.883538 0.623384 0.501155 0.878364
C5    C     C_3   0.303499 0.246678 0.749909 -0.429243
C6    C     C_3   0.183979 0.885323 0.610311 -0.460411
C7    C     C_3   0.756368 0.700218 0.750497 -0.470716
C8    C     C_3   0.723123 0.348448 0.713080 -0.470765
C9    C     C_R   0.430008 0.965517 0.071339 0.203063
C10   C     C_R   0.925172 0.477532 0.072473 0.215876
C11   C     C_R   0.573368 0.024720 0.072075 -0.257595
C12   C     C_R   0.076146 0.513709 0.071702 -0.269237
C13   C     C_R   0.575187 0.022408 0.926178 0.490120
C14   C     C_R   0.077340 0.513763 0.925419 0.495121
C15   C     C_R   0.430225 0.964898 0.929370 0.143973
C16   C     C_R   0.924989 0.478383 0.930048 0.137871
C17   C     C_3   0.335520 0.991898 0.925894 -0.492158
C18   C     C_3   0.840875 0.528792 0.931869 -0.524282
C19   C     C_3   0.335717 0.994149 0.079858 -0.478392
C20   C     C_3   0.839023 0.524001 0.084448 -0.478690
C21   C     C_R   0.620642 0.118675 0.500116 0.900490
C22   C     C_R   0.617490 0.877719 0.497423 0.872083
C23   C     C_R   0.120639 0.618924 0.500310 0.900810
C24   C     C_R   0.118243 0.378041 0.498053 0.872069
C25   C     C_R   0.273682 0.210568 0.615474 0.113441
C26   C     C_R   0.250652 0.813236 0.592404 0.132398
C27   C     C_R   0.751564 0.689921 0.599558 0.130320
C28   C     C_R   0.739583 0.323608 0.567880 0.131229
C29   C     C_R   0.325639 0.196995 0.500015 -0.267639
C30   C     C_R   0.321265 0.807239 0.501121 -0.265883
C31   C     C_R   0.818230 0.690974 0.500215 -0.257719
C32   C     C_R   0.818402 0.309985 0.496647 -0.259635
C33   C     C_R   0.305786 0.239289 0.377414 -0.153477
C34   C     C_R   0.335257 0.730251 0.420848 -0.135858
C35   C     C_R   0.808037 0.742619 0.383200 -0.164670
C36   C     C_R   0.829642 0.235307 0.410408 -0.129748
C37   C     C_R   0.728943 0.789380 0.370695 0.426710
C38   C     C_R   0.765095 0.168594 0.414961 0.492638
C39   C     C_R   0.225567 0.284623 0.370640 0.422083
C40   C     C_R   0.270373 0.663456 0.425496 0.492832
C41   C     C_R   0.677143 0.805461 0.488381 -0.268088
C42   C     C_R   0.689559 0.181314 0.498976 -0.252278
C43   C     C_R   0.181577 0.308276 0.492931 -0.276614
C44   C     C_R   0.192501 0.678743 0.503186 -0.267073
C45   C     C_R   0.685225 0.750375 0.596650 0.059728
C46   C     C_R   0.675634 0.259968 0.568692 0.036548
C47   C     C_R   0.204482 0.268235 0.612580 0.049442
C48   C     C_R   0.186715 0.749491 0.593246 0.081677
C49   C     C_3   0.683667 0.767903 0.744710 -0.437118
C50   C     C_3   0.652198 0.277082 0.714193 -0.430770
C51   C     C_3   0.226486 0.309343 0.746235 -0.391016
C52   C     C_3   0.113098 0.814033 0.612420 -0.471721
H1    H     H_    0.328302 0.061548 0.124510 0.217614
H2    H     H_    0.291890 0.943188 0.125320 0.206209
H3    H     H_    0.844385 0.589616 0.135584 0.224956
H4    H     H_    0.785307 0.480676 0.124123 0.203359
H5    H     H_    0.706624 0.835382 0.773418 0.223693
H6    H     H_    0.668682 0.221229 0.780128 0.247214
H7    H     H_    0.247327 0.379380 0.739146 0.226459
H8    H     H_    0.079538 0.807787 0.712692 0.212058
H9    H     H_    0.619997 0.746136 0.791423 0.198689
H10   H     H_    0.583809 0.303215 0.727418 0.195242
H11   H     H_    0.174250 0.295186 0.822572 0.203729
H12   H     H_    0.067822 0.815515 0.524363 0.185163
H13   H     H_    0.369397 0.280149 0.744364 0.199906
H14   H     H_    0.190193 0.921159 0.708794 0.195938
H15   H     H_    0.820881 0.727990 0.785509 0.215442
H16   H     H_    0.780365 0.334125 0.778985 0.218527
H17   H     H_    0.296318 0.198476 0.832102 0.206273
H18   H     H_    0.180378 0.928183 0.520592 0.197156
H19   H     H_    0.732003 0.640065 0.801164 0.197093
H20   H     H_    0.695294 0.415782 0.724414 0.191197
H21   H     H_    0.630173 0.046951 0.129266 0.192483
H22   H     H_    0.135571 0.524443 0.129891 0.190544
H23   H     H_    0.326831 0.057274 0.880581 0.209965
H24   H     H_    0.292681 0.938638 0.883462 0.203272
H25   H     H_    0.854082 0.596471 0.897501 0.220814
H26   H     H_    0.785376 0.492690 0.882748 0.201585
N1    N     N_R   0.499140 1.000000 0.142800 -0.127670
N2    N     N_R   0.999140 0.500000 0.142800 -0.126546
N3    N     N_R   0.499160 1.000000 0.857150 -0.138448
N4    N     N_R   0.999160 0.500000 0.857150 -0.138283
O1    O     O_R   0.408400 0.908380 0.614690 -0.611227
O2    O     O_R   0.408400 0.091620 0.614690 -0.609939
O3    O     O_R   0.908400 0.408380 0.614690 -0.614845
O4    O     O_R   0.908400 0.591620 0.614690 -0.610805
O5    O     O_R   0.408370 0.908370 0.385350 -0.630060
O6    O     O_R   0.408370 0.091630 0.385350 -0.640193
O7    O     O_R   0.908370 0.408370 0.385350 -0.629014
O8    O     O_R   0.908370 0.591630 0.385350 -0.639712
O9    O     O_R   0.591610 0.091610 0.614650 -0.562408
O10   O     O_R   0.591610 0.908390 0.614650 -0.604659
O11   O     O_R   0.091610 0.591610 0.614650 -0.566616
O12   O     O_R   0.091610 0.408390 0.614650 -0.594101
O13   O     O_R   0.591590 0.091600 0.385310 -0.611203
O14   O     O_R   0.591590 0.908400 0.385310 -0.576525
O15   O     O_R   0.091590 0.591600 0.385310 -0.607218
O16   O     O_R   0.091590 0.408400 0.385310 -0.573341
Zn1   Zn    Zn3+2 0.500010 1.000000 0.653130 0.980174
Zn2   Zn    Zn3+2 0.000010 0.500000 0.653130 0.982156
Zn3   Zn    Zn3+2 0.499980 0.000000 0.346870 0.956415
Zn4   Zn    Zn3+2 0.999980 0.500000 0.346870 0.958389
C53   C     C_2   0.372958 0.245708 0.264983 0.439670
H27   H     H_    0.441958 0.230205 0.282903 0.082102
O17   O     O_2   0.353598 0.271405 0.152950 -0.563886
C54   C     C_2   0.416475 0.719805 0.334562 0.451437
H28   H     H_    0.476753 0.755670 0.359698 0.042189
O18   O     O_2   0.416894 0.671840 0.233831 -0.549327
C55   C     C_2   0.882481 0.756142 0.283955 0.414164
H29   H     H_    0.949411 0.736429 0.308108 0.078089
O19   O     O_2   0.871216 0.792326 0.176375 -0.558671
C56   C     C_2   0.911252 0.223445 0.325920 0.451836
H30   H     H_    0.972979 0.254635 0.356463 0.034515
O20   O     O_2   0.910241 0.179497 0.221020 -0.551797
O21   O     O_3   0.704781 0.822775 0.247354 -0.563481
C57   C     C_3   0.664424 0.754067 0.170050 0.170471
H31   H     H_    0.630502 0.703088 0.232890 0.112660
H32   H     H_    0.715425 0.720885 0.105084 0.174089
C58   C     C_3   0.594282 0.792434 0.079936 -0.797717
H33   H     H_    0.624784 0.841466 0.011584 0.235294
H34   H     H_    0.562775 0.739018 0.018585 0.210256
H35   H     H_    0.542145 0.824542 0.143382 0.265934
O22   O     O_3   0.775891 0.092496 0.336318 -0.581124
C59   C     C_3   0.800246 0.021095 0.417766 0.144818
H36   H     H_    0.785019 0.959907 0.359859 0.214751
H37   H     H_    0.761731 0.017702 0.514192 0.103028
C60   C     C_3   0.899554 0.021062 0.446873 -0.874233
H38   H     H_    0.917609 0.078341 0.512756 0.229910
H39   H     H_    0.916671 0.959921 0.500211 0.211816
H40   H     H_    0.938419 0.023223 0.350736 0.293323
O23   O     O_3   0.196270 0.315033 0.248143 -0.560737
C61   C     C_3   0.149307 0.246294 0.180917 0.170796
H41   H     H_    0.111365 0.202919 0.251326 0.108232
H42   H     H_    0.196417 0.204780 0.120692 0.166370
C62   C     C_3   0.083254 0.286161 0.085224 -0.776672
H43   H     H_    0.116913 0.336182 0.022492 0.241771
H44   H     H_    0.054184 0.234023 0.018546 0.214857
H45   H     H_    0.029166 0.318838 0.143902 0.260405
O24   O     O_3   0.280037 0.587803 0.345846 -0.576648
C63   C     C_3   0.301302 0.515538 0.427471 0.137765
H46   H     H_    0.284469 0.454874 0.369140 0.204067
H47   H     H_    0.262151 0.513406 0.523691 0.109738
C64   C     C_3   0.400343 0.512544 0.457787 -0.877678
H48   H     H_    0.419933 0.569811 0.522670 0.233976
H49   H     H_    0.415121 0.451303 0.512490 0.207646
H50   H     H_    0.439713 0.512809 0.362009 0.294061
O25   O     O_3   0.649540 0.046448 0.849908 -0.595644
C65   C     C_3   0.730770 0.033081 0.916241 0.069835
H51   H     H_    0.731756 0.968696 0.968337 0.167028
H52   H     H_    0.743302 0.088029 0.989859 0.186840
C66   C     C_3   0.805932 0.032980 0.811942 -0.801487
H53   H     H_    0.805487 0.094975 0.754169 0.250196
H54   H     H_    0.870669 0.027510 0.863554 0.231330
H55   H     H_    0.798194 0.975982 0.740803 0.238163
O26   O     O_3   0.154159 0.525408 0.846761 -0.591479
C67   C     C_3   0.228719 0.555362 0.920426 0.091068
H56   H     H_    0.252584 0.502667 0.987316 0.180823
H57   H     H_    0.212821 0.616258 0.980437 0.162851
C68   C     C_3   0.303989 0.577689 0.822491 -0.810952
H58   H     H_    0.282820 0.629488 0.752641 0.251260
H59   H     H_    0.362338 0.602367 0.879914 0.233002
H60   H     H_    0.323880 0.518315 0.762585 0.236668

loop_
_geom_bond_atom_site_label_1
_geom_bond_atom_site_label_2
_ccdc_geom_bond_type
C1    O5    A    
C62   H45   S    
C44   C48   A    
C6    H18   S    
C12   H22   S    
O7    Zn4   S    
C3    O3    A    
C2    O2    A    
O25   C65   S    
C65   C66   S    
C20   H4    S    
C56   O20   D    
O6    Zn3   S    
C49   H5    S    
O22   C59   S    
C15   N3    A    
C28   C46   A    
C33   C39   A    
C6    H14   S    
C54   O18   D    
C2    C29   S    
C34   C40   A    
C32   C36   A    
C67   H56   S    
C35   C37   A    
C63   H47   S    
C38   C42   A    
C48   C52   S    
C55   O19   D    
C7    H19   S    
C14   O26   S    
C22   C41   S    
C4    O4    A    
C54   H28   S    
C64   H48   S    
C40   O24   S    
C13   N3    A    
C7    C27   S    
C57   H31   S    
C13   O25   S    
C62   H44   S    
C9    N1    A    
C66   H55   S    
O8    Zn4   S    
C5    H17   S    
C52   H8    S    
O5    Zn3   S    
C9    C19   S    
C29   C33   A    
C10   C20   S    
C61   H41   S    
C36   C56   S    
C17   H24   S    
C66   H53   S    
C68   H59   S    
C2    O6    A    
O12   Zn2   S    
O4    Zn2   S    
C25   C47   A    
C18   C20   S    
O15   Zn4   S    
C35   C55   S    
C26   C48   A    
C27   C45   A    
C62   H43   S    
O1    Zn1   S    
O14   Zn3   S    
C37   C41   A    
C22   O14   A    
C20   H3    S    
C56   H30   S    
C4    O8    A    
C58   H34   S    
C25   C29   A    
C8    H20   S    
C49   H9    S    
C30   C34   A    
C27   C31   A    
C50   H6    S    
C28   C32   A    
C51   H11   S    
C63   H46   S    
C7    C49   S    
C5    H13   S    
C52   H12   S    
C64   H50   S    
C10   N2    A    
C39   C43   A    
N3    Zn1   S    
O16   Zn4   S    
C23   C44   S    
C23   O11   A    
N2    Zn4   S    
C34   C54   S    
C60   H39   S    
C24   O12   A    
C68   H58   S    
C45   C49   S    
C18   H26   S    
C16   N4    A    
C68   H60   S    
C53   O17   D    
C65   H51   S    
C63   C64   S    
O11   Zn2   S    
C11   N1    A    
C59   C60   S    
C5    C25   S    
C19   H2    S    
C16   C18   S    
C23   O15   A    
C12   C14   A    
C8    H16   S    
C42   C46   A    
C50   H10   S    
C24   O16   A    
C51   H7    S    
C14   N4    A    
O23   C61   S    
C8    C50   S    
C53   H27   S    
C59   H37   S    
C21   O9    A    
C58   H35   S    
C64   H49   S    
C22   O10   A    
C33   C53   S    
O2    Zn1   S    
N4    Zn2   S    
C67   C68   S    
N1    Zn3   S    
C38   O22   S    
C65   H52   S    
C47   C51   S    
O24   C63   S    
C26   C30   A    
C37   O21   S    
C1    O1    A    
C21   O13   A    
C46   C50   S    
C57   C58   S    
C3    O7    A    
O9    Zn1   S    
C67   H57   S    
C9    C15   A    
C60   H40   S    
O3    Zn2   S    
C10   C16   A    
C55   H29   S    
C11   C13   A    
C19   H1    S    
O21   C57   S    
C6    C26   S    
C39   O23   S    
C61   C62   S    
C8    C28   S    
C12   N2    A    
C36   C38   A    
C1    C30   S    
C17   C19   S    
C57   H32   S    
C31   C35   A    
C66   H54   S    
C18   H25   S    
C3    C32   S    
C11   H21   S    
C4    C31   S    
C7    H15   S    
C21   C42   S    
O13   Zn3   S    
C40   C44   A    
C61   H42   S    
C58   H33   S    
O26   C67   S    
C17   H23   S    
C24   C43   S    
C41   C45   A    
C5    C51   S    
C6    C52   S    
C15   C17   S    
C43   C47   A    
C60   H38   S    
O10   Zn1   S    
C59   H36   S    
