data_mof_unit_30605.cif
_audit_creation_date              2013-03-05T15:39:51-0500
_audit_creation_method            fapswitch 2.2
_symmetry_space_group_name_H-M    P1
_symmetry_Int_Tables_number       1
_space_group_crystal_system       triclinic
_cell_length_a                    16.935154
_cell_length_b                    16.869778
_cell_length_c                    16.81944
_cell_angle_alpha                 64.402539
_cell_angle_beta                  65.559128
_cell_angle_gamma                 66.109782
_cell_volume                      3792.51068066

loop_
_atom_site_label
_atom_site_type_symbol
_atom_site_description
_atom_site_fract_x
_atom_site_fract_y
_atom_site_fract_z
_atom_type_partial_charge
O1    O     O_R   0.982940 0.138950 0.510160 -0.597169
O2    O     O_R   0.017060 0.861050 0.489840 -0.574662
O3    O     O_R   0.138950 0.510160 0.982940 -0.613718
O4    O     O_R   0.861050 0.489840 0.017060 -0.637574
O5    O     O_R   0.510160 0.982940 0.138950 -0.575307
O6    O     O_R   0.489840 0.017060 0.861050 -0.615791
O7    O     O_R   0.489840 0.861050 0.017060 -0.617413
O8    O     O_R   0.510160 0.138950 0.982940 -0.600893
O9    O     O_R   0.017060 0.489840 0.861050 -0.582388
O10   O     O_R   0.982940 0.510160 0.138950 -0.574639
O11   O     O_R   0.861050 0.017060 0.489840 -0.601402
O12   O     O_R   0.138950 0.982940 0.510160 -0.607649
C1    C     C_R   0.588629 0.037297 0.583952 0.096405
C2    C     C_R   0.411519 0.958763 0.409587 0.087414
C3    C     C_R   0.024937 0.610224 0.582840 0.118490
C4    C     C_R   0.956601 0.422345 0.398699 0.135050
C5    C     C_R   0.582897 0.583215 0.056658 0.132435
C6    C     C_R   0.412848 0.405853 0.969946 0.136131
O13   O     O_R   0.867700 0.025880 0.612340 -0.614155
O14   O     O_R   0.132300 0.974120 0.387660 -0.626926
O15   O     O_R   0.025880 0.612340 0.867700 -0.627673
O16   O     O_R   0.974120 0.387660 0.132300 -0.619166
O17   O     O_R   0.612340 0.867700 0.025880 -0.626062
O18   O     O_R   0.387660 0.132300 0.974120 -0.610225
O19   O     O_R   0.387660 0.974120 0.132300 -0.618696
O20   O     O_R   0.612340 0.025880 0.867700 -0.623965
O21   O     O_R   0.132300 0.387660 0.974120 -0.610390
O22   O     O_R   0.867700 0.612340 0.025880 -0.629758
O23   O     O_R   0.974120 0.132300 0.387660 -0.620900
O24   O     O_R   0.025880 0.867700 0.612340 -0.623435
C7    C     C_R   0.974040 0.178693 0.430809 0.895599
C8    C     C_R   0.046361 0.821675 0.558494 0.879510
C9    C     C_R   0.178386 0.434087 0.970955 0.906949
C10   C     C_R   0.822522 0.565825 0.027271 0.845654
C11   C     C_R   0.438679 0.958581 0.179435 0.911584
C12   C     C_R   0.565137 0.031249 0.820846 0.870493
C13   C     C_R   0.564748 0.821812 0.031180 0.860787
C14   C     C_R   0.438416 0.179513 0.960999 0.901462
C15   C     C_R   0.023057 0.570539 0.822167 0.887635
C16   C     C_R   0.951061 0.442645 0.177843 0.900156
C17   C     C_R   0.821727 0.029597 0.565575 0.898570
C18   C     C_R   0.178773 0.961627 0.438037 0.869110
Zn1   Zn    Zn3+2 0.004880 0.004880 0.583590 1.089281
Zn2   Zn    Zn3+2 0.995120 0.995120 0.416410 1.105181
Zn3   Zn    Zn3+2 0.004880 0.583590 0.004880 1.082834
Zn4   Zn    Zn3+2 0.995120 0.416410 0.995120 1.079676
Zn5   Zn    Zn3+2 0.583590 0.004880 0.004880 1.092252
Zn6   Zn    Zn3+2 0.416410 0.995120 0.995120 1.070422
C19   C     C_R   0.535212 0.044506 0.525403 -0.187818
C20   C     C_R   0.450171 0.003851 0.442104 -0.179216
C21   C     C_R   0.005851 0.563596 0.534308 -0.188017
C22   C     C_R   0.970299 0.474100 0.445464 -0.206532
C23   C     C_R   0.533123 0.540204 0.038727 -0.236137
C24   C     C_R   0.459879 0.449836 0.990566 -0.258028
C25   C     C_R   0.574179 0.051794 0.430492 0.189987
C26   C     C_R   0.396477 0.044640 0.512806 0.203797
C27   C     C_R   0.993105 0.474255 0.580447 0.192076
C28   C     C_R   0.997962 0.555700 0.394625 0.202597
C29   C     C_R   0.517062 0.576954 0.951955 0.230631
C30   C     C_R   0.477642 0.412327 0.076385 0.197450
C31   C     C_R   0.530069 0.032503 0.387715 0.184148
C32   C     C_R   0.439709 0.064222 0.555981 0.185265
C33   C     C_R   0.479030 0.532918 0.928285 0.199698
C34   C     C_R   0.511286 0.458743 0.102200 0.184856
C35   C     C_R   0.959126 0.439343 0.541743 0.184027
C36   C     C_R   0.000469 0.606818 0.441898 0.192306
C37   C     C_R   0.552066 0.026692 0.678694 -0.040294
C38   C     C_R   0.457488 0.934167 0.328355 0.000791
C39   C     C_R   0.078164 0.673339 0.535262 0.016961
C40   C     C_R   0.988392 0.325379 0.422843 -0.058767
C41   C     C_R   0.674986 0.543649 0.050102 -0.048220
C42   C     C_R   0.319615 0.440953 0.981411 -0.037728
C43   C     C_R   0.325432 0.943013 0.456441 -0.013143
C44   C     C_R   0.682854 0.020124 0.554148 -0.029253
C45   C     C_R   0.458682 0.325053 0.946773 0.000153
C46   C     C_R   0.543229 0.671315 0.063930 -0.026355
C47   C     C_R   0.914773 0.467164 0.327018 0.007809
C48   C     C_R   0.991421 0.592105 0.680053 -0.041642
C49   C     C_R   0.595184 0.047955 0.721939 -0.141726
C50   C     C_R   0.408014 0.931711 0.279720 -0.169644
C51   C     C_R   0.082538 0.721400 0.583811 -0.223986
C52   C     C_R   0.958188 0.277707 0.393253 -0.145144
C53   C     C_R   0.728412 0.600435 0.031215 -0.146710
C54   C     C_R   0.275515 0.401095 0.957838 -0.148802
C55   C     C_R   0.277223 0.937060 0.408183 -0.154023
C56   C     C_R   0.724722 0.044541 0.595587 -0.147472
C57   C     C_R   0.409281 0.278945 0.939159 -0.173692
C58   C     C_R   0.599999 0.727027 0.037664 -0.145528
C59   C     C_R   0.915961 0.415688 0.278692 -0.206101
C60   C     C_R   0.033993 0.611822 0.724162 -0.144344
C61   C     C_R   0.672826 0.076126 0.670081 -0.103859
C62   C     C_R   0.322146 0.920757 0.324511 -0.103910
C63   C     C_R   0.084461 0.675041 0.672925 -0.091409
C64   C     C_R   0.914422 0.326386 0.324937 -0.095823
C65   C     C_R   0.692481 0.693677 0.007198 -0.081028
C66   C     C_R   0.324524 0.325589 0.926975 -0.102770
N1    N     N_R   0.388198 0.123990 0.611485 0.239395
O25   O     O_R   0.412535 0.195430 0.593192 -0.307188
O26   O     O_R   0.320687 0.104890 0.683407 -0.299349
N2    N     N_R   0.547763 0.068497 0.289162 0.254626
O27   O     O_R   0.480394 0.111586 0.254054 -0.275790
O28   O     O_R   0.629230 0.051940 0.234278 -0.282555
N3    N     N_R   0.992011 0.703130 0.398202 0.227053
O29   O     O_R   0.044690 0.734410 0.316892 -0.300260
O30   O     O_R   0.933262 0.760081 0.442085 -0.369836
N4    N     N_R   0.910331 0.371565 0.599838 0.229077
O31   O     O_R   0.945447 0.294572 0.655043 -0.297992
O32   O     O_R   0.832530 0.384072 0.591956 -0.352240
N5    N     N_R   0.521708 0.424471 0.193029 0.232052
O33   O     O_R   0.495907 0.480212 0.239212 -0.359602
O34   O     O_R   0.556679 0.337908 0.230316 -0.249496
N6    N     N_R   0.462660 0.571108 0.839890 0.233992
O35   O     O_R   0.422558 0.657582 0.809288 -0.311225
O36   O     O_R   0.487547 0.519564 0.789591 -0.360469
N7    N     N_R   0.303161 0.091450 0.517925 0.233125
O37   O     O_R   0.240686 0.082992 0.596582 -0.306215
O38   O     O_R   0.280155 0.139115 0.442160 -0.340459
N8    N     N_R   0.641489 0.100954 0.374868 0.249247
O39   O     O_R   0.715355 0.067822 0.318264 -0.302134
O40   O     O_R   0.632065 0.176186 0.386266 -0.290468
N9    N     N_R   0.465539 0.324533 0.135663 0.254171
O41   O     O_R   0.535390 0.253627 0.133269 -0.270171
O42   O     O_R   0.384883 0.313588 0.177761 -0.314386
N10   N     N_R   0.544644 0.656474 0.885317 0.241576
O43   O     O_R   0.629197 0.649305 0.838682 -0.372751
O44   O     O_R   0.487613 0.737012 0.879881 -0.351363
N11   N     N_R   0.028790 0.583326 0.295623 0.231754
O45   O     O_R   0.991581 0.663596 0.246124 -0.307288
O46   O     O_R   0.091664 0.525581 0.254530 -0.357908
N12   N     N_R   0.022964 0.415961 0.661028 0.233706
O47   O     O_R   0.968949 0.377387 0.737151 -0.300609
O48   O     O_R   0.104609 0.403799 0.659073 -0.327307
C67   C     C_1   0.487330 0.973288 0.732180 0.296365
N13   N     N_1   0.435946 0.930417 0.774732 -0.051781
C68   C     C_1   0.554011 0.892217 0.305631 0.233769
N14   N     N_1   0.630984 0.857826 0.287758 -0.115175
C69   C     C_1   0.146231 0.672276 0.448256 0.275792
N15   N     N_1   0.201852 0.670682 0.379144 -0.107102
C70   C     C_1   0.054861 0.276279 0.472813 0.314444
N16   N     N_1   0.107486 0.237788 0.513452 0.004351
C71   C     C_1   0.713325 0.447478 0.057625 0.295640
N17   N     N_1   0.743703 0.370776 0.063598 -0.093184
C72   C     C_1   0.271331 0.516525 0.018836 0.306298
N18   N     N_1   0.233384 0.576703 0.048658 -0.079367
C73   C     C_1   0.296601 0.911076 0.556243 0.257533
N19   N     N_1   0.273903 0.884665 0.635962 -0.095026
C74   C     C_1   0.734307 0.955083 0.503763 0.263719
N20   N     N_1   0.774678 0.902694 0.464058 -0.049534
C75   C     C_1   0.555923 0.291654 0.928959 0.327733
N21   N     N_1   0.633519 0.265300 0.914582 -0.101308
C76   C     C_1   0.445563 0.703326 0.094739 0.307396
N22   N     N_1   0.367631 0.728517 0.119379 -0.120473
C77   C     C_1   0.860867 0.561303 0.309122 0.271875
N23   N     N_1   0.816658 0.636369 0.295083 -0.122986
C78   C     C_1   0.908161 0.566074 0.732468 0.258839
N24   N     N_1   0.841150 0.546191 0.774583 -0.087730
C79   C     C_1   0.704020 0.124818 0.699370 0.270691
N25   N     N_1   0.728729 0.163823 0.722559 -0.114315
C80   C     C_1   0.283397 0.885764 0.287932 0.248928
N26   N     N_1   0.252679 0.857928 0.258769 -0.137076
C81   C     C_1   0.132340 0.698614 0.710230 0.261255
N27   N     N_1   0.170700 0.717392 0.739792 -0.141565
C82   C     C_1   0.871840 0.286624 0.297673 0.272022
N28   N     N_1   0.837648 0.255255 0.275916 -0.095256
C83   C     C_1   0.749716 0.754287 0.942473 0.280132
N29   N     N_1   0.795031 0.802200 0.890882 -0.177976
C84   C     C_1   0.289624 0.295822 0.881890 0.275566
N30   N     N_1   0.262114 0.272195 0.845728 -0.083765

loop_
_geom_bond_atom_site_label_1
_geom_bond_atom_site_label_2
_geom_bond_distance
_ccdc_geom_bond_type
C38   C50   1.413319 A    
C42   C72   1.453738 S    
C6    C45   1.401467 A    
C52   C64   1.392985 A    
O13   Zn1   2.075626 S    
C13   C58   1.433556 S    
C74   N20   1.156394 T    
O9    C15   1.256610 A    
N8    O40   1.301470 A    
N6    O36   1.301227 A    
N1    O25   1.301522 A    
C23   C29   1.413662 A    
C75   N21   1.157458 T    
C68   N14   1.157613 T    
C24   C30   1.410791 A    
O21   C9    1.284567 A    
C17   C56   1.451005 S    
O5    Zn5   2.024717 S    
C47   C59   1.413306 A    
C83   N29   1.157808 T    
C7    C52   1.458263 S    
O6    Zn6   2.024718 S    
C62   C80   1.455793 S    
O10   C16   1.256426 A    
C37   C67   1.451339 S    
O12   Zn1   2.052154 S    
O9    Zn4   2.005804 S    
C56   C61   1.382955 A    
N5    O34   1.300774 A    
C73   N19   1.157622 T    
C23   C34   1.407915 A    
C48   C78   1.447945 S    
C3    C48   1.424701 A    
N4    O31   1.300780 A    
O3    C9    1.245604 A    
C72   N18   1.157593 T    
C25   C31   1.423230 A    
C11   C50   1.457859 S    
O1    C7    1.250959 A    
O2    C8    1.251103 A    
C4    C47   1.418518 A    
C54   C66   1.392605 A    
C59   C64   1.370301 A    
N8    O39   1.300607 A    
O12   C18   1.248646 A    
C47   C77   1.444348 S    
C28   C36   1.423973 A    
C79   N25   1.157593 T    
C82   N28   1.157635 T    
O2    Zn2   2.015983 S    
N7    O38   1.301525 A    
C5    C46   1.398402 A    
O18   C14   1.291353 A    
C76   N22   1.157371 T    
C21   C27   1.426405 A    
C3    C21   1.539017 S    
C16   C59   1.468114 S    
C46   C58   1.422825 A    
C15   C60   1.447892 S    
C49   C61   1.383633 A    
C41   C71   1.451581 S    
C58   C65   1.379622 A    
C53   C65   1.373603 A    
C40   C70   1.444203 S    
C39   C69   1.442441 S    
O8    C14   1.249020 A    
O15   Zn3   2.044265 S    
C65   C83   1.462129 S    
N6    O35   1.300863 A    
N1    O26   1.300545 A    
C55   C62   1.383450 A    
O1    Zn1   2.015983 S    
C81   N27   1.157449 T    
C41   C53   1.427751 A    
C6    C42   1.403653 A    
C3    C39   1.425059 A    
O4    C10   1.232245 A    
O22   Zn3   2.076885 S    
O17   Zn5   2.059293 S    
O18   Zn6   2.059295 S    
C2    C43   1.413924 A    
C44   C74   1.448914 S    
C37   C49   1.438057 A    
C84   N30   1.157697 T    
O4    Zn4   2.061402 S    
C46   C76   1.450834 S    
O17   C13   1.281841 A    
O3    Zn3   2.061402 S    
C48   C60   1.425098 A    
C43   C73   1.449063 S    
C21   C36   1.428248 A    
C50   C62   1.380999 A    
N12   O48   1.301302 A    
N11   O46   1.301187 A    
C8    C51   1.473866 S    
C32   N1    1.440882 S    
C51   C63   1.366053 A    
C27   N12   1.439566 S    
C80   N26   1.157484 T    
O15   C15   1.268980 A    
C63   C81   1.451576 S    
O16   C16   1.293346 A    
C57   C66   1.382290 A    
O10   Zn3   2.005804 S    
N2    O28   1.300141 A    
O7    C13   1.239821 A    
C66   C84   1.454920 S    
C4    C40   1.422730 A    
O11   Zn2   2.052154 S    
N3    O30   1.299437 A    
C18   C55   1.459809 S    
C44   C56   1.432406 A    
O19   Zn6   2.046935 S    
C43   C55   1.421506 A    
N9    O41   1.299181 A    
C42   C54   1.431511 A    
C22   C28   1.421043 A    
O20   Zn5   2.046935 S    
O19   C11   1.283579 A    
C1    C19   1.532151 S    
O21   Zn4   2.076886 S    
C45   C57   1.422367 A    
O16   Zn4   2.044265 S    
O14   Zn2   2.075626 S    
O23   Zn2   2.055367 S    
C67   N13   1.157433 T    
C26   C32   1.419731 A    
O24   Zn1   2.055368 S    
C31   N2    1.439726 S    
C10   C53   1.441411 S    
N11   O45   1.301037 A    
C5    C23   1.490892 S    
C35   N4    1.441084 S    
N3    O29   1.301063 A    
N9    O42   1.300828 A    
C60   C63   1.394692 A    
N10   O44   1.299999 A    
C1    C37   1.407674 A    
O20   C12   1.291996 A    
C29   N10   1.431470 S    
C19   C32   1.419414 A    
C33   N6    1.439138 S    
C36   N3    1.437802 S    
C38   C68   1.448668 S    
C4    C22   1.530765 S    
C27   C35   1.420400 A    
C12   C49   1.454767 S    
O14   C18   1.282556 A    
C70   N16   1.155388 T    
C5    C41   1.402862 A    
C69   N15   1.157420 T    
C29   C33   1.407298 A    
C14   C57   1.462613 S    
C30   C34   1.409302 A    
O7    Zn6   2.044129 S    
N12   O47   1.300975 A    
O8    Zn5   2.044127 S    
O23   C7    1.276069 A    
C19   C25   1.422441 A    
C71   N17   1.157720 T    
O24   C8    1.293400 A    
C34   N5    1.441017 S    
C2    C20   1.537909 S    
N4    O32   1.301269 A    
C45   C75   1.450936 S    
O5    C11   1.255763 A    
N2    O27   1.301378 A    
C26   N7    1.436581 S    
O6    C12   1.238717 A    
O11   C17   1.235952 A    
C30   N9    1.424945 S    
C40   C52   1.430332 A    
C9    C54   1.458898 S    
C20   C26   1.421228 A    
C61   C79   1.453607 S    
C39   C51   1.414362 A    
C6    C24   1.494930 S    
O22   C10   1.287350 A    
O13   C17   1.285827 A    
C28   N11   1.438615 S    
C1    C44   1.403799 A    
C24   C33   1.409008 A    
C78   N24   1.157559 T    
C20   C31   1.422913 A    
C2    C38   1.411728 A    
C77   N23   1.157536 T    
N5    O33   1.302315 A    
C64   C82   1.453093 S    
C22   C35   1.420493 A    
N7    O37   1.300337 A    
N10   O43   1.300973 A    
C25   N8    1.440548 S    
