data_mof_unit_61117.cif
_audit_creation_date              2012-12-10T18:53:24-0500
_audit_creation_method            fapswitch 2.2
_symmetry_space_group_name_H-M    P1
_symmetry_Int_Tables_number       1
_space_group_crystal_system       triclinic
_cell_length_a                    30.164946
_cell_length_b                    30.264277
_cell_length_c                    21.62527
_cell_angle_alpha                 90.059986
_cell_angle_beta                  91.386051
_cell_angle_gamma                 89.988749
_cell_volume                      19736.3600808

loop_
_atom_site_label
_atom_site_type_symbol
_atom_type_description
_atom_site_fract_x
_atom_site_fract_y
_atom_site_fract_z
_atom_type_partial_charge
C1    C     C_R   0.499996 0.086267 0.999994 0.911133
C2    C     C_R   0.086327 0.500027 0.999820 0.903243
C3    C     C_R   0.500004 0.913793 0.000007 0.966230
C4    C     C_R   0.913660 0.500046 0.000226 0.897436
C5    C     C_R   0.000000 0.586597 0.500159 0.884568
C6    C     C_R   0.586307 0.000061 0.499773 0.907784
C7    C     C_R   0.000004 0.413795 0.500009 0.968716
C8    C     C_R   0.413693 0.000068 0.500223 0.907687
C9    C     C_R   0.500051 0.226079 0.999937 -0.107826
C10   C     C_R   0.226332 0.499908 0.996626 -0.110240
C11   C     C_R   0.500055 0.774093 0.000117 -0.103448
C12   C     C_R   0.773599 0.500883 0.002007 -0.110315
C13   C     C_R   0.999535 0.726741 0.499615 -0.106191
C14   C     C_R   0.726314 0.001080 0.498051 -0.122595
C15   C     C_R   0.000026 0.274117 0.500130 -0.102473
C16   C     C_R   0.273687 0.001095 0.501960 -0.122622
C17   C     C_R   0.467251 0.296839 0.031362 -0.121692
C18   C     C_R   0.297129 0.530673 0.033553 -0.126746
C19   C     C_R   0.533550 0.703219 0.032267 -0.120740
C20   C     C_R   0.703810 0.471334 0.040110 -0.109964
C21   C     C_R   0.532823 0.296808 0.968523 -0.121047
C22   C     C_R   0.702528 0.531039 0.965143 -0.129124
C23   C     C_R   0.466502 0.703220 0.967966 -0.120844
C24   C     C_R   0.296460 0.470321 0.959441 -0.111882
C25   C     C_R   0.995590 0.796206 0.443915 -0.134409
C26   C     C_R   0.797455 0.032937 0.532099 -0.125012
C27   C     C_R   0.032623 0.203275 0.534070 -0.121760
C28   C     C_R   0.203806 0.969708 0.537103 -0.105184
C29   C     C_R   0.003340 0.796166 0.555529 -0.136039
C30   C     C_R   0.202533 0.032900 0.467914 -0.125081
C31   C     C_R   0.967369 0.203265 0.466209 -0.121641
C32   C     C_R   0.796210 0.969645 0.462927 -0.105125
C33   C     C_R   0.467052 0.342737 0.031785 0.137525
C34   C     C_R   0.343055 0.531054 0.034481 0.146865
C35   C     C_R   0.533626 0.657303 0.032843 0.136394
C36   C     C_R   0.657868 0.470778 0.039973 0.141349
C37   C     C_R   0.532987 0.342709 0.968116 0.136278
C38   C     C_R   0.656617 0.531307 0.964766 0.142610
C39   C     C_R   0.466398 0.657305 0.967338 0.136221
C40   C     C_R   0.342415 0.469998 0.959955 0.135514
C41   C     C_R   0.996257 0.841767 0.442914 0.167053
C42   C     C_R   0.843406 0.033046 0.532602 0.142853
C43   C     C_R   0.032685 0.157369 0.534696 0.138398
C44   C     C_R   0.157852 0.969053 0.536731 0.129231
C45   C     C_R   0.003085 0.841725 0.556713 0.167192
C46   C     C_R   0.156583 0.033009 0.467410 0.142942
C47   C     C_R   0.967294 0.157360 0.465530 0.138442
C48   C     C_R   0.842163 0.968995 0.463291 0.129128
C49   C     C_R   0.500001 0.365899 0.999934 -0.138979
C50   C     C_R   0.365931 0.500429 0.997773 -0.142530
C51   C     C_R   0.500002 0.634127 0.000084 -0.136968
C52   C     C_R   0.634051 0.500847 0.002039 -0.143731
C53   C     C_R   0.999789 0.865471 0.499862 -0.176977
C54   C     C_R   0.865952 0.000891 0.498099 -0.146535
C55   C     C_R   0.999989 0.134160 0.500093 -0.138755
C56   C     C_R   0.134049 0.000896 0.501908 -0.146641
C57   C     C_R   0.500043 0.274076 0.999937 0.078689
C58   C     C_R   0.274167 0.500385 0.996324 0.076195
C59   C     C_R   0.500033 0.726021 0.000127 0.078231
C60   C     C_R   0.725784 0.501160 0.002579 0.076028
C61   C     C_R   0.999399 0.773996 0.499677 0.081735
C62   C     C_R   0.774177 0.001356 0.497432 0.081088
C63   C     C_R   0.000002 0.226060 0.500146 0.078704
C64   C     C_R   0.225824 0.001370 0.502589 0.081265
C65   C     C_R   0.586197 0.500167 0.000661 0.915408
C66   C     C_R   0.499998 0.413783 0.999975 0.913994
C67   C     C_R   0.413798 0.500075 0.999316 0.916019
C68   C     C_R   0.499999 0.586225 0.000028 0.912860
C69   C     C_R   0.086193 0.000204 0.500632 0.909717
C70   C     C_R   0.999969 0.913605 0.499964 0.906323
C71   C     C_R   0.913807 0.000203 0.499369 0.909488
C72   C     C_R   0.999997 0.086238 0.500029 0.913555
C73   C     C_R   0.501004 0.004574 0.120365 0.889367
C74   C     C_R   0.000376 0.499999 0.119844 0.845920
C75   C     C_R   0.498994 0.004575 0.879649 0.889415
C76   C     C_R   0.000072 0.499910 0.880159 0.851924
C77   C     C_R   0.000616 0.505830 0.620127 0.879637
C78   C     C_R   0.501210 0.999986 0.619883 0.845570
C79   C     C_R   0.999301 0.505726 0.379850 0.879958
C80   C     C_R   0.498791 0.999946 0.380117 0.845553
C81   C     C_R   0.586439 0.000719 0.197654 -0.164100
C82   C     C_R   0.922031 0.478227 0.183620 -0.198805
C83   C     C_R   0.432032 0.051961 0.187680 -0.164145
C84   C     C_R   0.078217 0.526438 0.185948 -0.177667
C85   C     C_R   0.413543 0.000809 0.802371 -0.164136
C86   C     C_R   0.077546 0.476209 0.814819 -0.215645
C87   C     C_R   0.567929 0.052027 0.812506 -0.164167
C88   C     C_R   0.921554 0.524931 0.814582 -0.182347
C89   C     C_R   0.084963 0.510840 0.697102 -0.173624
C90   C     C_R   0.423730 0.973007 0.681806 -0.197345
C91   C     C_R   0.924597 0.542655 0.689111 -0.169135
C92   C     C_R   0.576453 0.031901 0.688220 -0.178394
C93   C     C_R   0.914544 0.509987 0.302887 -0.176316
C94   C     C_R   0.576226 0.972830 0.318093 -0.197395
C95   C     C_R   0.074542 0.543894 0.311495 -0.165633
C96   C     C_R   0.423499 0.031758 0.311878 -0.178335
C97   C     C_R   0.623179 0.983395 0.230377 -0.077143
C98   C     C_R   0.880348 0.477519 0.210786 -0.042781
C99   C     C_R   0.393388 0.064732 0.217782 -0.075520
C100  C     C_R   0.116119 0.542545 0.216847 -0.054586
C101  C     C_R   0.376793 0.983529 0.769584 -0.077208
C102  C     C_R   0.118971 0.475132 0.786721 -0.045520
C103  C     C_R   0.606555 0.064836 0.782439 -0.075531
C104  C     C_R   0.883307 0.540517 0.783984 -0.048992
C105  C     C_R   0.123272 0.496017 0.728872 -0.067457
C106  C     C_R   0.382032 0.968933 0.708202 -0.044787
C107  C     C_R   0.885032 0.550063 0.720341 -0.073235
C108  C     C_R   0.611735 0.052745 0.719825 -0.057549
C109  C     C_R   0.876464 0.494453 0.271339 -0.072121
C110  C     C_R   0.617930 0.968758 0.291696 -0.044896
C111  C     C_R   0.114070 0.551917 0.280571 -0.076115
C112  C     C_R   0.388210 0.052607 0.280347 -0.057466
C113  C     C_R   0.539222 0.990540 0.284854 0.066291
C114  C     C_R   0.957414 0.505931 0.278063 0.080350
C115  C     C_R   0.462911 0.019969 0.281745 0.065742
C116  C     C_R   0.037048 0.524656 0.281337 0.076803
C117  C     C_R   0.460743 0.990676 0.715109 0.066305
C118  C     C_R   0.042201 0.505738 0.721711 0.079813
C119  C     C_R   0.537051 0.020089 0.718315 0.065637
C120  C     C_R   0.962475 0.523915 0.718926 0.077547
C121  C     C_R   0.039531 0.493569 0.783786 0.064688
C122  C     C_R   0.456767 0.001010 0.777785 0.087543
C123  C     C_R   0.961192 0.516531 0.782830 0.068020
C124  C     C_R   0.533986 0.027618 0.781868 0.076506
C125  C     C_R   0.960264 0.494155 0.215783 0.065704
C126  C     C_R   0.543210 0.000919 0.222225 0.087554
C127  C     C_R   0.038603 0.517349 0.217436 0.066437
C128  C     C_R   0.465984 0.027540 0.218227 0.076454
C129  C     C_R   0.499140 0.000489 0.313983 -0.127282
C130  C     C_R   0.997452 0.514174 0.312721 -0.199810
C131  C     C_R   0.500827 0.000617 0.686015 -0.127299
C132  C     C_R   0.002190 0.514032 0.687307 -0.202558
C133  C     C_R   0.999374 0.500336 0.814036 -0.129052
C134  C     C_R   0.495949 0.012664 0.812677 -0.179058
C135  C     C_R   0.000656 0.500775 0.185956 -0.128083
C136  C     C_R   0.504037 0.012619 0.187369 -0.179051
C137  C     C_R   0.479658 0.203332 0.950232 0.159951
C138  C     C_R   0.202681 0.528466 0.956938 0.161614
C139  C     C_R   0.515770 0.796823 0.948318 0.155565
C140  C     C_R   0.795025 0.471417 0.962561 0.135806
C141  C     C_R   0.520407 0.203398 0.049673 0.159694
C142  C     C_R   0.797187 0.530376 0.040431 0.191897
C143  C     C_R   0.484331 0.796935 0.051884 0.155466
C144  C     C_R   0.204945 0.471536 0.037550 0.160186
C145  C     C_R   0.038817 0.704765 0.486234 0.145055
C146  C     C_R   0.702605 0.028666 0.457051 0.176219
C147  C     C_R   0.016919 0.296832 0.449063 0.153844
C148  C     C_R   0.295095 0.973442 0.459984 0.136299
C149  C     C_R   0.960500 0.704556 0.513487 0.145442
C150  C     C_R   0.297388 0.028747 0.542949 0.176397
C151  C     C_R   0.983137 0.296953 0.551165 0.153461
C152  C     C_R   0.704913 0.973485 0.540019 0.136429
C153  C     C_R   0.479869 0.157059 0.949988 0.087159
C154  C     C_R   0.156381 0.528971 0.958207 0.126557
C155  C     C_R   0.515260 0.843101 0.947968 0.089079
C156  C     C_R   0.841331 0.471014 0.961712 0.114364
C157  C     C_R   0.520134 0.157127 0.049970 0.087194
C158  C     C_R   0.843510 0.530206 0.040139 0.093437
C159  C     C_R   0.484805 0.843214 0.052161 0.089097
C160  C     C_R   0.158645 0.471429 0.038802 0.107470
C161  C     C_R   0.038987 0.658705 0.484153 0.109951
C162  C     C_R   0.656280 0.028583 0.457573 0.080433
C163  C     C_R   0.016387 0.343102 0.448656 0.090771
C164  C     C_R   0.341410 0.972996 0.459224 0.105419
C165  C     C_R   0.960812 0.658535 0.516467 0.113100
C166  C     C_R   0.343713 0.028663 0.542423 0.080605
C167  C     C_R   0.983659 0.343225 0.551493 0.091380
C168  C     C_R   0.658598 0.973033 0.540764 0.105504
C169  C     C_R   0.499993 0.134223 0.999988 -0.202570
C170  C     C_R   0.134446 0.500149 0.998959 -0.160993
C171  C     C_R   0.500018 0.865928 0.000043 -0.221765
C172  C     C_R   0.865514 0.500294 0.000859 -0.179180
C173  C     C_R   0.999959 0.635071 0.500308 -0.242455
C174  C     C_R   0.634403 0.000395 0.499171 -0.185397
C175  C     C_R   0.000015 0.365935 0.500052 -0.225242
C176  C     C_R   0.365598 0.000417 0.500818 -0.185370
H1    H     H_    0.593322 0.016064 0.154081 0.218281
H2    H     H_    0.923959 0.467511 0.136055 0.181737
H3    H     H_    0.436550 0.063696 0.141016 0.188544
H4    H     H_    0.080453 0.519852 0.136959 0.162129
H5    H     H_    0.406669 0.016125 0.846014 0.218418
H6    H     H_    0.075127 0.462784 0.860932 0.184666
H7    H     H_    0.563412 0.063729 0.859221 0.188545
H8    H     H_    0.919540 0.518094 0.863515 0.157241
H9    H     H_    0.089527 0.529493 0.655182 0.193266
H10   H     H_    0.426259 0.963907 0.633738 0.186612
H11   H     H_    0.925936 0.554231 0.642081 0.192866
H12   H     H_    0.580519 0.023934 0.639909 0.166997
H13   H     H_    0.909585 0.526761 0.346182 0.206684
H14   H     H_    0.573682 0.963691 0.366117 0.186800
H15   H     H_    0.072880 0.555392 0.358589 0.190587
H16   H     H_    0.419431 0.023764 0.360157 0.166802
H17   H     H_    0.441859 0.278802 0.055356 0.179534
H18   H     H_    0.279190 0.554002 0.061621 0.176924
H19   H     H_    0.559526 0.721240 0.056869 0.180098
H20   H     H_    0.722503 0.448181 0.068680 0.181433
H21   H     H_    0.558242 0.278748 0.944551 0.179710
H22   H     H_    0.720229 0.554202 0.936598 0.179035
H23   H     H_    0.440547 0.721242 0.943360 0.179954
H24   H     H_    0.278009 0.446862 0.931011 0.180188
H25   H     H_    0.992672 0.777725 0.401034 0.179110
H26   H     H_    0.779763 0.057425 0.558534 0.177195
H27   H     H_    0.057909 0.221313 0.560053 0.179718
H28   H     H_    0.222463 0.945169 0.563319 0.184483
H29   H     H_    0.006205 0.777653 0.598337 0.178421
H30   H     H_    0.220215 0.057352 0.441475 0.177182
H31   H     H_    0.942094 0.221296 0.440236 0.179945
H32   H     H_    0.777565 0.945065 0.436722 0.184560
O1    O     O_R   0.463050 0.065470 0.999990 -0.599301
O2    O     O_R   0.065470 0.536950 0.999990 -0.587975
O3    O     O_R   0.536950 0.934530 0.999990 -0.591839
O4    O     O_R   0.934530 0.463050 0.999990 -0.593614
O5    O     O_R   0.536950 0.065470 0.000010 -0.599327
O6    O     O_R   0.934530 0.536950 0.000010 -0.586614
O7    O     O_R   0.463050 0.934530 0.000010 -0.591916
O8    O     O_R   0.065470 0.463050 0.000010 -0.596093
O9    O     O_R   0.963050 0.565470 0.499990 -0.603308
O10   O     O_R   0.565470 0.036950 0.499990 -0.585816
O11   O     O_R   0.036950 0.434530 0.499990 -0.583729
O12   O     O_R   0.434530 0.963050 0.499990 -0.593683
O13   O     O_R   0.036950 0.565470 0.500010 -0.604682
O14   O     O_R   0.434530 0.036950 0.500010 -0.585806
O15   O     O_R   0.963050 0.434530 0.500010 -0.588917
O16   O     O_R   0.565470 0.963050 0.500010 -0.593682
O17   O     O_R   0.463050 0.999990 0.091600 -0.599021
O18   O     O_R   0.999990 0.536950 0.091600 -0.600194
O19   O     O_R   0.536950 0.000010 0.091600 -0.634440
O20   O     O_R   0.000010 0.463050 0.091600 -0.603565
O21   O     O_R   0.536950 0.999990 0.908400 -0.599028
O22   O     O_R   0.000010 0.536950 0.908400 -0.599558
O23   O     O_R   0.463050 0.000010 0.908400 -0.634456
O24   O     O_R   0.999990 0.463050 0.908400 -0.609092
O25   O     O_R   0.963050 0.499990 0.591600 -0.599060
O26   O     O_R   0.499990 0.036950 0.591600 -0.598194
O27   O     O_R   0.036950 0.500010 0.591600 -0.621944
O28   O     O_R   0.500010 0.963050 0.591600 -0.606221
O29   O     O_R   0.036950 0.499990 0.408400 -0.596812
O30   O     O_R   0.500010 0.036950 0.408400 -0.598027
O31   O     O_R   0.963050 0.500010 0.408400 -0.633565
O32   O     O_R   0.499990 0.963050 0.408400 -0.606363
O33   O     O_R   0.565470 0.500020 0.051710 -0.593397
O34   O     O_R   0.500020 0.434530 0.051710 -0.592057
O35   O     O_R   0.434530 0.499980 0.051710 -0.590855
O36   O     O_R   0.499980 0.565470 0.051710 -0.592060
O37   O     O_R   0.434530 0.500020 0.948290 -0.593426
O38   O     O_R   0.499980 0.434530 0.948290 -0.591593
O39   O     O_R   0.565470 0.499980 0.948290 -0.591153
O40   O     O_R   0.500020 0.565470 0.948290 -0.591584
O41   O     O_R   0.065470 0.000020 0.551710 -0.588788
O42   O     O_R   0.000020 0.934530 0.551710 -0.591471
O43   O     O_R   0.934530 0.999980 0.551710 -0.596305
O44   O     O_R   0.999980 0.065470 0.551710 -0.591137
O45   O     O_R   0.934530 0.000020 0.448290 -0.588826
O46   O     O_R   0.999980 0.934530 0.448290 -0.591730
O47   O     O_R   0.065470 0.999980 0.448290 -0.596250
O48   O     O_R   0.000020 0.065470 0.448290 -0.591025
Zn1   Zn    Zn3+2 0.450650 0.000000 0.000000 1.072842
Zn2   Zn    Zn3+2 0.000000 0.549350 0.000000 1.085008
Zn3   Zn    Zn3+2 0.549350 0.000000 0.000000 1.073022
Zn4   Zn    Zn3+2 0.000000 0.450650 0.000000 1.081082
Zn5   Zn    Zn3+2 0.950650 0.500000 0.500000 1.073809
Zn6   Zn    Zn3+2 0.500000 0.049350 0.500000 1.092297
Zn7   Zn    Zn3+2 0.049350 0.500000 0.500000 1.094499
Zn8   Zn    Zn3+2 0.500000 0.950650 0.500000 1.087957
Zn9   Zn    Zn3+2 0.500000 0.500000 0.069060 1.110119
Zn10  Zn    Zn3+2 0.500000 0.500000 0.930940 1.108321
Zn11  Zn    Zn3+2 0.000000 0.000000 0.569060 1.110940
Zn12  Zn    Zn3+2 0.000000 1.000000 0.430940 1.111055
C177  C     C_2   0.360754 0.092567 0.183033 0.974890
O49   O     O_2   0.339083 0.120515 0.209808 -0.557338
O50   O     O_R   0.356145 0.088008 0.118826 -0.782500
H33   H     H_    0.333458 0.109139 0.100121 0.367919
C178  C     C_2   0.157170 0.548135 0.181092 0.970782
O51   O     O_2   0.193416 0.539603 0.204680 -0.560638
O52   O     O_R   0.154182 0.562051 0.119499 -0.799763
H34   H     H_    0.184249 0.564322 0.099767 0.346393
C179  C     C_2   0.665784 0.980026 0.197706 0.984441
O53   O     O_2   0.689379 0.947447 0.204534 -0.554572
O54   O     O_R   0.677990 0.013389 0.156785 -0.772604
H35   H     H_    0.707338 0.007142 0.136626 0.368748
C180  C     C_2   0.841698 0.462723 0.171948 0.946174
O55   O     O_2   0.805019 0.478952 0.178719 -0.573254
O56   O     O_R   0.847815 0.431435 0.125258 -0.788010
H36   H     H_    0.819486 0.424945 0.100715 0.351580
C181  C     C_2   0.639164 0.092678 0.817284 0.975043
O57   O     O_2   0.660760 0.120691 0.790621 -0.557185
O58   O     O_R   0.643827 0.088053 0.881463 -0.782320
H37   H     H_    0.666487 0.109200 0.900245 0.368076
C182  C     C_2   0.842052 0.545051 0.819607 0.968258
O59   O     O_2   0.844044 0.557881 0.873262 -0.622390
O60   O     O_R   0.801087 0.533355 0.792702 -0.742600
H38   H     H_    0.775703 0.537205 0.822134 0.361241
C183  C     C_2   0.334190 0.980160 0.802252 0.984319
O61   O     O_2   0.310555 0.947635 0.795217 -0.555067
O62   O     O_R   0.322029 0.013458 0.843399 -0.772945
H39   H     H_    0.292678 0.007218 0.863527 0.368591
C184  C     C_2   0.156348 0.451225 0.818138 0.977137
O63   O     O_2   0.156278 0.445411 0.874089 -0.640519
O64   O     O_R   0.190595 0.433304 0.783586 -0.752761
H40   H     H_    0.213743 0.417599 0.810306 0.363468
C185  C     C_2   0.846870 0.569205 0.685251 1.002785
O65   O     O_2   0.824354 0.598269 0.708175 -0.558482
O66   O     O_R   0.837148 0.554348 0.625216 -0.762560
H41   H     H_    0.810498 0.569874 0.605757 0.372587
C186  C     C_2   0.653533 0.059752 0.686170 0.984761
O67   O     O_2   0.689424 0.056916 0.713380 -0.556450
O68   O     O_R   0.651881 0.067659 0.622438 -0.797676
H42   H     H_    0.682425 0.070760 0.604348 0.350986
C187  C     C_2   0.167104 0.505546 0.702128 0.995643
O69   O     O_2   0.171341 0.505107 0.646015 -0.591215
O70   O     O_R   0.203159 0.516821 0.740856 -0.744861
H43   H     H_    0.231031 0.523060 0.717093 0.372324
C188  C     C_2   0.344465 0.953547 0.667744 0.949113
O71   O     O_2   0.307010 0.967853 0.674674 -0.573353
O72   O     O_R   0.352469 0.924132 0.619342 -0.785384
H44   H     H_    0.324715 0.917193 0.593767 0.354652
C189  C     C_2   0.151863 0.571368 0.316101 0.995157
O73   O     O_2   0.173415 0.601533 0.294237 -0.553602
O74   O     O_R   0.162362 0.555464 0.375324 -0.757551
H45   H     H_    0.188722 0.571254 0.395164 0.375202
C190  C     C_2   0.346407 0.059588 0.314020 0.984752
O75   O     O_2   0.310517 0.056653 0.286819 -0.556521
O76   O     O_R   0.348057 0.067585 0.377753 -0.797593
H46   H     H_    0.317511 0.070660 0.395856 0.350915
C191  C     C_2   0.834032 0.495015 0.304693 0.984521
O77   O     O_2   0.808375 0.463827 0.300315 -0.552869
O78   O     O_R   0.824374 0.530480 0.343631 -0.775910
H47   H     H_    0.794891 0.526868 0.364590 0.369563
C192  C     C_2   0.655492 0.953333 0.332104 0.949092
O79   O     O_2   0.692972 0.967565 0.325168 -0.573195
O80   O     O_R   0.647457 0.923966 0.380473 -0.785281
H48   H     H_    0.675212 0.916997 0.406018 0.354784
I1    I     I_    0.448439 0.239732 0.876167 -0.177724
I2    I     I_    0.238116 0.570030 0.894651 -0.170220
I3    I     I_    0.540935 0.760595 0.871506 -0.177113
I4    I     I_    0.756203 0.428492 0.903520 -0.181521
I5    I     I_    0.551648 0.239892 0.123714 -0.175115
I6    I     I_    0.761574 0.574633 0.099086 -0.137015
I7    I     I_    0.459202 0.760873 0.128757 -0.176575
I8    I     I_    0.243791 0.429713 0.098000 -0.151401
I9    I     I_    0.097806 0.743080 0.470283 -0.184635
I10   I     I_    0.737955 0.069768 0.394066 -0.141110
I11   I     I_    0.043914 0.260594 0.373486 -0.176268
I12   I     I_    0.256353 0.933279 0.397167 -0.175357
I13   I     I_    0.901157 0.742478 0.528874 -0.182299
I14   I     I_    0.262027 0.069950 0.605926 -0.142453
I15   I     I_    0.956157 0.260896 0.626805 -0.178431
I16   I     I_    0.743666 0.933420 0.602847 -0.175602
I17   I     I_    0.451686 0.121524 0.872818 -0.244710
I18   I     I_    0.120475 0.571918 0.895631 -0.209334
I19   I     I_    0.535526 0.879036 0.868023 -0.201625
I20   I     I_    0.873714 0.428051 0.897640 -0.190579
I21   I     I_    0.548224 0.121690 0.127208 -0.243759
I22   I     I_    0.879215 0.574142 0.101773 -0.206899
I23   I     I_    0.464522 0.879320 0.132057 -0.201710
I24   I     I_    0.126217 0.429762 0.104283 -0.192389
I25   I     I_    0.099134 0.628368 0.453183 -0.212103
I26   I     I_    0.620165 0.070147 0.393386 -0.193875
I27   I     I_    0.038241 0.378981 0.369481 -0.187761
I28   I     I_    0.374122 0.933018 0.391960 -0.195946
I29   I     I_    0.901411 0.628013 0.549566 -0.213999
I30   I     I_    0.379820 0.070304 0.606624 -0.194407
I31   I     I_    0.961806 0.379290 0.630618 -0.190767
I32   I     I_    0.625896 0.933145 0.608010 -0.196261
I33   I     I_    0.414765 0.374379 0.078975 -0.204790
I34   I     I_    0.374757 0.580317 0.090161 -0.189484
I35   I     I_    0.586636 0.625558 0.081790 -0.207283
I36   I     I_    0.627561 0.421654 0.095139 -0.188824
I37   I     I_    0.585338 0.374330 0.921154 -0.206720
I38   I     I_    0.624514 0.580218 0.909011 -0.200016
I39   I     I_    0.413417 0.625574 0.918241 -0.212708
I40   I     I_    0.373218 0.420758 0.905369 -0.210006
I41   I     I_    0.991949 0.867988 0.351145 -0.173342
I42   I     I_    0.875829 0.083723 0.584791 -0.197814
I43   I     I_    0.084377 0.125834 0.586686 -0.206076
I44   I     I_    0.127276 0.916902 0.585660 -0.198265
I45   I     I_    0.007812 0.867885 0.648570 -0.174882
I46   I     I_    0.124147 0.083635 0.415246 -0.197715
I47   I     I_    0.915603 0.125814 0.413481 -0.204436
I48   I     I_    0.872762 0.916779 0.414372 -0.198026

loop_
_geom_bond_atom_site_label_1
_geom_bond_atom_site_label_2
_ccdc_geom_bond_type
O3    Zn3   S    
C81   C126  A    
C184  O64   S    
O60   H38   S    
C83   C128  A    
C156  I20   S    
C102  C184  S    
C15   C151  A    
C185  O65   D    
C2    O8    A    
O46   Zn12  S    
C92   C119  A    
O42   Zn11  S    
C22   C60   A    
C87   C124  A    
O47   Zn12  S    
C3    O7    A    
O50   H33   S    
C22   C38   A    
C77   O27   A    
C154  C170  A    
O34   Zn9   S    
C75   O21   A    
C157  C169  A    
O39   Zn10  S    
C18   C58   A    
C5    O9    A    
C153  I17   S    
C144  C160  A    
C69   O41   A    
C125  C135  A    
O48   Zn12  S    
C126  C136  A    
C98   C109  A    
C82   C98   A    
C162  I26   S    
C142  C158  A    
C145  I9    S    
C71   O43   A    
C6    O16   A    
C4    O6    A    
O76   H46   S    
C84   C100  A    
C90   C117  A    
C91   C107  A    
C144  I8    S    
C25   C41   A    
C73   O19   A    
C6    C174  S    
C41   I41   S    
C79   C130  S    
C28   C44   A    
C29   C45   A    
C94   H14   S    
C82   C125  A    
C31   H31   S    
C31   C63   A    
C7    O15   A    
O44   Zn11  S    
O1    Zn1   S    
O66   H41   S    
C82   H2    S    
C86   C121  A    
C137  C153  A    
C140  C156  A    
C87   C103  A    
C141  C157  A    
C177  O50   S    
C35   C51   A    
O33   Zn9   S    
C37   I37   S    
O43   Zn11  S    
O25   Zn5   S    
C66   O38   A    
O35   Zn9   S    
C21   H21   S    
C76   C133  S    
C165  I29   S    
C89   H9    S    
C32   C62   A    
C181  O58   S    
C137  I1    S    
C101  C183  S    
C158  C172  A    
C145  C161  A    
C151  C167  A    
C93   C114  A    
C73   O17   A    
C116  C130  A    
C24   H24   S    
C100  C111  A    
C78   O28   A    
C190  O75   D    
C19   C35   A    
C10   C138  A    
C11   C143  A    
C77   C132  S    
C104  C107  A    
C52   C65   S    
C39   C51   A    
C18   H18   S    
C158  I22   S    
C13   C145  A    
C163  C175  A    
C70   O46   A    
C75   C134  S    
C68   O40   A    
C23   C59   A    
O23   Zn1   S    
C27   H27   S    
C10   C58   S    
C25   H25   S    
C87   H7    S    
C188  O72   S    
C33   I33   S    
C14   C62   S    
C29   H29   S    
C84   H4    S    
O36   Zn9   S    
C191  O78   S    
C97   C179  S    
C103  C181  S    
C74   O20   A    
C107  C185  S    
C105  C187  S    
C92   C108  A    
C186  O68   S    
C76   O24   A    
C119  C131  A    
C32   H32   S    
C50   C67   S    
C36   C52   A    
C45   C53   A    
C149  I13   S    
C179  O53   D    
C192  O80   S    
O32   Zn8   S    
C110  C192  S    
C88   C104  A    
C94   C113  A    
C111  C189  S    
C163  I27   S    
C187  O70   S    
C3    O3    A    
C29   C61   A    
O9    Zn5   S    
C49   C66   S    
C1    O1    A    
C148  C164  A    
C141  I5    S    
C149  C165  A    
C113  C126  A    
C19   C59   A    
C65   O33   A    
C156  C172  A    
C115  C128  A    
C117  C122  A    
C154  I18   S    
C183  O61   D    
C139  C155  A    
C95   C116  A    
C78   O26   A    
C182  O59   D    
C21   C37   A    
C10   C144  A    
C41   C53   A    
C152  I16   S    
C43   C55   A    
C86   C102  A    
C8    O14   A    
C26   C42   A    
C167  C175  A    
C104  C182  S    
C91   H11   S    
C85   H5    S    
C80   C129  S    
C4    C172  S    
C5    C173  S    
C30   C46   A    
C160  I24   S    
O20   Zn4   S    
C93   H13   S    
C180  O56   S    
C83   H3    S    
O41   Zn11  S    
C81   H1    S    
C74   O18   A    
C147  C163  A    
C67   O37   A    
C138  C154  A    
C178  O52   S    
C138  I2    S    
C117  C131  A    
C118  C132  A    
O26   Zn6   S    
C56   C69   S    
C14   C152  A    
O56   H36   S    
C79   O29   A    
O31   Zn5   S    
C83   C99   A    
C45   I45   S    
O38   Zn10  S    
C106  C188  S    
C93   C109  A    
C30   C64   A    
O29   Zn7   S    
C114  C130  A    
O52   H34   S    
O18   Zn2   S    
O16   Zn8   S    
C146  I10   S    
C146  C162  A    
C159  C171  A    
C123  C133  A    
C148  I12   S    
C127  C135  A    
C128  C136  A    
C11   C59   S    
C33   C49   A    
C101  C106  A    
C102  C105  A    
C192  O79   D    
C189  O74   S    
C11   C139  A    
C71   O45   A    
C152  C168  A    
C6    O10   A    
C9    C137  A    
C54   C71   S    
C116  C127  A    
C48   I48   S    
O27   Zn7   S    
O54   H35   S    
C12   C140  A    
C157  I21   S    
C20   C60   A    
C70   O42   A    
C109  C191  S    
C120  C123  A    
O72   H44   S    
C31   C47   A    
C177  O49   D    
C32   C48   A    
C17   H17   S    
C40   I40   S    
C17   C33   A    
C72   O48   A    
C161  I25   S    
C53   C70   S    
O14   Zn6   S    
C2    O2    A    
C185  O66   S    
O45   Zn12  S    
C98   C180  S    
O68   H42   S    
O11   Zn7   S    
C90   C106  A    
O62   H39   S    
C67   O35   A    
C187  O69   D    
O4    Zn4   S    
C168  C174  A    
O64   H40   S    
C181  O57   D    
C159  I23   S    
C161  C173  A    
C44   C56   A    
O58   H37   S    
C73   C136  S    
C168  I32   S    
C74   C135  S    
C92   H12   S    
C85   C122  A    
C25   C61   A    
C27   C63   A    
C2    C170  S    
C28   C64   A    
C108  C186  S    
O28   Zn8   S    
C1    O5    A    
C38   I38   S    
O30   Zn6   S    
O15   Zn5   S    
C143  I7    S    
C22   H22   S    
O13   Zn7   S    
C166  I30   S    
C143  C159  A    
C124  C134  A    
O2    Zn2   S    
C90   H10   S    
C150  I14   S    
O78   H47   S    
O80   H48   S    
C94   C110  A    
C42   C54   A    
C15   C147  A    
O7    Zn1   S    
C188  O71   D    
C40   C50   A    
C12   C142  A    
C164  C176  A    
C191  O77   D    
C88   H8    S    
C142  I6    S    
C13   C149  A    
O74   H45   S    
C20   C36   A    
C27   C43   A    
C38   C52   A    
C24   C58   A    
C186  O67   D    
O24   Zn4   S    
C153  C169  A    
C86   H6    S    
C17   C57   A    
O8    Zn4   S    
C150  C166  A    
C5    O13   A    
O70   H43   S    
C19   H19   S    
C184  O63   D    
C47   I47   S    
O37   Zn10  S    
C79   O31   A    
C164  I28   S    
C35   I35   S    
C119  C124  A    
C48   C54   A    
C96   C112  A    
C113  C129  A    
C189  O73   D    
C140  I4    S    
C26   H26   S    
C39   I39   S    
C34   I34   S    
C112  C190  S    
O40   Zn10  S    
C165  C173  A    
C30   H30   S    
C23   H23   S    
C37   C49   A    
C80   O30   A    
C24   C40   A    
C122  C134  A    
C8    C176  S    
O22   Zn2   S    
C190  O76   S    
C7    C175  S    
C96   C115  A    
C103  C108  A    
C155  I19   S    
C55   C72   S    
C95   H15   S    
C7    O11   A    
C84   C127  A    
C65   O39   A    
O5    Zn3   S    
C167  I31   S    
O12   Zn8   S    
C88   C123  A    
C147  I11   S    
C34   C50   A    
C28   H28   S    
C114  C125  A    
C9    C141  A    
C46   I46   S    
C66   O34   A    
C180  O55   D    
C43   I43   S    
C139  I3    S    
C118  C121  A    
C78   C131  S    
C21   C57   A    
C8    O12   A    
C77   O25   A    
C178  O51   D    
C72   O44   A    
C75   O23   A    
C18   C34   A    
O21   Zn3   S    
C179  O54   S    
O10   Zn6   S    
C44   I44   S    
C89   C105  A    
C85   C101  A    
C69   O47   A    
C47   C55   A    
C115  C129  A    
C15   C63   S    
C120  C132  A    
O6    Zn2   S    
C46   C56   A    
C36   I36   S    
C16   C150  A    
C162  C174  A    
O19   Zn3   S    
C14   C146  A    
C166  C176  A    
C4    O4    A    
C100  C178  S    
C16   C148  A    
C80   O32   A    
C26   C62   A    
O17   Zn1   S    
C183  O62   S    
C95   C111  A    
C76   O22   A    
C97   C110  A    
C3    C171  S    
C81   C97   A    
C68   O36   A    
C23   C39   A    
C99   C112  A    
C1    C169  S    
C182  O60   S    
C9    C57   S    
C51   C68   S    
C96   H16   S    
C151  I15   S    
C12   C60   S    
C155  C171  A    
C13   C61   S    
C89   C118  A    
C99   C177  S    
C160  C170  A    
C91   C120  A    
C42   I42   S    
C16   C64   S    
C121  C133  A    
C20   H20   S    
