data_mof_unit_21873.cif
_audit_creation_date              2012-12-10T17:44:38-0500
_audit_creation_method            fapswitch 2.2
_symmetry_space_group_name_H-M    P1
_symmetry_Int_Tables_number       1
_space_group_crystal_system       triclinic
_cell_length_a                    10.020824
_cell_length_b                    10.904967
_cell_length_c                    15.873824
_cell_angle_alpha                 97.126013
_cell_angle_beta                  68.228184
_cell_angle_gamma                 90.199186
_cell_volume                      1596.75839782

loop_
_atom_site_label
_atom_site_type_symbol
_atom_type_description
_atom_site_fract_x
_atom_site_fract_y
_atom_site_fract_z
_atom_type_partial_charge
C1    C     C_R   0.505271 0.738005 0.491021 0.867875
C2    C     C_R   0.704342 0.424619 0.042462 0.035274
C3    C     C_R   0.585304 0.509026 0.087459 0.017447
C4    C     C_R   0.410467 0.489814 0.674071 0.939567
C5    C     C_R   0.809656 0.417532 0.079670 -0.155282
C6    C     C_R   0.782928 0.471015 0.168658 0.180913
C7    C     C_R   0.543474 0.542739 0.183300 0.115115
C8    C     C_R   0.294425 0.879900 0.443151 -0.128295
C9    C     C_R   0.163660 0.938511 0.457333 -0.171343
C10   C     C_R   0.125088 0.051558 0.512384 -0.140471
C11   C     C_R   0.223960 0.113138 0.543371 0.230451
C12   C     C_R   0.426621 0.498225 0.907628 -0.046578
C13   C     C_R   0.366784 0.062616 0.515661 0.006812
C14   C     C_R   0.391049 0.936751 0.479936 0.045591
C15   C     C_R   0.507734 0.871249 0.485835 -0.235422
C16   C     C_R   0.495251 0.261371 0.507562 0.900853
C17   C     C_R   0.617252 0.936124 0.502632 -0.179374
C18   C     C_R   0.609785 0.063878 0.519366 0.504952
C19   C     C_R   0.486431 0.129854 0.520771 -0.263379
C20   C     C_R   0.807454 0.709872 0.594293 0.094114
C21   C     C_R   0.861254 0.816128 0.626136 0.363632
C22   C     C_R   0.973741 0.800751 0.654985 0.295236
C23   C     C_R   0.312532 0.588279 0.951301 -0.002433
C24   C     C_R   0.069802 0.694735 0.615930 0.363105
C25   C     C_R   0.040542 0.596667 0.554382 -0.072380
C26   C     C_R   0.897697 0.598755 0.551156 -0.148834
C27   C     C_R   0.959276 0.414737 0.443920 0.514837
C28   C     C_R   0.589301 0.507169 0.325557 0.894002
C29   C     C_R   0.103368 0.414834 0.443849 0.135371
C30   C     C_R   0.358816 0.484570 0.774315 -0.241078
C31   C     C_R   0.641228 0.513443 0.225693 -0.190873
C32   C     C_R   0.199795 0.593461 0.918749 0.044293
C33   C     C_R   0.218872 0.527574 0.832156 0.423779
C34   C     C_R   0.511904 0.465276 0.956540 0.074587
C35   C     C_R   0.458959 0.457266 0.813741 0.450516
C36   C     C_3   0.710158 0.195608 0.604757 -0.144039
C37   C     C_3   0.941636 0.219906 0.369529 -0.142202
C38   C     C_3   0.734294 0.992995 0.724689 -0.152895
C39   C     C_3   0.908063 0.854776 0.811193 -0.278767
C40   C     C_3   0.239791 0.780155 0.677254 -0.086440
C41   C     C_3   0.006104 0.548247 0.807974 -0.152625
C42   C     C_3   0.709610 0.455314 0.751723 -0.342885
C43   C     C_R   0.504125 0.542811 0.036663 0.090247
C44   C     C_R   0.422382 0.655013 0.059971 -0.176370
C45   C     C_R   0.317254 0.671490 0.024486 -0.083245
C46   C     C_R   0.604327 0.358395 0.928658 -0.229739
C47   C     C_R   0.710867 0.346237 0.964075 0.142627
H1    H     H_    0.244878 0.752399 0.051916 0.186107
H2    H     H_    0.738595 0.290921 0.591281 0.209951
H3    H     H_    0.790624 0.170808 0.632198 0.176651
H4    H     H_    0.966974 0.189439 0.426317 0.152426
H5    H     H_    0.026150 0.181603 0.303325 0.185962
H6    H     H_    0.840539 0.179759 0.368441 0.216366
H7    H     H_    0.695530 0.931004 0.777664 0.166389
H8    H     H_    0.635167 0.045758 0.733275 0.158010
H9    H     H_    0.810507 0.058534 0.738823 0.219945
H10   H     H_    0.844208 0.770606 0.811752 0.123791
H11   H     H_    0.833288 0.931920 0.854247 0.205481
H12   H     H_    0.913342 0.371293 0.040075 0.212125
H13   H     H_    0.980115 0.844638 0.848471 0.196947
H14   H     H_    0.194205 0.802950 0.752207 0.157530
H15   H     H_    0.239299 0.861000 0.641342 0.187686
H16   H     H_    0.352326 0.755872 0.663194 0.160195
H17   H     H_    0.994108 0.519086 0.741965 0.186181
H18   H     H_    0.037477 0.644905 0.808930 0.157370
H19   H     H_    0.899997 0.542256 0.863457 0.169228
H20   H     H_    0.787478 0.394653 0.763763 0.199784
H21   H     H_    0.691620 0.543756 0.798608 0.169797
H22   H     H_    0.762575 0.474873 0.681025 0.209563
H23   H     H_    0.711833 0.887292 0.501325 0.228153
H24   H     H_    0.319293 0.790158 0.403610 0.192879
H25   H     H_    0.088172 0.892123 0.431502 0.172085
H26   H     H_    0.016551 0.089221 0.533619 0.182219
H27   H     H_    0.434499 0.727848 0.109104 0.174067
H28   H     H_    0.600368 0.287002 0.876142 0.209770
H29   H     H_    0.599077 0.195138 0.656802 0.173738
I1    I     I_    0.129906 0.249536 0.657041 -0.316909
I2    I     I_    0.599009 0.730165 0.700770 -0.474519
I3    I     I_    0.320633 0.606930 0.261768 -0.339210
I4    I     I_    0.264948 0.286894 0.346626 -0.280797
I5    I     I_    0.965539 0.484176 0.205676 -0.195655
I6    I     I_    0.867035 0.198611 0.903555 -0.362575
I7    I     I_    0.001270 0.691359 0.004040 -0.428913
N1    N     N_R   0.856800 0.501200 0.500850 -0.131643
N2    N     N_R   0.142390 0.501280 0.500880 -0.097046
O1    O     O_R   0.385310 0.683220 0.500000 -0.590876
O2    O     O_3   0.928093 0.349101 0.373375 -0.567098
O3    O     O_3   0.795007 0.931832 0.633631 -0.594692
O4    O     O_3   0.986517 0.888378 0.722802 -0.593205
O5    O     O_3   0.177981 0.674560 0.647354 -0.575833
O6    O     O_3   0.106385 0.466790 0.817266 -0.545270
O7    O     O_3   0.584587 0.389228 0.759102 -0.645362
O8    O     O_R   0.614640 0.683250 0.500010 -0.594620
O9    O     O_R   0.319840 0.499980 0.632240 -0.516245
O10   O     O_R   0.549160 0.500000 0.632250 -0.586013
O11   O     O_R   0.385360 0.316750 0.499990 -0.587270
O12   O     O_R   0.614690 0.316780 0.500000 -0.592506
O13   O     O_R   0.450840 0.500000 0.367750 -0.570711
O14   O     O_R   0.680160 0.500020 0.367760 -0.551542
O15   O     O_3   0.733613 0.118839 0.521730 -0.650041
Zn1   Zn    Zn3+2 0.346880 0.499980 0.499990 1.048819
Zn2   Zn    Zn3+2 0.653120 0.500020 0.500010 1.033086

loop_
_geom_bond_atom_site_label_1
_geom_bond_atom_site_label_2
_ccdc_geom_bond_type
C23   C45   A    
C27   C29   A    
N1    Zn2   S    
C9    H25   S    
N2    Zn1   S    
C12   C23   A    
C3    C43   A    
C40   H16   S    
C30   C35   A    
C27   N1    A    
C3    C7    A    
C33   O6    S    
C5    C6    A    
C37   H4    S    
C10   H26   S    
C16   O12   A    
C39   H10   S    
C40   H15   S    
C18   C19   A    
C47   I6    S    
C11   I1    S    
C38   H8    S    
O9    Zn1   S    
C8    C9    A    
C26   N1    A    
C34   C46   A    
C13   C14   A    
C36   H29   S    
C9    C10   A    
C29   N2    A    
O12   Zn2   S    
O10   Zn2   S    
C37   H6    S    
C35   O7    S    
C6    C31   A    
C21   O3    S    
C17   H23   S    
C6    I5    S    
C21   C22   A    
C42   H21   S    
C18   O15   S    
C46   H28   S    
C16   O11   A    
C7    C31   A    
C5    H12   S    
C24   C25   A    
C37   H5    S    
C13   C19   A    
C41   H18   S    
C25   C26   A    
C39   H11   S    
C42   H22   S    
C40   H14   S    
C38   O3    S    
C44   H27   S    
C43   C44   A    
C4    O10   A    
C38   H7    S    
C25   N2    A    
C17   C18   A    
C36   O15   S    
C12   C35   A    
C27   O2    S    
C1    C15   S    
C28   O14   A    
C41   O6    S    
C42   H20   S    
C22   C24   A    
C2    C5    A    
C12   C34   A    
C36   H3    S    
C44   C45   A    
C7    I3    S    
C45   H1    S    
C28   O13   A    
C1    O1    A    
C15   C17   A    
C32   I7    S    
C46   C47   A    
C8    H24   S    
C8    C14   A    
C30   C33   A    
C37   O2    S    
C28   C31   S    
C34   C43   A    
C24   O5    S    
O8    Zn2   S    
C41   H19   S    
C2    C47   A    
O13   Zn1   S    
C20   I2    S    
C23   C32   A    
C2    C3    A    
C32   C33   A    
C11   C13   A    
C4    O9    A    
C29   I4    S    
C20   C26   A    
C16   C19   S    
C39   H13   S    
C22   O4    S    
C42   O7    S    
C10   C11   A    
O14   Zn2   S    
C38   H9    S    
C20   C21   A    
C1    O8    A    
C14   C15   A    
C41   H17   S    
C40   O5    S    
O11   Zn1   S    
O1    Zn1   S    
C39   O4    S    
C4    C30   S    
C36   H2    S    
