data_mof_unit_67923.cif
_audit_creation_date              2013-03-05T16:14:16-0500
_audit_creation_method            fapswitch 2.2
_symmetry_space_group_name_H-M    P1
_symmetry_Int_Tables_number       1
_space_group_crystal_system       triclinic
_cell_length_a                    10.85884
_cell_length_b                    10.935544
_cell_length_c                    9.941214
_cell_angle_alpha                 87.541574
_cell_angle_beta                  87.507679
_cell_angle_gamma                 90.337151
_cell_volume                      1178.25486704

loop_
_atom_site_label
_atom_site_type_symbol
_atom_site_description
_atom_site_fract_x
_atom_site_fract_y
_atom_site_fract_z
_atom_type_partial_charge
O1    O     O_R   0.499990 0.316750 0.614620 -0.558903
O2    O     O_R   0.500010 0.683250 0.385380 -0.558715
O3    O     O_R   0.499990 0.316780 0.385290 -0.581438
O4    O     O_R   0.500010 0.683220 0.614710 -0.581433
C1    C     C_R   0.507535 0.259925 0.501920 0.937761
C2    C     C_R   0.492378 0.740064 0.498096 0.938062
O5    O     O_R   0.316760 0.500000 0.614660 -0.593889
O6    O     O_R   0.683240 0.500000 0.385340 -0.593978
O7    O     O_R   0.316760 0.500020 0.385330 -0.568930
O8    O     O_R   0.683240 0.499980 0.614670 -0.568753
C3    C     C_R   0.260442 0.502997 0.501488 0.915950
C4    C     C_R   0.739567 0.496976 0.498530 0.916149
Zn1   Zn    Zn3+2 0.500000 0.499980 0.653120 1.067216
Zn2   Zn    Zn3+2 0.500000 0.500020 0.346880 1.067235
C5    C     C_R   0.177889 0.911378 0.318990 0.289563
C6    C     C_R   0.821795 0.088305 0.679872 0.288726
C7    C     C_R   0.153371 0.807046 0.403014 -0.011731
C8    C     C_R   0.846639 0.192800 0.596201 -0.011745
C9    C     C_R   0.130698 0.693923 0.345840 -0.093811
C10   C     C_R   0.869314 0.305743 0.653789 -0.094280
C11   C     C_R   0.140264 0.685028 0.204615 0.239082
C12   C     C_R   0.859502 0.314292 0.795047 0.239570
C13   C     C_R   0.165987 0.789847 0.120825 0.077354
C14   C     C_R   0.833450 0.209328 0.878474 0.077731
C15   C     C_R   0.180804 0.903599 0.177785 0.071056
C16   C     C_R   0.818574 0.095764 0.821123 0.070671
C17   C     C_R   0.937126 0.593353 0.431113 0.090547
C18   C     C_R   0.062930 0.406604 0.569020 0.091127
C19   C     C_R   0.872188 0.496295 0.497490 -0.059444
C20   C     C_R   0.127839 0.503682 0.502628 -0.059483
C21   C     C_R   0.934200 0.404671 0.571090 -0.021778
C22   C     C_R   0.065839 0.595224 0.428935 -0.022290
C23   C     C_R   0.532392 0.067982 0.379595 0.111010
C24   C     C_R   0.467317 0.931975 0.620494 0.110368
C25   C     C_R   0.506442 0.943404 0.374803 0.261846
C26   C     C_R   0.493138 0.056595 0.625283 0.260961
C27   C     C_R   0.484470 0.873568 0.496225 -0.179045
C28   C     C_R   0.515253 0.126409 0.503846 -0.179084
C29   C     C_R   0.578493 0.573878 0.063648 0.266215
C30   C     C_R   0.421381 0.426242 0.936345 0.266210
C31   C     C_R   0.577146 0.575778 0.920870 0.281070
C32   C     C_R   0.422871 0.424205 0.079117 0.280975
N1    N     N_R   0.499970 0.499970 0.857200 -0.187402
N2    N     N_R   0.500030 0.500030 0.142800 -0.187403
N3    N     N_3   0.198854 0.010465 0.090366 -0.371351
H1    H     H_    0.129054 0.072800 0.112762 0.237302
H2    H     H_    0.283598 0.050278 0.109513 0.288219
N4    N     N_3   0.800110 0.988760 0.908213 -0.370777
H3    H     H_    0.869813 0.926315 0.885821 0.237595
H4    H     H_    0.715326 0.949227 0.888718 0.288167
Br1   Br    Br    0.682122 0.690180 0.818248 -0.341840
Br2   Br    Br    0.318047 0.309650 0.181677 -0.340687
Br3   Br    Br    0.201490 0.065212 0.398546 -0.532324
Br4   Br    Br    0.798230 0.934657 0.599816 -0.532752
N5    N     N_3   0.143761 0.818554 0.546195 -0.398969
H5    H     H_    0.052534 0.801276 0.579530 0.240251
H6    H     H_    0.197751 0.750398 0.590074 0.164430
N6    N     N_3   0.856431 0.181657 0.452968 -0.399030
H7    H     H_    0.947706 0.198892 0.419815 0.240326
H8    H     H_    0.802585 0.249983 0.409191 0.164618
Br5   Br    Br    0.101291 0.533511 0.125139 -0.425897
Br6   Br    Br    0.898242 0.465609 0.875090 -0.425890
N7    N     N_3   0.173209 0.783150 0.976995 -0.412180
H9    H     H_    0.088695 0.751084 0.945567 0.243654
H10   H     H_    0.241514 0.720253 0.951165 0.216566
N8    N     N_3   0.825826 0.215688 0.022335 -0.412034
H11   H     H_    0.910208 0.247631 0.054170 0.243313
H12   H     H_    0.757476 0.278525 0.048122 0.216518
N9    N     N_3   0.871330 0.693997 0.372329 -0.374566
H13   H     H_    0.894643 0.772815 0.420892 0.233078
H14   H     H_    0.903162 0.707394 0.272256 0.244960
N10   N     N_3   0.128812 0.305702 0.627072 -0.375029
H15   H     H_    0.106168 0.227546 0.577178 0.233004
H16   H     H_    0.096651 0.290934 0.726757 0.244707
N11   N     N_3   0.576392 0.136437 0.258965 -0.356925
H17   H     H_    0.658552 0.179556 0.280649 0.178869
H18   H     H_    0.603478 0.080655 0.180914 0.255153
N12   N     N_3   0.423449 0.863444 0.741134 -0.357138
H19   H     H_    0.341353 0.820190 0.719485 0.178849
H20   H     H_    0.396291 0.919154 0.819215 0.255076
Br7   Br    Br    0.479979 0.879065 0.199595 -0.477838
Br8   Br    Br    0.519082 0.121081 0.800543 -0.478138
Br9   Br    Br    0.696717 0.671648 0.143833 -0.362385
Br10  Br    Br    0.302518 0.329129 0.856219 -0.361825

loop_
_geom_bond_atom_site_label_1
_geom_bond_atom_site_label_2
_geom_bond_distance
_ccdc_geom_bond_type
N8    H12   1.045635 S    
N5    H5    1.044376 S    
N7    H10   1.045838 S    
C4    C19   1.439759 S    
C17   C19   1.396368 A    
C24   C27   1.420531 A    
C30   Br10  1.890521 S    
O7    Zn2   2.009767 S    
C25   Br7   1.938474 S    
C29   C31   1.419361 A    
C18   N10   1.432814 S    
N3    H1    1.045538 S    
O5    C3    1.302979 A    
O1    C1    1.304013 A    
C5    Br3   1.909931 S    
C9    C11   1.410844 A    
C14   C16   1.399928 A    
N12   H20   1.040873 S    
C5    C15   1.408959 A    
N6    H8    1.043523 S    
C8    C10   1.408252 A    
O4    Zn1   2.023731 S    
N9    H14   1.042909 S    
C23   C25   1.392773 A    
C23   N11   1.447664 S    
C30   N1    1.369835 A    
C3    C20   1.439531 S    
C26   Br8   1.938554 S    
C7    N5    1.433666 S    
C11   Br5   1.918823 S    
C17   N9    1.433057 S    
C14   N8    1.433651 S    
C13   N7    1.433624 S    
N8    H11   1.045320 S    
C1    C28   1.462313 S    
C31   N1    1.368640 A    
O2    C2    1.304119 A    
C32   N2    1.368702 A    
C9    C22   1.485702 S    
C8    N6    1.433722 S    
N3    H2    1.044138 S    
C11   C13   1.407070 A    
C6    C16   1.408989 A    
O4    C2    1.297833 A    
N12   H19   1.041740 S    
N10   H15   1.039931 S    
N6    H7    1.044299 S    
N11   H17   1.041754 S    
C12   Br6   1.918902 S    
N11   H18   1.040928 S    
O6    C4    1.303190 A    
C2    C27   1.462336 S    
O7    C3    1.284731 A    
O3    Zn2   2.023730 S    
O8    C4    1.284639 A    
N10   H16   1.041924 S    
N4    H3    1.045576 S    
C10   C12   1.410829 A    
N5    H6    1.043541 S    
C12   C14   1.406956 A    
O1    Zn1   2.056009 S    
C26   C28   1.411202 A    
C15   N3    1.433434 S    
Zn1   N1    2.028784 S    
Zn2   N2    2.028784 S    
C5    C7    1.402013 A    
O6    Zn2   2.042435 S    
C25   C27   1.411001 A    
C17   C22   1.396921 A    
C18   C21   1.397134 A    
C30   C32   1.419349 A    
O3    C1    1.297923 A    
O8    Zn1   2.009765 S    
C29   N2    1.369792 A    
C16   N4    1.433264 S    
C23   C28   1.420467 A    
C18   C20   1.396444 A    
C29   Br9   1.890132 S    
C19   C21   1.407337 A    
C24   N12   1.447718 S    
C20   C22   1.407124 A    
N4    H4    1.044072 S    
C7    C9    1.408151 A    
C24   C26   1.392948 A    
C13   C15   1.399970 A    
N9    H13   1.041060 S    
O2    Zn2   2.056009 S    
C6    Br4   1.910341 S    
N7    H9    1.045623 S    
O5    Zn1   2.042438 S    
C6    C8    1.402051 A    
C31   Br1   1.917787 S    
C32   Br2   1.917605 S    
C10   C21   1.485615 S    
