data_mof_unit_41579.cif
_audit_creation_date              2012-12-11T14:13:17-0500
_audit_creation_method            fapswitch 2.2
_symmetry_space_group_name_H-M    P1
_symmetry_Int_Tables_number       1
_space_group_crystal_system       triclinic
_cell_length_a                    11.729802
_cell_length_b                    18.864706
_cell_length_c                    10.225
_cell_angle_alpha                 89.945217
_cell_angle_beta                  111.093661
_cell_angle_gamma                 89.469935
_cell_volume                      2110.85996753

loop_
_atom_site_label
_atom_site_type_symbol
_atom_type_description
_atom_site_fract_x
_atom_site_fract_y
_atom_site_fract_z
_atom_type_partial_charge
C1    C     C_R   0.084450 0.643758 0.144296 0.550053
C2    C     C_R   0.925231 0.354117 0.858586 0.529267
C3    C     C_R   0.917262 0.144019 0.856423 0.548644
C4    C     C_R   0.074743 0.854196 0.141752 0.530528
C5    C     C_R   0.422629 0.468704 0.555717 0.011842
C6    C     C_R   0.529189 0.521052 0.370682 -0.000150
C7    C     C_R   0.590579 0.965667 0.452688 0.026671
C8    C     C_R   0.485171 0.018600 0.640227 0.001884
C9    C     C_2   0.361143 0.938423 0.023934 -0.126577
C10   C     C_2   0.598216 0.072127 0.061324 -0.104745
C11   C     C_2   0.596733 0.436873 0.003406 -0.121373
C12   C     C_2   0.425515 0.576798 0.931831 -0.113855
C13   C     C_2   0.468940 0.969692 0.043509 -0.143912
C14   C     C_2   0.489223 0.047470 0.055396 -0.161595
C15   C     C_2   0.484620 0.448869 0.012268 -0.136498
C16   C     C_2   0.420133 0.518518 0.006137 -0.166909
C17   C     C_2   0.007662 0.922560 0.117665 0.243253
C18   C     C_2   0.960633 0.071362 0.871460 0.234667
C19   C     C_2   0.993840 0.421705 0.885129 0.242856
C20   C     C_2   0.042504 0.571220 0.130987 0.233165
C21   C     C_2   0.003634 0.959825 0.003841 -0.107420
C22   C     C_2   0.963472 0.033829 0.984285 -0.119229
C23   C     C_2   0.994664 0.459880 0.997023 -0.103602
C24   C     C_2   0.037128 0.533349 0.017430 -0.119030
C25   C     C_R   0.434544 0.639499 0.373893 0.554254
C26   C     C_R   0.534175 0.355095 0.570476 0.545501
C27   C     C_R   0.566680 0.139211 0.626132 0.554505
C28   C     C_R   0.466828 0.855074 0.429864 0.544886
C29   C     C_R   0.379111 0.645036 0.965679 0.544782
C30   C     C_R   0.640090 0.362947 0.995223 0.542251
C31   C     C_R   0.622777 0.145573 0.036032 0.548241
C32   C     C_R   0.350097 0.860285 0.014783 0.575995
C33   C     C_R   0.500471 0.424797 0.509912 -0.016215
C34   C     C_R   0.443373 0.562981 0.405627 -0.032313
C35   C     C_R   0.508872 0.923072 0.495903 -0.014814
C36   C     C_R   0.563431 0.061947 0.597716 -0.029108
C37   C     C_R   0.387898 0.452086 0.671769 -0.105563
C38   C     C_R   0.593381 0.547068 0.289210 -0.094275
C39   C     C_R   0.634907 0.946472 0.344085 -0.093310
C40   C     C_R   0.424902 0.043823 0.726283 -0.100787
C41   C     C_R   0.291325 0.485204 0.693274 -0.141699
C42   C     C_R   0.683050 0.508470 0.267107 -0.147288
C43   C     C_R   0.723409 0.983612 0.316375 -0.155685
C44   C     C_R   0.335741 0.005823 0.748762 -0.147342
C45   C     C_R   0.235678 0.541736 0.611834 -0.119760
C46   C     C_R   0.707273 0.439901 0.312797 -0.140967
C47   C     C_R   0.770021 0.043095 0.389756 -0.113755
C48   C     C_R   0.313762 0.937360 0.704750 -0.134739
C49   C     C_R   0.278033 0.564694 0.509392 -0.049351
C50   C     C_R   0.628806 0.408064 0.366134 -0.080466
C51   C     C_R   0.726082 0.065536 0.490937 -0.043765
C52   C     C_R   0.390540 0.905417 0.648275 -0.082021
C53   C     C_R   0.378784 0.532387 0.485938 0.015720
C54   C     C_R   0.550421 0.450038 0.413861 -0.000194
C55   C     C_R   0.628797 0.031377 0.517482 0.020730
C56   C     C_R   0.464513 0.947786 0.596790 -0.000369
Cr1   Cr    Cr6+3 0.187610 0.750000 0.979860 0.985964
Cr2   Cr    Cr6+3 0.812390 0.250000 0.020140 0.989383
Cr3   Cr    Cr6+3 0.245810 0.750000 0.341640 0.963063
Cr4   Cr    Cr6+3 0.754190 0.250000 0.658360 0.967239
Cr5   Cr    Cr6+3 0.485760 0.750000 0.219910 0.973929
Cr6   Cr    Cr6+3 0.514240 0.250000 0.780090 0.976205
H1    H     H_    0.262615 0.468313 0.777265 0.181561
H2    H     H_    0.715735 0.528121 0.190889 0.096600
H3    H     H_    0.754638 0.965433 0.235229 0.164615
H4    H     H_    0.295900 0.027711 0.816984 0.102978
H5    H     H_    0.164151 0.569678 0.634219 0.122966
H6    H     H_    0.774811 0.409539 0.288355 0.144743
H7    H     H_    0.837631 0.072749 0.364260 0.121370
H8    H     H_    0.243208 0.908525 0.723257 0.149700
H9    H     H_    0.435517 0.415339 0.751905 0.178843
H10   H     H_    0.572921 0.594916 0.231082 0.180706
H11   H     H_    0.602709 0.905379 0.269070 0.172822
H12   H     H_    0.441257 0.092916 0.777363 0.181110
H13   H     H_    0.228555 0.607439 0.451167 0.201823
H14   H     H_    0.629897 0.351025 0.364017 0.156095
H15   H     H_    0.772882 0.109504 0.545572 0.198750
H16   H     H_    0.388730 0.848375 0.645574 0.155771
H17   H     H_    0.414764 0.083775 0.048284 0.129565
H18   H     H_    0.544625 0.936714 0.040996 0.150855
H19   H     H_    0.360785 0.520842 0.066877 0.138740
H20   H     H_    0.437657 0.403918 0.035403 0.158939
H21   H     H_    0.668903 0.035189 0.059912 0.111259
H22   H     H_    0.280996 0.970202 0.014913 0.069743
H23   H     H_    0.483023 0.577007 0.869086 0.112311
H24   H     H_    0.647819 0.480239 0.982449 0.069455
H25   H     H_    0.941961 0.059337 0.068000 0.164439
H26   H     H_    0.043135 0.938396 0.930784 0.147439
H27   H     H_    0.057307 0.558592 0.932719 0.163782
H28   H     H_    0.951012 0.439988 0.067047 0.143362
O1    O     O_R   0.267710 0.668200 0.902110 -0.505727
O2    O     O_R   0.732290 0.331800 0.097890 -0.525715
O3    O     O_R   0.732290 0.168200 0.097890 -0.512766
O4    O     O_R   0.267710 0.831800 0.902110 -0.536621
O5    O     O_R   0.099480 0.674460 0.038850 -0.531552
O6    O     O_R   0.900520 0.325540 0.961150 -0.531926
O7    O     O_R   0.900520 0.174460 0.961150 -0.532561
O8    O     O_R   0.099480 0.825540 0.038850 -0.538319
O9    O     O_R   0.116720 0.669210 0.267660 -0.549394
O10   O     O_R   0.883280 0.330790 0.732340 -0.536783
O11   O     O_R   0.883280 0.169210 0.732340 -0.548699
O12   O     O_R   0.116720 0.830790 0.267660 -0.534894
O13   O     O_R   0.366710 0.675440 0.427590 -0.519325
O14   O     O_R   0.633290 0.324560 0.572410 -0.514919
O15   O     O_R   0.633290 0.175440 0.572410 -0.519576
O16   O     O_R   0.366710 0.824560 0.427590 -0.514428
O17   O     O_R   0.534870 0.669390 0.371760 -0.531806
O18   O     O_R   0.465130 0.330610 0.628240 -0.535241
O19   O     O_R   0.465130 0.169390 0.628240 -0.530993
O20   O     O_R   0.534870 0.830610 0.371760 -0.543626
O21   O     O_R   0.453080 0.674480 0.075160 -0.536405
O22   O     O_R   0.546920 0.325520 0.924840 -0.517387
O23   O     O_R   0.546920 0.174480 0.924840 -0.537995
O24   O     O_R   0.453080 0.825520 0.075160 -0.515506
O25   O     O_3   0.306390 0.750000 0.180470 -0.292672
O26   O     O_3   0.693610 0.250000 0.819530 -0.283950
O27   O     O_3   0.967769 0.038348 0.753474 -0.583048
C57   C     C_3   0.074382 0.060248 0.731644 -0.003024
H29   H     H_    0.102518 0.013442 0.685340 0.155315
H30   H     H_    0.146926 0.075295 0.832475 0.094927
C58   C     C_3   0.055793 0.123225 0.628947 -0.264286
H31   H     H_    0.963291 0.123324 0.549787 0.178027
H32   H     H_    0.069005 0.173902 0.687544 0.164270
C59   C     C_3   0.145609 0.123142 0.552024 -0.474922
H33   H     H_    0.237411 0.137892 0.625433 0.177808
H34   H     H_    0.116517 0.163392 0.466784 0.145400
H35   H     H_    0.149305 0.070704 0.504521 0.153095
O28   O     O_3   0.948027 0.949806 0.204298 -0.619890
C60   C     C_3   0.006188 0.935051 0.349922 0.023557
H36   H     H_    0.107646 0.934450 0.384089 0.157366
H37   H     H_    0.988287 0.980418 0.408571 0.136749
C61   C     C_3   0.952694 0.868187 0.394381 -0.235653
H38   H     H_    0.864970 0.880379 0.406259 0.154390
H39   H     H_    0.932199 0.826249 0.313429 0.183857
C62   C     C_3   0.036922 0.838223 0.534640 -0.438006
H40   H     H_    0.129176 0.826583 0.532551 0.169247
H41   H     H_    0.998529 0.788159 0.557485 0.131616
H42   H     H_    0.043288 0.876527 0.619235 0.149365
O29   O     O_3   0.039060 0.538794 0.251317 -0.583831
C63   C     C_3   0.934544 0.562215 0.277623 -0.001213
H43   H     H_    0.909682 0.515825 0.327060 0.159043
H44   H     H_    0.860420 0.578001 0.178037 0.099413
C64   C     C_3   0.953012 0.625600 0.379222 -0.263749
H45   H     H_    0.046825 0.627539 0.454286 0.177637
H46   H     H_    0.933545 0.676042 0.318547 0.163467
C65   C     C_3   0.868992 0.624674 0.463577 -0.476083
H47   H     H_    0.774854 0.639353 0.395024 0.178619
H48   H     H_    0.899880 0.664736 0.548286 0.143881
H49   H     H_    0.870208 0.572038 0.512665 0.153800
O30   O     O_3   0.060185 0.446665 0.804528 -0.614723
C66   C     C_3   0.007718 0.431739 0.659094 0.020897
H50   H     H_    0.028067 0.476461 0.601407 0.136968
H51   H     H_    0.906072 0.432095 0.618932 0.158512
C67   C     C_3   0.065061 0.364246 0.621453 -0.234311
H52   H     H_    0.158804 0.374642 0.625754 0.159827
H53   H     H_    0.074045 0.320877 0.697910 0.181910
C68   C     C_3   0.991321 0.338294 0.474415 -0.446205
H54   H     H_    0.897409 0.324217 0.466641 0.161465
H55   H     H_    0.035901 0.290336 0.450902 0.135637
H56   H     H_    0.987417 0.379921 0.395993 0.154524

loop_
_geom_bond_atom_site_label_1
_geom_bond_atom_site_label_2
_ccdc_geom_bond_type
C62   H42   S    
C32   O4    A    
C68   H54   S    
C5    C37   A    
C12   C29   S    
C64   C65   S    
Cr3   O9    S    
C44   H4    S    
C63   C64   S    
C7    C55   A    
O28   C60   S    
C1    O9    A    
C62   H40   S    
Cr1   O25   S    
Cr6   O26   S    
C50   C54   A    
C12   H23   S    
C20   O29   S    
C5    C53   A    
Cr2   O3    S    
C63   H44   S    
C38   C42   A    
C4    O8    A    
C42   C46   A    
Cr6   O18   S    
C27   O15   A    
C11   H24   S    
C15   C16   S    
C10   H21   S    
C19   O30   S    
C3    C18   S    
C62   H41   S    
C8    C36   A    
C66   C67   S    
Cr2   O6    S    
C57   H29   S    
C47   H7    S    
C58   C59   S    
C9    C13   D    
C9    C32   S    
C26   O14   A    
C11   C15   D    
C10   C31   S    
C20   C24   D    
C11   C30   S    
C28   O16   A    
C61   H38   S    
C4    O12   A    
Cr5   O25   S    
C66   H50   S    
C6    C38   A    
C40   C44   A    
C67   H53   S    
C43   H3    S    
C25   C34   S    
C60   C61   S    
C3    O11   A    
C66   H51   S    
C35   C56   A    
C13   H18   S    
C2    O10   A    
C68   H55   S    
C13   C14   S    
C24   H27   S    
Cr2   O26   S    
C8    C56   A    
Cr2   O7    S    
C6    C54   A    
C52   H16   S    
Cr5   O20   S    
C15   H20   S    
C65   H48   S    
C38   H10   S    
Cr3   O16   S    
C58   H32   S    
C12   C16   D    
C44   C48   A    
C63   H43   S    
C28   C35   S    
Cr6   O23   S    
C30   O2    A    
C10   C14   D    
C26   O18   A    
C25   O13   A    
C39   C43   A    
C28   O20   A    
C31   O3    A    
C17   C21   D    
C6    C34   A    
C5    C33   A    
C57   C58   S    
C19   C23   D    
C51   H15   S    
C46   H6    S    
C50   H14   S    
C65   H49   S    
C3    O7    A    
C26   C33   S    
C45   C49   A    
C1    O5    A    
C49   H13   S    
C67   H52   S    
C23   H28   S    
C23   C24   S    
C22   H25   S    
C18   O27   S    
C58   H31   S    
C67   C68   S    
C59   H35   S    
C4    C17   S    
C61   H39   S    
C68   H56   S    
Cr1   O4    S    
C37   H9    S    
Cr4   O26   S    
C41   H1    S    
Cr4   O11   S    
Cr5   O21   S    
C42   H2    S    
C29   O1    A    
C25   O17   A    
C59   H34   S    
C65   H47   S    
C33   C54   A    
C64   H46   S    
C1    C20   S    
C7    C39   A    
Cr1   O1    S    
C2    C19   S    
C18   C22   D    
Cr3   O12   S    
C7    C35   A    
C29   O21   A    
C48   H8    S    
Cr4   O10   S    
C47   C51   A    
O29   C63   S    
C17   O28   S    
C45   H5    S    
C27   C36   S    
C46   C50   A    
Cr3   O13   S    
C2    O6    A    
C60   H36   S    
C36   C55   A    
Cr4   O14   S    
O27   C57   S    
Cr6   O19   S    
Cr2   O2    S    
C61   C62   S    
C49   C53   A    
Cr1   O8    S    
C16   H19   S    
C40   H12   S    
C51   C55   A    
C39   H11   S    
C37   C41   A    
Cr5   O17   S    
C57   H30   S    
C21   H26   S    
C14   H17   S    
C9    H22   S    
C52   C56   A    
C48   C52   A    
Cr6   O22   S    
C27   O19   A    
C34   C53   A    
Cr3   O25   S    
Cr1   O5    S    
C30   O22   A    
Cr5   O24   S    
C41   C45   A    
O30   C66   S    
C8    C40   A    
C32   O24   A    
C21   C22   S    
C43   C47   A    
C31   O23   A    
Cr4   O15   S    
C64   H45   S    
C59   H33   S    
C60   H37   S    
