data_mof_unit_16247.cif
_audit_creation_date              2013-03-05T15:54:52-0500
_audit_creation_method            fapswitch 2.2
_symmetry_space_group_name_H-M    P1
_symmetry_Int_Tables_number       1
_space_group_crystal_system       triclinic
_cell_length_a                    17.310656
_cell_length_b                    17.245479
_cell_length_c                    17.34026
_cell_angle_alpha                 89.995854
_cell_angle_beta                  89.994955
_cell_angle_gamma                 89.616006
_cell_volume                      5176.48114372

loop_
_atom_site_label
_atom_site_type_symbol
_atom_site_description
_atom_site_fract_x
_atom_site_fract_y
_atom_site_fract_z
_atom_type_partial_charge
C1    C     C_R   0.393323 0.302134 0.899715 -0.112245
C2    C     C_R   0.663817 0.427069 0.852936 -0.123522
C3    C     C_R   0.606628 0.697845 0.899588 -0.112674
C4    C     C_R   0.336191 0.572920 0.852943 -0.123240
C5    C     C_R   0.427136 0.664122 0.146744 -0.142655
C6    C     C_R   0.697458 0.605065 0.101275 -0.112431
C7    C     C_R   0.572855 0.335874 0.146749 -0.142611
C8    C     C_R   0.302540 0.394932 0.101282 -0.112124
C9    C     C_R   0.924396 0.832978 0.354650 -0.118967
C10   C     C_R   0.196744 0.895851 0.395060 -0.175698
C11   C     C_R   0.075594 0.167006 0.354636 -0.118938
C12   C     C_R   0.803261 0.104143 0.395053 -0.175724
C13   C     C_R   0.893823 0.197643 0.601981 -0.147572
C14   C     C_R   0.171343 0.079518 0.643217 -0.127439
C15   C     C_R   0.106132 0.802361 0.602039 -0.148289
C16   C     C_R   0.828835 0.920624 0.643345 -0.128201
H1    H     H_    0.420199 0.245626 0.901799 0.223863
H2    H     H_    0.705659 0.468798 0.833835 0.147730
H3    H     H_    0.579754 0.754354 0.901669 0.223980
H4    H     H_    0.294353 0.531177 0.833856 0.147480
H5    H     H_    0.467046 0.707722 0.165201 0.176695
H6    H     H_    0.752985 0.577555 0.093971 0.207157
H7    H     H_    0.532949 0.292266 0.165209 0.176738
H8    H     H_    0.247014 0.422442 0.093977 0.207222
H9    H     H_    0.964182 0.788775 0.336587 0.168593
H10   H     H_    0.252295 0.923407 0.399778 0.210880
H11   H     H_    0.035803 0.211201 0.336566 0.168579
H12   H     H_    0.747711 0.076580 0.399768 0.210848
H13   H     H_    0.918409 0.253951 0.592541 0.214618
H14   H     H_    0.221953 0.046548 0.658391 0.199149
H15   H     H_    0.081494 0.746061 0.592677 0.214467
H16   H     H_    0.778241 0.953600 0.658559 0.199120
N1    N     N_R   0.425360 0.368540 0.922560 -0.087688
N2    N     N_R   0.631460 0.425360 0.922560 -0.044133
N3    N     N_R   0.574640 0.631460 0.922560 -0.087636
N4    N     N_R   0.368540 0.574640 0.922560 -0.044063
N5    N     N_R   0.425360 0.631460 0.077440 -0.050763
N6    N     N_R   0.631460 0.574640 0.077440 -0.088376
N7    N     N_R   0.574640 0.368540 0.077440 -0.050755
N8    N     N_R   0.368540 0.425360 0.077440 -0.088443
N9    N     N_R   0.925360 0.868540 0.422560 -0.051233
N10   N     N_R   0.131460 0.925360 0.422560 -0.082423
N11   N     N_R   0.074640 0.131460 0.422560 -0.051250
N12   N     N_R   0.868540 0.074640 0.422560 -0.082419
N13   N     N_R   0.925360 0.131460 0.577440 -0.081490
N14   N     N_R   0.131460 0.074640 0.577440 -0.055826
N15   N     N_R   0.074640 0.868540 0.577440 -0.081518
N16   N     N_R   0.868540 0.925360 0.577440 -0.055614
C17   C     C_3   0.865360 0.317795 0.734106 -0.363490
C18   C     C_3   0.752113 0.714527 0.653025 -0.443623
C19   C     C_3   0.134589 0.682297 0.734282 -0.364161
C20   C     C_3   0.246356 0.287234 0.653681 -0.443174
C21   C     C_3   0.918988 0.700142 0.218777 -0.457605
C22   C     C_3   0.700073 0.133898 0.248257 -0.452165
C23   C     C_3   0.080929 0.299773 0.218632 -0.457850
C24   C     C_3   0.300033 0.866111 0.248341 -0.452006
C25   C     C_3   0.349039 0.815720 0.196275 -0.399219
C26   C     C_3   0.128257 0.347521 0.164170 -0.411804
C27   C     C_3   0.651055 0.184288 0.196203 -0.399137
C28   C     C_3   0.871675 0.652406 0.164307 -0.412217
C29   C     C_3   0.292108 0.336187 0.709851 -0.559692
C30   C     C_3   0.184424 0.633859 0.787258 -0.420365
C31   C     C_3   0.706122 0.665520 0.708983 -0.557985
C32   C     C_3   0.815542 0.366244 0.787083 -0.420744
H17   H     H_    0.882463 0.261014 0.759537 0.222105
H18   H     H_    0.717251 0.760829 0.624611 0.219107
H19   H     H_    0.117504 0.739096 0.759682 0.221797
H20   H     H_    0.281567 0.241636 0.624601 0.218462
H21   H     H_    0.961027 0.738526 0.189151 0.206942
H22   H     H_    0.759650 0.124054 0.226126 0.202428
H23   H     H_    0.038933 0.261358 0.188999 0.206963
H24   H     H_    0.240471 0.876005 0.226201 0.202429
H25   H     H_    0.407198 0.840318 0.185228 0.250445
H26   H     H_    0.130393 0.409648 0.180811 0.263028
H27   H     H_    0.592914 0.159662 0.185136 0.250422
H28   H     H_    0.869499 0.590285 0.180970 0.263121
H29   H     H_    0.280661 0.399439 0.703889 0.211664
H30   H     H_    0.164506 0.572876 0.791964 0.226562
H31   H     H_    0.716789 0.602202 0.702290 0.211460
H32   H     H_    0.835443 0.427237 0.791729 0.226845
H33   H     H_    0.912653 0.351793 0.707472 0.251335
H34   H     H_    0.789053 0.679469 0.613661 0.243238
H35   H     H_    0.087270 0.648302 0.707704 0.251262
H36   H     H_    0.208842 0.322295 0.614882 0.244195
H37   H     H_    0.943385 0.665501 0.267148 0.259679
H38   H     H_    0.669262 0.081258 0.267759 0.261440
H39   H     H_    0.056477 0.334414 0.266975 0.259699
H40   H     H_    0.330869 0.918721 0.267872 0.261442
H41   H     H_    0.317681 0.795510 0.144092 0.216045
H42   H     H_    0.114581 0.336826 0.102393 0.222046
H43   H     H_    0.682418 0.204548 0.144034 0.216036
H44   H     H_    0.885402 0.663081 0.102533 0.221760
H45   H     H_    0.354213 0.319497 0.713332 0.229683
H46   H     H_    0.196798 0.663007 0.843093 0.227872
H47   H     H_    0.644228 0.682910 0.713025 0.230418
H48   H     H_    0.803216 0.337123 0.842949 0.227879
C33   C     C_R   0.420173 0.670330 0.855242 0.334183
C34   C     C_R   0.302214 0.392759 0.901949 0.272326
C35   C     C_R   0.579812 0.329681 0.855242 0.334329
C36   C     C_R   0.697747 0.607221 0.901728 0.272644
C37   C     C_R   0.391669 0.302729 0.102116 0.307036
C38   C     C_R   0.330103 0.579956 0.144880 0.352705
C39   C     C_R   0.608329 0.697267 0.102114 0.307176
C40   C     C_R   0.669894 0.420037 0.144872 0.352658
C41   C     C_R   0.891487 0.196654 0.395370 0.301022
C42   C     C_R   0.825761 0.917141 0.358354 0.320668
C43   C     C_R   0.108513 0.803346 0.395375 0.301148
C44   C     C_R   0.174230 0.082847 0.358337 0.320668
C45   C     C_R   0.919002 0.827729 0.642114 0.352965
C46   C     C_R   0.803386 0.108242 0.604881 0.315451
C47   C     C_R   0.081133 0.172380 0.642012 0.353566
C48   C     C_R   0.196596 0.891751 0.604900 0.315323
N17   N     N_R   0.425340 0.631500 0.922560 -0.083736
N18   N     N_R   0.368500 0.425340 0.922560 -0.102283
N19   N     N_R   0.574660 0.368500 0.922560 -0.083736
N20   N     N_R   0.631500 0.574660 0.922560 -0.102257
N21   N     N_R   0.425340 0.368500 0.077440 -0.102516
N22   N     N_R   0.368500 0.574660 0.077440 -0.082564
N23   N     N_R   0.574660 0.631500 0.077440 -0.102499
N24   N     N_R   0.631500 0.425340 0.077440 -0.082579
N25   N     N_R   0.925340 0.131500 0.422560 -0.101054
N26   N     N_R   0.868500 0.925340 0.422560 -0.081896
N27   N     N_R   0.074660 0.868500 0.422560 -0.101039
N28   N     N_R   0.131500 0.074660 0.422560 -0.081891
N29   N     N_R   0.925340 0.868500 0.577440 -0.086274
N30   N     N_R   0.868500 0.074660 0.577440 -0.099447
N31   N     N_R   0.074660 0.131500 0.577440 -0.086455
N32   N     N_R   0.131500 0.925340 0.577440 -0.099453
Ni1   Ni    Ni4+2 0.500000 0.369720 0.000000 0.294534
Ni2   Ni    Ni4+2 0.630280 0.500000 0.000000 0.296026
Ni3   Ni    Ni4+2 0.500000 0.630280 0.000000 0.294553
Ni4   Ni    Ni4+2 0.369720 0.500000 0.000000 0.296062
Ni5   Ni    Ni4+2 0.000000 0.869720 0.500000 0.293631
Ni6   Ni    Ni4+2 0.130280 0.000000 0.500000 0.294592
Ni7   Ni    Ni4+2 1.000000 0.130280 0.500000 0.293600
Ni8   Ni    Ni4+2 0.869720 0.000000 0.500000 0.294593
C49   C     C_R   0.316680 0.316065 0.887431 -0.117983
C50   C     C_R   0.635057 0.366754 0.809458 -0.130853
C51   C     C_R   0.683243 0.683903 0.887165 -0.118359
C52   C     C_R   0.364935 0.633247 0.809467 -0.130905
C53   C     C_R   0.367394 0.635210 0.190259 -0.126359
C54   C     C_R   0.685759 0.682031 0.117082 -0.095661
C55   C     C_R   0.632594 0.364784 0.190258 -0.126388
C56   C     C_R   0.314236 0.317961 0.117081 -0.095584
C57   C     C_R   0.863080 0.861571 0.312141 -0.120363
C58   C     C_R   0.184984 0.819373 0.377553 -0.090724
C59   C     C_R   0.136903 0.138406 0.312115 -0.120320
C60   C     C_R   0.815022 0.180622 0.377539 -0.090694
C61   C     C_R   0.817828 0.185695 0.620448 -0.107530
C62   C     C_R   0.140539 0.140111 0.684683 -0.138889
C63   C     C_R   0.182126 0.814304 0.620498 -0.107183
C64   C     C_R   0.859730 0.860123 0.684891 -0.138991
C65   C     C_R   0.751963 0.357095 0.729284 0.094545
C66   C     C_R   0.754451 0.699851 0.771633 0.199818
C67   C     C_R   0.247975 0.642951 0.729404 0.094071
C68   C     C_R   0.244573 0.300627 0.772421 0.201458
C69   C     C_R   0.802410 0.696961 0.191463 0.154922
C70   C     C_R   0.650156 0.242987 0.259908 0.125415
C71   C     C_R   0.197524 0.303007 0.191380 0.154790
C72   C     C_R   0.349879 0.756985 0.259954 0.125403
C73   C     C_R   0.304974 0.802361 0.306627 0.137284
C74   C     C_R   0.153948 0.258643 0.241131 0.148566
C75   C     C_R   0.695071 0.197613 0.306571 0.137343
C76   C     C_R   0.845974 0.741317 0.241218 0.148528
C77   C     C_R   0.203552 0.257212 0.722193 0.265196
C78   C     C_R   0.202779 0.687624 0.681813 0.096651
C79   C     C_R   0.795651 0.743344 0.721583 0.264313
C80   C     C_R   0.797149 0.312414 0.681685 0.096330
C81   C     C_R   0.673643 0.340486 0.738979 0.068639
C82   C     C_R   0.731693 0.730907 0.841742 0.100781
C83   C     C_R   0.326311 0.659528 0.739022 0.068792
C84   C     C_R   0.268139 0.269109 0.842055 0.100344
C85   C     C_R   0.747216 0.732041 0.144241 0.031927
C86   C     C_R   0.660501 0.323162 0.257729 0.061824
C87   C     C_R   0.252762 0.267940 0.144197 0.032103
C88   C     C_R   0.339490 0.676816 0.257743 0.061811
C89   C     C_R   0.247511 0.769182 0.351846 0.058602
C90   C     C_R   0.164587 0.178414 0.243691 0.050892
C91   C     C_R   0.752498 0.230801 0.351813 0.058626
C92   C     C_R   0.835372 0.821550 0.243746 0.050954
C93   C     C_R   0.182998 0.181898 0.740826 0.067419
C94   C     C_R   0.234121 0.751103 0.643269 0.059032
C95   C     C_R   0.817131 0.818241 0.740862 0.068465
C96   C     C_R   0.765817 0.248898 0.643204 0.058986
C97   C     C_R   0.251065 0.688768 0.365609 -0.115862
C98   C     C_R   0.208840 0.141914 0.186233 -0.096459
C99   C     C_R   0.748902 0.311207 0.365601 -0.115822
C100  C     C_R   0.791143 0.858056 0.186275 -0.096397
C101  C     C_R   0.200749 0.150826 0.813515 -0.151565
C102  C     C_R   0.315050 0.753194 0.634887 -0.108644
C103  C     C_R   0.800300 0.848693 0.814026 -0.151065
C104  C     C_R   0.684885 0.246776 0.634884 -0.108566
C105  C     C_R   0.638380 0.293251 0.683126 -0.124877
C106  C     C_R   0.756495 0.804437 0.865230 -0.138861
C107  C     C_R   0.361564 0.706724 0.683120 -0.124699
C108  C     C_R   0.244417 0.195015 0.864881 -0.140110
C109  C     C_R   0.746005 0.813094 0.136803 -0.093895
C110  C     C_R   0.702244 0.357960 0.317930 -0.112507
C111  C     C_R   0.253989 0.186887 0.136765 -0.093494
C112  C     C_R   0.297712 0.642013 0.317928 -0.112610
H49   H     H_    0.214481 0.661766 0.408272 0.176666
H50   H     H_    0.211453 0.079341 0.182175 0.161466
H51   H     H_    0.785461 0.338206 0.408278 0.176624
H52   H     H_    0.788548 0.920630 0.182204 0.161443
H53   H     H_    0.182885 0.092830 0.829133 0.151053
H54   H     H_    0.342350 0.793742 0.596181 0.182580
H55   H     H_    0.818992 0.906283 0.830163 0.150560
H56   H     H_    0.657577 0.206204 0.596219 0.182630
H57   H     H_    0.576404 0.288265 0.679882 0.184598
H58   H     H_    0.740526 0.827602 0.921133 0.142482
H59   H     H_    0.423542 0.711686 0.679833 0.184405
H60   H     H_    0.261140 0.171383 0.920362 0.143240
H61   H     H_    0.708696 0.841522 0.095411 0.171266
H62   H     H_    0.703082 0.420205 0.324812 0.181800
H63   H     H_    0.291325 0.158466 0.095389 0.171202
H64   H     H_    0.296840 0.579767 0.324793 0.181886
N33   N     N_R   0.443662 0.749205 0.846900 0.230289
O1    O     O_R   0.483609 0.771146 0.787411 -0.414478
O2    O     O_R   0.431838 0.797791 0.903079 -0.320754
N34   N     N_R   0.227316 0.425177 0.918782 0.217609
O3    O     O_R   0.164932 0.385492 0.906106 -0.374455
O4    O     O_R   0.221257 0.491700 0.953541 -0.382351
N35   N     N_R   0.556284 0.250820 0.846899 0.230275
O5    O     O_R   0.516239 0.228935 0.787466 -0.414148
O6    O     O_R   0.568155 0.202200 0.903042 -0.320749
N36   N     N_R   0.772688 0.574797 0.918324 0.217570
O7    O     O_R   0.835070 0.614240 0.904871 -0.373891
O8    O     O_R   0.778844 0.508479 0.953466 -0.382253
N37   N     N_R   0.427002 0.227624 0.096972 0.203583
O9    O     O_R   0.421183 0.179566 0.154472 -0.382513
O10   O     O_R   0.478548 0.214106 0.044067 -0.381916
N38   N     N_R   0.251576 0.556571 0.154055 0.223166
O11   O     O_R   0.228742 0.522908 0.217011 -0.433110
O12   O     O_R   0.202629 0.567380 0.098154 -0.336405
N39   N     N_R   0.573002 0.772374 0.096960 0.203620
O13   O     O_R   0.578801 0.820426 0.154459 -0.382555
O14   O     O_R   0.521488 0.785906 0.044034 -0.381782
N40   N     N_R   0.748428 0.443400 0.154024 0.223158
O15   O     O_R   0.771302 0.476962 0.217011 -0.433053
O16   O     O_R   0.797347 0.432657 0.098078 -0.336506
N41   N     N_R   0.924797 0.272216 0.400613 0.204692
O17   O     O_R   0.915255 0.321468 0.344548 -0.395211
O18   O     O_R   0.976439 0.286430 0.453023 -0.375057
N42   N     N_R   0.744441 0.933595 0.357680 0.225445
O19   O     O_R   0.706489 0.942177 0.293690 -0.412505
O20   O     O_R   0.706021 0.930991 0.421993 -0.320668
N43   N     N_R   0.075198 0.727786 0.400631 0.204681
O21   O     O_R   0.084705 0.678551 0.344551 -0.395281
O22   O     O_R   0.023584 0.713562 0.453077 -0.375020
N44   N     N_R   0.255549 0.066385 0.357644 0.225436
O23   O     O_R   0.293499 0.057810 0.293645 -0.412508
O24   O     O_R   0.293970 0.068965 0.421951 -0.320590
N45   N     N_R   0.949914 0.751498 0.652987 0.202196
O25   O     O_R   0.963710 0.726568 0.722453 -0.429014
O26   O     O_R   0.947488 0.701993 0.596496 -0.374594
N46   N     N_R   0.728621 0.073895 0.601065 0.204862
O27   O     O_R   0.682677 0.077932 0.660333 -0.365384
O28   O     O_R   0.711636 0.027578 0.544646 -0.363418
N47   N     N_R   0.049884 0.248447 0.653009 0.201948
O29   O     O_R   0.035864 0.273140 0.722512 -0.429867
O30   O     O_R   0.052165 0.298095 0.596627 -0.375575
N48   N     N_R   0.271372 0.926074 0.601074 0.204844
O31   O     O_R   0.317306 0.922035 0.660342 -0.365416
O32   O     O_R   0.288404 0.972333 0.544612 -0.363373

loop_
_geom_bond_atom_site_label_1
_geom_bond_atom_site_label_2
_geom_bond_distance
_ccdc_geom_bond_type
N12   Ni8   1.860080 S    
C4    N4    1.331201 A    
C62   C93   1.419374 S    
C108  H60   1.083446 S    
C5    N5    1.327699 A    
C2    H2    1.076638 S    
C32   H32   1.111946 S    
C100  H52   1.082039 S    
N35   O5    1.299535 A    
C78   C94   1.395449 A    
C43   N27   1.348822 A    
C46   C61   1.387098 A    
C21   H21   1.112654 S    
C16   N16   1.336296 A    
N34   O4    1.299572 A    
C9    H9    1.070753 S    
N15   N32   1.393286 A    
C14   N14   1.336276 A    
C31   H31   1.112309 S    
C30   C67   1.497772 S    
C40   N40   1.429362 S    
C69   C85   1.393432 A    
C19   C30   1.508726 S    
C98   H50   1.082041 S    
N1    N18   1.383978 A    
N37   O9    1.300823 A    
C42   C57   1.403422 A    
C25   H41   1.112464 S    
N27   Ni5   1.863678 S    
C111  H63   1.080931 S    
N35   O6    1.300257 A    
N6    Ni2   1.860404 S    
C13   H13   1.075346 S    
N31   Ni7   1.864038 S    
C97   H49   1.081208 S    
C26   C71   1.495792 S    
N4    Ni4   1.860080 S    
C35   N19   1.348347 A    
N45   O25   1.300557 A    
C27   C70   1.498397 S    
C29   H45   1.112722 S    
C34   N18   1.329979 A    
C91   C99   1.408091 A    
C67   C78   1.370622 A    
N44   O24   1.299359 A    
N7    N24   1.393285 A    
C6    H6    1.076519 S    
C99   H51   1.081216 S    
N12   N25   1.393281 A    
C23   C74   1.497022 S    
C89   C97   1.408091 A    
N42   O19   1.297517 A    
C66   C82   1.384620 A    
C51   C82   1.410606 S    
N41   O17   1.300720 A    
C25   H25   1.111715 S    
C20   H36   1.111169 S    
C46   N46   1.428479 S    
C49   C84   1.410762 S    
C92   C100  1.403293 A    
C45   N45   1.428546 S    
C8    H8    1.076523 S    
N16   N29   1.383973 A    
C93   C101  1.402859 A    
C86   C110  1.406425 A    
C102  H54   1.080313 S    
C79   C95   1.387380 A    
N5    N22   1.393285 A    
C48   N32   1.350332 A    
C101  H53   1.083237 S    
C80   C96   1.395483 A    
C36   N20   1.330202 A    
C95   C103  1.402939 A    
N39   O14   1.299721 A    
C53   C88   1.453575 S    
N23   Ni3   1.864038 S    
N39   O13   1.300823 A    
C96   C104  1.409127 A    
C35   C50   1.400570 A    
C11   N11   1.327908 A    
C38   C53   1.397248 A    
C15   N15   1.331653 A    
C22   C75   1.495378 S    
C6    C54   1.369083 A    
N21   Ni1   1.863873 S    
C33   C52   1.400635 A    
C20   H20   1.112537 S    
C61   C96   1.463299 S    
N24   Ni2   1.860324 S    
C44   C59   1.403433 A    
C26   H26   1.110465 S    
C39   C54   1.388626 A    
C10   H10   1.078615 S    
C28   H44   1.112771 S    
N8    N21   1.383973 A    
N8    Ni4   1.860268 S    
C3    C51   1.363392 A    
N30   Ni8   1.860455 S    
C17   C32   1.508651 S    
C71   C87   1.393422 A    
N15   Ni5   1.863596 S    
C50   C81   1.463167 S    
C38   N38   1.429358 S    
C18   C31   1.516047 S    
C72   C88   1.395917 A    
C1    C49   1.363485 A    
C42   N26   1.344799 A    
C27   H27   1.111726 S    
C22   H38   1.108768 S    
C88   C112  1.406419 A    
C65   C81   1.397700 A    
N4    N17   1.393281 A    
C7    C55   1.376330 A    
N34   O3    1.301105 A    
C21   C28   1.499976 S    
C70   C86   1.395902 A    
N10   N27   1.393279 A    
C54   C85   1.452527 S    
N40   O16   1.300123 A    
C22   C27   1.509986 S    
N43   O22   1.299342 A    
C30   H30   1.111947 S    
C71   C74   1.380627 A    
C35   N35   1.429634 S    
C48   C63   1.387140 A    
N13   Ni7   1.863435 S    
C59   C90   1.455229 S    
C34   C49   1.367849 A    
C85   C109  1.403753 A    
C47   N47   1.428410 S    
N14   N31   1.383974 A    
C45   C64   1.381039 A    
N22   Ni4   1.860455 S    
C28   C69   1.495803 S    
C32   H48   1.112429 S    
C17   C80   1.493567 S    
C83   C107  1.407468 A    
C29   H29   1.112157 S    
C106  H58   1.083610 S    
N45   O26   1.300311 A    
C43   C58   1.388910 A    
C44   N28   1.344806 A    
C81   C105  1.407501 A    
N7    Ni1   1.863596 S    
C24   H24   1.112327 S    
N2    N19   1.393279 A    
C14   H14   1.073950 S    
C41   C60   1.388924 A    
C32   C65   1.497750 S    
C68   C84   1.384499 A    
N5    Ni3   1.863435 S    
C58   C89   1.451512 S    
N46   O28   1.298023 A    
N41   O18   1.299347 A    
N20   Ni2   1.860516 S    
C2    C50   1.380321 A    
N9    N26   1.383978 A    
C19   H35   1.110672 S    
N11   Ni7   1.863621 S    
C107  H59   1.078357 S    
C76   C92   1.395248 A    
C36   C51   1.367887 A    
N32   Ni6   1.860324 S    
C20   C77   1.494439 S    
C4    C52   1.380234 A    
C26   H42   1.112770 S    
C3    N3    1.335800 A    
C105  H57   1.078332 S    
C37   C56   1.388619 A    
C22   H22   1.112335 S    
C11   H11   1.070753 S    
N13   N30   1.393285 A    
N29   Ni5   1.863873 S    
N46   O27   1.301054 A    
C14   C62   1.373274 A    
N38   O12   1.300117 A    
C40   C55   1.397235 A    
C41   N25   1.348839 A    
N3    N20   1.383980 A    
C8    C56   1.369086 A    
C103  H55   1.083401 S    
C15   C63   1.370827 A    
N25   Ni7   1.863841 S    
C64   C95   1.419274 S    
C36   N36   1.438308 S    
C10   N10   1.325047 A    
C18   H18   1.112696 S    
C69   C76   1.380619 A    
C87   C111  1.403756 A    
C17   H17   1.112234 S    
C102  C107  1.407649 A    
C10   C58   1.369959 A    
C23   H39   1.111482 S    
N9    Ni5   1.863788 S    
C70   C75   1.365054 A    
C45   N29   1.328528 A    
N1    Ni1   1.863788 S    
C25   C72   1.498390 S    
C46   N30   1.350377 A    
C104  H56   1.080305 S    
C60   C91   1.451477 S    
N36   O8    1.299603 A    
C30   H46   1.112427 S    
C65   C80   1.370669 A    
C47   N31   1.328334 A    
C33   N33   1.429641 S    
C66   C79   1.353301 A    
C84   C108  1.401770 A    
C16   H16   1.073948 S    
C34   N34   1.438399 S    
N26   Ni8   1.860655 S    
C33   N17   1.348381 A    
N47   O29   1.300528 A    
C110  H62   1.080249 S    
C29   C68   1.495620 S    
N3    Ni3   1.863621 S    
C109  H61   1.080933 S    
C18   H34   1.111377 S    
C63   C94   1.463165 S    
N6    N23   1.383973 A    
C27   H43   1.112477 S    
C43   N43   1.431398 S    
C24   C25   1.509980 S    
N42   O20   1.299352 A    
N40   O15   1.299219 A    
C37   N37   1.431453 S    
C39   N39   1.431446 S    
N17   Ni3   1.863841 S    
N18   Ni4   1.860655 S    
N16   Ni8   1.860268 S    
C39   N23   1.348373 A    
C5    C53   1.376307 A    
C31   C66   1.495837 S    
C42   N42   1.434201 S    
N47   O30   1.300310 A    
C38   N22   1.347871 A    
N48   O32   1.298032 A    
N43   O21   1.300719 A    
C16   C64   1.373363 A    
C21   C76   1.497021 S    
C15   H15   1.075430 S    
N48   O31   1.301055 A    
N14   Ni6   1.860404 S    
C4    H4    1.076719 S    
N19   Ni1   1.863678 S    
C52   C83   1.463075 S    
C8    N8    1.326469 A    
C17   H33   1.110682 S    
C9    N9    1.327902 A    
N28   Ni6   1.860516 S    
C20   C29   1.515880 S    
C37   N21   1.348371 A    
C72   C73   1.365077 A    
C12   C60   1.369939 A    
C82   C106  1.401989 A    
N44   O23   1.297533 A    
C103  C106  1.397637 A    
C77   C93   1.387117 A    
N37   O10   1.299714 A    
C104  C105  1.407682 A    
C13   N13   1.331730 A    
C101  C108  1.397655 A    
C2    N2    1.331262 A    
C31   H47   1.112864 S    
C19   H19   1.112238 S    
C100  C109  1.398590 A    
C7    H7    1.073368 S    
C99   C110  1.406071 A    
C24   C73   1.495365 S    
N33   O1    1.299543 A    
C9    C57   1.380639 A    
N38   O11   1.299197 A    
C112  H64   1.080232 S    
C28   H28   1.110455 S    
N10   Ni6   1.860213 S    
C11   C59   1.380631 A    
C56   C87   1.452528 S    
C97   C112  1.406069 A    
C3    H3    1.077649 S    
N33   O2    1.300266 A    
C98   C111  1.398595 A    
C47   C62   1.380975 A    
C68   C77   1.353033 A    
C74   C90   1.395258 A    
C24   H40   1.108771 S    
C1    N1    1.335894 A    
C13   C61   1.370819 A    
C90   C98   1.403289 A    
C67   C83   1.397731 A    
C5    H5    1.073363 S    
C1    H1    1.077656 S    
N2    Ni2   1.860213 S    
C12   N12   1.325020 A    
N36   O7    1.301157 A    
C23   C26   1.499977 S    
C44   N44   1.434213 S    
C18   C79   1.494493 S    
C7    N7    1.327716 A    
C19   C78   1.493613 S    
C21   H37   1.111488 S    
C94   C102  1.409133 A    
C55   C86   1.453535 S    
C12   H12   1.078621 S    
C6    N6    1.326474 A    
C75   C91   1.392521 A    
C73   C89   1.392518 A    
N11   N28   1.383980 A    
C41   N41   1.431411 S    
C23   H23   1.112652 S    
C48   N48   1.428466 S    
C40   N24   1.347830 A    
C57   C92   1.455212 S    
