data_mof_unit_20709.cif
_audit_creation_date              2013-03-05T16:06:00-0500
_audit_creation_method            fapswitch 2.2
_symmetry_space_group_name_H-M    P1
_symmetry_Int_Tables_number       1
_space_group_crystal_system       triclinic
_cell_length_a                    10.926707
_cell_length_b                    9.644988
_cell_length_c                    23.494891
_cell_angle_alpha                 90.332565
_cell_angle_beta                  93.729787
_cell_angle_gamma                 90.678787
_cell_volume                      2470.60705515

loop_
_atom_site_label
_atom_site_type_symbol
_atom_site_description
_atom_site_fract_x
_atom_site_fract_y
_atom_site_fract_z
_atom_type_partial_charge
O1    O     O_R   0.319640 0.618740 0.500000 -0.534915
O2    O     O_R   0.680360 0.381260 0.500000 -0.522602
O3    O     O_R   0.680360 0.618740 0.500000 -0.543845
O4    O     O_R   0.319640 0.381260 0.500000 -0.528925
C1    C     C_R   0.262767 0.499039 0.503133 0.852117
C2    C     C_R   0.736955 0.500831 0.496269 0.852285
O5    O     O_R   0.499960 0.618810 0.417880 -0.530102
O6    O     O_R   0.500040 0.381190 0.582120 -0.560569
O7    O     O_R   0.500040 0.618810 0.582120 -0.522814
O8    O     O_R   0.499960 0.381190 0.417880 -0.549203
C3    C     C_R   0.496040 0.498998 0.391240 0.851727
C4    C     C_R   0.502591 0.499778 0.608767 0.849485
Cu1   Cu    Cu3+1 0.500000 0.640660 0.500000 1.130389
Cu2   Cu    Cu3+1 0.500000 0.359340 0.500000 1.117783
C5    C     C_R   0.609333 0.452037 0.884981 0.635278
C6    C     C_R   0.377854 0.447320 0.114567 0.634385
N1    N     N_R   0.502965 0.472948 0.851942 -0.444995
N2    N     N_R   0.484233 0.471392 0.147700 -0.445442
C7    C     C_R   0.392668 0.483426 0.876286 0.521199
C8    C     C_R   0.594247 0.486590 0.123284 0.519681
C9    C     C_R   0.384968 0.461964 0.935161 -0.129026
C10   C     C_R   0.601942 0.465365 0.064343 -0.128535
C11   C     C_R   0.495047 0.456374 0.969802 -0.072623
C12   C     C_R   0.491898 0.456250 0.029695 -0.072420
C13   C     C_R   0.608360 0.452915 0.944653 -0.096896
C14   C     C_R   0.378668 0.449055 0.054862 -0.096605
C15   C     C_R   0.271263 0.447237 0.960573 0.487667
C16   C     C_R   0.715686 0.453980 0.038921 0.488885
C17   C     C_R   0.269373 0.441940 0.019998 -0.225887
C18   C     C_R   0.717660 0.448839 0.979490 -0.226475
O9    O     O_2   0.715566 0.429923 0.860310 -0.512744
O10   O     O_2   0.271862 0.421006 0.139129 -0.511790
O11   O     O_2   0.291411 0.517755 0.843738 -0.509425
O12   O     O_2   0.695314 0.525128 0.155862 -0.508182
H1    H     H_    0.181500 0.434510 0.038652 0.204943
H2    H     H_    0.805610 0.443784 0.960836 0.208030
C19   C     C_R   0.564300 0.395862 0.242720 -0.157046
C20   C     C_R   0.426195 0.395973 0.755938 -0.157033
H3    H     H_    0.625280 0.325249 0.222867 0.179694
H4    H     H_    0.365278 0.322544 0.774841 0.179130
C21   C     C_R   0.570693 0.407290 0.301850 -0.203127
C22   C     C_R   0.423077 0.406572 0.696858 -0.207402
H5    H     H_    0.637788 0.347079 0.326705 0.221669
H6    H     H_    0.358345 0.342897 0.671059 0.209008
C23   C     C_R   0.490183 0.493873 0.328817 -0.168600
C24   C     C_R   0.504238 0.496341 0.671144 -0.163058
C25   C     C_R   0.399017 0.564746 0.295845 0.357173
C26   C     C_R   0.591970 0.572312 0.705384 0.359548
C27   C     C_R   0.402362 0.566644 0.236150 0.380677
C28   C     C_R   0.585342 0.574268 0.764908 0.379693
C29   C     C_R   0.482622 0.477574 0.209093 0.161206
C30   C     C_R   0.505387 0.481115 0.790676 0.163186
C31   C     C_R   0.060515 0.371614 0.497708 0.204053
C32   C     C_R   0.938807 0.627704 0.499137 0.167271
C33   C     C_R   0.933217 0.375429 0.487528 0.222866
C34   C     C_R   0.065773 0.623910 0.510355 0.191792
C35   C     C_R   0.871017 0.502254 0.491970 -0.346530
C36   C     C_R   0.128282 0.497108 0.506126 -0.355038
C37   C     C_R   0.450835 0.072734 0.454055 0.342769
C38   C     C_R   0.548405 0.928313 0.546044 0.321926
C39   C     C_R   0.550825 0.075665 0.545586 0.339358
C40   C     C_R   0.450993 0.925418 0.454120 0.319400
N3    N     N_R   0.500000 0.852070 0.500000 -0.308412
N4    N     N_R   0.500000 0.147930 0.500000 -0.304344
O13   O     O_3   0.160307 0.441598 0.928482 -0.541721
C41   C     C_3   0.145015 0.310965 0.900662 0.155523
H7    H     H_    0.232541 0.257682 0.892829 0.107933
H8    H     H_    0.097295 0.328019 0.858132 0.206790
C42   C     C_3   0.065100 0.215241 0.934082 -0.844889
H9    H     H_    0.976548 0.266029 0.940767 0.268059
H10   H     H_    0.046573 0.117180 0.909884 0.229318
H11   H     H_    0.112929 0.190391 0.975820 0.239219
O14   O     O_3   0.826592 0.451377 0.071035 -0.541708
C43   C     C_3   0.841763 0.321105 0.098184 0.157145
H12   H     H_    0.754131 0.267974 0.107567 0.109227
H13   H     H_    0.893396 0.338824 0.139936 0.206910
C44   C     C_3   0.916440 0.224938 0.062904 -0.847758
H14   H     H_    0.005040 0.275786 0.054660 0.267812
H15   H     H_    0.935069 0.127257 0.086524 0.230166
H16   H     H_    0.864650 0.199436 0.021914 0.238226
O15   O     O_3   0.304059 0.628597 0.321423 -0.507885
C45   C     C_3   0.204910 0.533128 0.321980 0.072691
H17   H     H_    0.230997 0.440866 0.348131 0.164333
H18   H     H_    0.174250 0.498640 0.277910 0.185808
C46   C     C_3   0.096733 0.601418 0.348013 -0.607343
H19   H     H_    0.069024 0.695125 0.323365 0.278469
H20   H     H_    0.017878 0.527565 0.347367 0.192205
H21   H     H_    0.121952 0.631498 0.392874 0.255243
O16   O     O_3   0.687915 0.639588 0.681285 -0.508863
C47   C     C_3   0.788086 0.547922 0.681984 0.060329
H22   H     H_    0.764150 0.453371 0.655891 0.159669
H23   H     H_    0.817141 0.516636 0.726397 0.189263
C48   C     C_3   0.896668 0.619409 0.656826 -0.588148
H24   H     H_    0.922538 0.715148 0.681465 0.278631
H25   H     H_    0.976283 0.548704 0.658199 0.191411
H26   H     H_    0.872340 0.646705 0.611831 0.257970
O17   O     O_3   0.321586 0.649468 0.204499 -0.535853
C49   C     C_3   0.380414 0.777576 0.195187 0.100798
H27   H     H_    0.465807 0.762886 0.172454 0.140406
H28   H     H_    0.403224 0.832808 0.236371 0.208208
C50   C     C_3   0.294581 0.867982 0.158338 -0.704648
H29   H     H_    0.208914 0.886269 0.180095 0.268454
H30   H     H_    0.339750 0.969376 0.150781 0.200424
H31   H     H_    0.271362 0.816125 0.116620 0.246207
O18   O     O_3   0.663485 0.660589 0.797773 -0.537127
C51   C     C_3   0.602696 0.786372 0.806606 0.101026
H32   H     H_    0.516160 0.768389 0.828278 0.141058
H33   H     H_    0.581454 0.840093 0.765333 0.206836
C52   C     C_3   0.685643 0.880846 0.844547 -0.709110
H34   H     H_    0.772362 0.902398 0.823859 0.267760
H35   H     H_    0.638888 0.980448 0.851753 0.200005
H36   H     H_    0.707242 0.830552 0.886360 0.245701
N5    N     N_R   0.118942 0.238959 0.501640 0.196300
O19   O     O_R   0.172127 0.200513 0.550071 -0.296209
O20   O     O_R   0.099970 0.147696 0.460934 -0.198735
N6    N     N_R   0.880257 0.759972 0.493572 0.187593
O21   O     O_R   0.826362 0.794866 0.444816 -0.287692
O22   O     O_R   0.895955 0.852727 0.533842 -0.214828
N7    N     N_R   0.868078 0.250121 0.470459 0.189787
O23   O     O_R   0.809545 0.241871 0.420494 -0.338463
O24   O     O_R   0.870559 0.142764 0.503727 -0.190943
N8    N     N_R   0.130190 0.749220 0.527963 0.187511
O25   O     O_R   0.186345 0.757640 0.578457 -0.316196
O26   O     O_R   0.129542 0.856330 0.494597 -0.201753
N9    N     N_R   0.400440 0.141235 0.404190 0.175598
O27   O     O_R   0.453706 0.131328 0.356423 -0.322992
O28   O     O_R   0.298019 0.207661 0.405265 -0.313830
N10   N     N_R   0.595908 0.861633 0.596491 0.189156
O29   O     O_R   0.714024 0.855089 0.606112 -0.258068
O30   O     O_R   0.527192 0.855111 0.639644 -0.306308
N11   N     N_R   0.608619 0.147530 0.593773 0.173114
O31   O     O_R   0.562082 0.139607 0.643253 -0.325574
O32   O     O_R   0.716341 0.204187 0.590400 -0.306956
N12   N     N_R   0.395045 0.855309 0.405545 0.189853
O33   O     O_R   0.276591 0.839548 0.401769 -0.266902
O34   O     O_R   0.453842 0.850673 0.359163 -0.307304

loop_
_geom_bond_atom_site_label_1
_geom_bond_atom_site_label_2
_geom_bond_distance
_ccdc_geom_bond_type
C41   H8    1.110673 S    
C48   H24   1.110864 S    
C39   N4    1.371775 A    
O14   C43   1.419005 S    
C31   C33   1.396903 A    
O3    C2    1.306119 A    
N10   O29   1.298049 A    
O15   C45   1.414243 S    
C25   C27   1.405596 A    
C33   N7    1.437000 S    
C44   H14   1.108832 S    
O5    C3    1.309923 A    
C37   N4    1.373347 A    
C50   H29   1.110737 S    
C43   H13   1.110656 S    
C1    C36   1.475620 S    
C38   N3    1.377644 A    
O1    C1    1.309364 A    
C7    C9    1.407614 A    
C12   C14   1.406698 A    
C20   C22   1.390679 A    
C52   H35   1.110635 S    
C19   C29   1.404983 A    
C44   H16   1.109629 S    
C41   C42   1.519851 S    
C20   C30   1.404539 A    
C51   H32   1.114980 S    
C49   H27   1.114922 S    
N6    O21   1.301415 A    
C22   C24   1.399528 A    
C23   C25   1.407702 A    
C42   H10   1.110399 S    
O7    Cu1   1.942064 S    
N6    O22   1.300138 A    
C27   C29   1.412542 A    
C43   C44   1.519933 S    
C32   N6    1.436750 S    
C28   O18   1.381440 S    
C28   C30   1.411925 A    
C11   C12   1.409849 A    
O3    Cu1   1.984536 S    
C8    O12   1.349277 S    
C51   H33   1.114492 S    
C44   H15   1.110369 S    
C41   H7    1.116268 S    
C9    C15   1.419008 A    
C50   H30   1.110620 S    
C10   C16   1.418637 A    
Cu1   Cu2   2.713328 S    
O4    Cu2   1.984538 S    
C21   H5    1.083540 S    
C2    C35   1.474783 S    
O2    C2    1.308225 A    
C22   H6    1.083734 S    
C16   O14   1.385802 S    
N1    C30   1.443998 S    
C31   N5    1.437420 S    
N2    C29   1.444563 S    
O17   C49   1.410808 S    
C32   C34   1.396136 A    
N7    O24   1.300431 A    
C6    C14   1.403572 A    
C24   C26   1.406857 A    
C43   H12   1.115889 S    
C46   H20   1.110696 S    
C38   N10   1.422863 S    
C4    C24   1.465038 S    
O8    Cu2   1.942064 S    
C52   H36   1.110935 S    
N12   O34   1.301332 A    
C46   H19   1.110691 S    
C38   C39   1.421258 A    
C34   N8    1.436477 S    
C42   H11   1.109602 S    
C40   N3    1.375472 A    
C15   O13   1.385756 S    
C47   H23   1.115124 S    
Cu1   N3    2.039047 S    
O6    C4    1.299858 A    
Cu2   N4    2.039048 S    
N7    O23   1.301354 A    
C6    N2    1.372872 A    
C8    C10   1.406748 A    
O13   C41   1.419112 S    
C48   H26   1.107210 S    
C49   H28   1.114295 S    
C26   O16   1.380593 S    
C33   C35   1.412985 A    
C7    O11   1.349102 S    
N9    O27   1.300944 A    
C10   C12   1.409083 A    
C3    C23   1.464369 S    
O1    Cu1   1.979557 S    
N8    O26   1.300270 A    
N11   O31   1.301111 A    
C49   C50   1.520518 S    
C47   C48   1.519549 S    
N5    O19   1.301520 A    
C46   H21   1.108066 S    
C13   C18   1.404315 A    
C5    N1    1.372611 A    
C37   C40   1.420891 A    
O6    Cu2   1.939631 S    
O4    C1    1.305281 A    
N11   O32   1.299134 A    
N10   O30   1.301674 A    
C31   C36   1.417528 A    
C5    O9    1.349392 S    
N12   O33   1.298639 A    
C6    O10   1.349239 S    
C45   C46   1.520829 S    
O18   C51   1.410735 S    
C17   H1    1.082889 S    
C45   H18   1.115009 S    
C18   H2    1.083354 S    
C40   N12   1.422649 S    
C9    C11   1.409511 A    
N8    O25   1.301353 A    
C16   C18   1.398496 A    
C19   H3    1.082989 S    
C37   N9    1.430378 S    
C20   H4    1.082960 S    
C47   H22   1.114851 S    
C15   C17   1.398892 A    
C26   C28   1.405104 A    
N1    C7    1.371762 A    
C34   C36   1.413987 A    
N2    C8    1.371898 A    
C25   O15   1.381648 S    
C19   C21   1.390148 A    
C42   H9    1.109478 S    
O2    Cu2   1.979556 S    
O7    C4    1.310583 A    
C5    C13   1.402697 A    
O8    C3    1.300231 A    
C39   N11   1.431255 S    
C27   O17   1.381425 S    
O5    Cu1   1.939631 S    
C11   C13   1.406827 A    
C14   C17   1.404284 A    
C48   H25   1.110641 S    
C45   H17   1.113637 S    
N9    O28   1.297708 A    
C21   C23   1.398737 A    
C50   H31   1.110946 S    
O16   C47   1.414466 S    
C52   H34   1.110747 S    
C32   C35   1.414639 A    
N5    O20   1.300975 A    
C51   C52   1.520609 S    
