data_mof_unit_8794.cif
_audit_creation_date              2013-03-05T16:06:55-0500
_audit_creation_method            fapswitch 2.2
_symmetry_space_group_name_H-M    P1
_symmetry_Int_Tables_number       1
_space_group_crystal_system       triclinic
_cell_length_a                    10.959203
_cell_length_b                    9.68048
_cell_length_c                    10.932577
_cell_angle_alpha                 86.184313
_cell_angle_beta                  96.783598
_cell_angle_gamma                 85.62758
_cell_volume                      1145.02100437

loop_
_atom_site_label
_atom_site_type_symbol
_atom_site_description
_atom_site_fract_x
_atom_site_fract_y
_atom_site_fract_z
_atom_type_partial_charge
O1    O     O_R   0.319640 0.618740 0.499990 -0.530897
O2    O     O_R   0.680360 0.618740 0.500010 -0.534826
O3    O     O_R   0.319620 0.381170 0.499990 -0.591789
O4    O     O_R   0.680380 0.381170 0.500010 -0.584995
C1    C     C_R   0.262345 0.503198 0.503374 0.905702
C2    C     C_R   0.737251 0.495434 0.498029 0.899509
O5    O     O_R   0.499990 0.618810 0.319660 -0.511302
O6    O     O_R   0.500010 0.618810 0.680340 -0.583437
O7    O     O_R   0.499960 0.381240 0.319650 -0.609140
O8    O     O_R   0.500040 0.381240 0.680350 -0.584186
C3    C     C_R   0.502438 0.503725 0.262978 0.903893
C4    C     C_R   0.499980 0.496083 0.737539 0.805680
Cu1   Cu    Cu3+1 0.500000 0.640660 0.500000 1.117179
Cu2   Cu    Cu3+1 0.500000 0.359340 0.500000 1.035154
C5    C     C_R   0.459426 0.616945 0.047927 0.075910
C6    C     C_R   0.456388 0.609172 0.922582 0.037190
C7    C     C_R   0.516638 0.508655 0.131455 -0.042996
C8    C     C_R   0.502960 0.491073 0.872038 -0.018246
C9    C     C_R   0.582158 0.396342 0.083048 -0.074271
C10   C     C_R   0.565541 0.381999 0.954182 -0.098405
C11   C     C_3   0.337258 0.699120 0.890738 0.000334
C12   C     C_3   0.339990 0.710225 0.032273 0.062540
C13   C     C_R   0.078737 0.383465 0.556722 0.261122
C14   C     C_R   0.950941 0.376392 0.547709 0.236117
C15   C     C_R   0.870447 0.488464 0.490404 -0.290239
C16   C     C_R   0.127811 0.504625 0.509049 -0.323933
C17   C     C_R   0.918754 0.604109 0.435323 0.265724
C18   C     C_R   0.045832 0.615445 0.451502 0.224863
C19   C     C_R   0.424503 0.088645 0.414387 -0.026864
C20   C     C_R   0.581655 0.060251 0.581845 -0.013692
C21   C     C_R   0.415912 0.941987 0.420970 0.379268
C22   C     C_R   0.584323 0.911452 0.578540 0.412920
N1    N     N_R   0.500000 0.852070 0.500000 -0.300312
N2    N     N_R   0.500000 0.147940 0.500000 -0.286617
C23   C     C_2   0.666653 0.291972 0.165111 0.476192
H1    H     H_    0.672339 0.183136 0.146477 0.124997
O9    O     O_2   0.734540 0.328057 0.251701 -0.491898
C24   C     C_2   0.605329 0.248277 0.910132 0.385325
H2    H     H_    0.702627 0.213388 0.920149 0.109549
O10   O     O_2   0.528207 0.171777 0.872100 -0.395420
C25   C     C_2   0.353419 0.830300 0.812060 0.555630
H3    H     H_    0.289358 0.862165 0.729828 0.135314
O11   O     O_2   0.438685 0.901217 0.838666 -0.429589
C26   C     C_2   0.231906 0.650729 0.086066 0.576121
H4    H     H_    0.141922 0.708249 0.068513 0.158791
O12   O     O_2   0.242866 0.539024 0.146813 -0.553684
N3    N     N_R   0.235164 0.623048 0.836065 0.064487
O13   O     O_R   0.233338 0.490378 0.863722 -0.269083
O14   O     O_R   0.134471 0.691814 0.781572 -0.303607
N4    N     N_R   0.357640 0.851162 0.069044 0.173780
O15   O     O_R   0.464103 0.882477 0.121078 -0.240216
O16   O     O_R   0.267512 0.948276 0.044167 -0.227473
N5    N     N_R   0.157471 0.265244 0.613980 0.180808
O17   O     O_R   0.235398 0.277521 0.711173 -0.225072
O18   O     O_R   0.150106 0.144231 0.569750 -0.258952
N6    N     N_R   0.904757 0.254143 0.598491 0.132203
O19   O     O_R   0.871964 0.159809 0.524716 -0.240069
O20   O     O_R   0.930473 0.219873 0.716364 -0.269325
N7    N     N_R   0.838843 0.708283 0.357906 0.182378
O21   O     O_R   0.767258 0.672249 0.263861 -0.308660
O22   O     O_R   0.837951 0.838789 0.380038 -0.209793
N8    N     N_R   0.089631 0.740949 0.407386 0.192352
O23   O     O_R   0.112344 0.833137 0.486567 -0.219172
O24   O     O_R   0.063829 0.780368 0.290371 -0.245187
C27   C     C_2   0.356605 0.176442 0.308464 0.620456
H5    H     H_    0.290437 0.260929 0.321526 0.106870
O25   O     O_2   0.374168 0.153443 0.203256 -0.446281
C28   C     C_2   0.670062 0.121132 0.671695 0.627910
H6    H     H_    0.674384 0.231064 0.671098 0.079490
O26   O     O_2   0.739874 0.049952 0.750554 -0.431384
N9    N     N_R   0.311441 0.893648 0.348918 0.171319
O27   O     O_R   0.211622 0.976009 0.316392 -0.249425
O28   O     O_R   0.316139 0.772623 0.306705 -0.311628
N10   N     N_R   0.677571 0.823512 0.656274 0.170115
O29   O     O_R   0.789863 0.815375 0.628211 -0.242977
O30   O     O_R   0.659965 0.786394 0.768920 -0.272147

loop_
_geom_bond_atom_site_label_1
_geom_bond_atom_site_label_2
_geom_bond_distance
_ccdc_geom_bond_type
C20   C22   1.441458 A    
C6    C11   1.504272 S    
C25   H3    1.084999 S    
C9    C10   1.416523 A    
N3    O14   1.302191 A    
N5    O17   1.300168 A    
O5    C3    1.310397 A    
O6    Cu1   1.968836 S    
N10   O30   1.300289 A    
O1    C1    1.324297 A    
C23   O9    1.220222 D    
C22   N10   1.434280 S    
C24   H2    1.084276 S    
C2    C15   1.468596 S    
C5    C6    1.374016 A    
N6    O19   1.301233 A    
C13   C16   1.420415 A    
O2    Cu1   1.971794 S    
N8    O24   1.302010 A    
C5    C12   1.517976 S    
C12   C26   1.517949 S    
C23   H1    1.084892 S    
C28   H6    1.068469 S    
C27   O25   1.220410 D    
N4    O16   1.301654 A    
C13   C14   1.399587 A    
C21   N1    1.393878 A    
C12   N4    1.468099 S    
C21   N9    1.438052 S    
N7    O21   1.301205 A    
Cu1   Cu2   2.723313 S    
C25   O11   1.220371 D    
O2    C2    1.306587 A    
C26   O12   1.220893 D    
C13   N5    1.439646 S    
N5    O18   1.301247 A    
N7    O22   1.301566 A    
N10   O29   1.300930 A    
C20   N2    1.384171 A    
C14   C15   1.407397 A    
O4    C2    1.310562 A    
O8    Cu2   1.996985 S    
N9    O28   1.287092 A    
C19   N2    1.360536 A    
O7    Cu2   1.968924 S    
Cu1   N1    2.046550 S    
N8    O23   1.301353 A    
C10   C24   1.464340 S    
N3    O13   1.301896 A    
O6    C4    1.305276 A    
N4    O15   1.302646 A    
O7    C3    1.304465 A    
O3    Cu2   1.971986 S    
O8    C4    1.311245 A    
C19   C27   1.478543 S    
C6    C8    1.390905 A    
C11   C25   1.519446 S    
C14   N6    1.426595 S    
C26   H4    1.084773 S    
C5    C7    1.401090 A    
C3    C7    1.462492 S    
O3    C1    1.299632 A    
Cu2   N2    2.046453 S    
C15   C17   1.404321 A    
C16   C18   1.408381 A    
C22   N1    1.371475 A    
N9    O27   1.302387 A    
C19   C21   1.427590 A    
C17   N7    1.441149 S    
C24   O10   1.220267 D    
C7    C9    1.423046 A    
N6    O20   1.301217 A    
C8    C10   1.417616 A    
O4    Cu2   2.004027 S    
C1    C16   1.482050 S    
O5    Cu1   1.996830 S    
O1    Cu1   2.003968 S    
C28   O26   1.219897 D    
C27   H5    1.079223 S    
C4    C8    1.464398 S    
C17   C18   1.396630 A    
C9    C23   1.491185 S    
C11   C12   1.555125 S    
C20   C28   1.479942 S    
C11   N3    1.475696 S    
C18   N8    1.415883 S    
