data_mof_unit_21581.cif
_audit_creation_date              2012-10-26T19:40:40-0400
_audit_creation_method            fapswitch 2.2
_symmetry_space_group_name_H-M    P1
_symmetry_Int_Tables_number       1
_space_group_crystal_system       triclinic
_cell_length_a                    9.68805
_cell_length_b                    10.906317
_cell_length_c                    13.416648
_cell_angle_alpha                 89.758673
_cell_angle_beta                  72.397214
_cell_angle_gamma                 89.112756
_cell_volume                      1351.07503806

loop_
_atom_site_label
_atom_site_type_symbol
_atom_type_description
_atom_site_fract_x
_atom_site_fract_y
_atom_site_fract_z
_atom_type_partial_charge
C1    C     C_R   0.497405 0.734766 0.503317 0.555338
C2    C     C_R   0.374967 0.501289 0.815235 0.032685
C3    C     C_2   0.581957 0.063578 0.550621 0.237316
C4    C     C_R   0.422220 0.503681 0.700241 0.553048
C5    C     C_2   0.504544 0.132512 0.501880 -0.102124
C6    C     C_2   0.592982 0.930374 0.534790 -0.121576
C7    C     C_2   0.486939 0.866605 0.515624 -0.153377
C8    C     C_2   0.051006 0.569132 0.561585 0.009123
C9    C     C_2   0.897033 0.573804 0.557496 0.009961
C10   C     C_R   0.499960 0.265206 0.503463 0.588661
C11   C     C_R   0.577574 0.502560 0.299902 0.547628
C12   C     C_R   0.435253 0.509197 0.979645 0.052677
C13   C     C_R   0.772749 0.623040 0.031712 0.266130
C14   C     C_R   0.621010 0.521434 0.186609 -0.048837
C15   C     C_R   0.244985 0.442926 0.866783 -0.048269
C16   C     C_R   0.206742 0.422042 0.973592 -0.074430
C17   C     C_R   0.301107 0.452444 0.029480 -0.083077
C18   C     C_R   0.465028 0.543535 0.873407 0.043199
C19   C     C_R   0.540264 0.533608 0.031712 -0.001985
C20   C     C_R   0.666722 0.601443 0.980352 0.042326
C21   C     C_R   0.681831 0.648305 0.880282 -0.080576
C22   C     C_R   0.582464 0.620783 0.828379 -0.113097
C23   C     C_R   0.523178 0.491504 0.133452 -0.134165
C24   C     C_R   0.747392 0.583725 0.135061 -0.112763
Cu1   Cu    Cu3+1 0.361370 0.499980 0.499980 0.986747
Cu2   Cu    Cu3+1 0.638630 0.500020 0.500020 1.026255
H1    H     H_    0.446663 0.090888 0.453370 0.063303
H2    H     H_    0.824526 0.641589 0.605987 0.132358
H3    H     H_    0.912491 0.433267 0.458834 0.224026
H4    H     H_    0.986200 0.885852 0.910930 0.375010
H5    H     H_    0.432653 0.436378 0.174858 0.130058
H6    H     H_    0.173869 0.410953 0.824023 0.157616
H7    H     H_    0.597403 0.663352 0.753042 0.136733
H8    H     H_    0.763009 0.051869 0.753028 0.378534
H9    H     H_    0.688635 0.883389 0.543092 0.186134
H10   H     H_    0.077773 0.627990 0.617851 0.166269
H11   H     H_    0.770204 0.707019 0.840416 0.196949
H12   H     H_    0.263902 0.432417 0.111866 0.107077
H13   H     H_    0.105015 0.378548 0.012924 0.133140
H14   H     H_    0.823037 0.606263 0.177092 0.173529
H15   H     H_    0.385458 0.910090 0.515612 0.115259
H16   H     H_    0.130090 0.449769 0.444375 0.212326
N1    N     N_2   0.152660 0.501340 0.501130 -0.344190
N2    N     N_2   0.846520 0.501370 0.501160 -0.329862
O1    O     O_R   0.382960 0.678040 0.499980 -0.489028
O2    O     O_2   0.011489 0.644415 0.867336 -0.331808
O3    O     O_3   0.893464 0.849248 0.952164 -0.518037
O4    O     O_2   0.812924 0.180787 0.571371 -0.273719
O5    O     O_2   0.580063 0.220742 0.705293 -0.270378
O6    O     O_3   0.710381 0.011676 0.709554 -0.532699
O7    O     O_R   0.617100 0.678080 0.500020 -0.509717
O8    O     O_R   0.325800 0.499940 0.650950 -0.492002
O9    O     O_R   0.559930 0.499980 0.650990 -0.477477
O10   O     O_R   0.382900 0.321920 0.499980 -0.498421
O11   O     O_R   0.617040 0.321960 0.500020 -0.423485
O12   O     O_R   0.440070 0.500020 0.349010 -0.500716
O13   O     O_R   0.674200 0.500060 0.349050 -0.503635
O14   O     O_2   0.034066 0.699184 0.038647 -0.279025
S1    S     S_3+6 0.935208 0.702545 0.971187 -0.021029
S2    S     S_3+6 0.673325 0.124685 0.635368 0.030088

loop_
_geom_bond_atom_site_label_1
_geom_bond_atom_site_label_2
_ccdc_geom_bond_type
C12   C17   A    
C14   C23   A    
C2    C4    S    
Cu1   O12   S    
C6    C7    D    
C2    C15   A    
O2    S1    D    
C2    C18   A    
C14   C24   A    
C19   C23   A    
C19   C20   A    
C8    N1    D    
C3    C6    S    
O6    S2    S    
C3    S2    S    
Cu1   N1    S    
C18   C22   A    
Cu1   Cu2   S    
Cu1   O8    S    
Cu2   N2    S    
C5    C10   S    
C1    C7    S    
C21   C22   A    
C20   C21   A    
C10   O11   A    
C1    O7    A    
C1    O1    A    
O5    S2    D    
C11   O13   A    
Cu1   O10   S    
C4    O8    A    
C13   S1    S    
C12   C19   A    
C11   C14   S    
Cu2   O11   S    
O4    S2    D    
C17   H12   S    
C7    H15   S    
H3    N2    S    
C10   O10   A    
Cu2   O13   S    
H8    O6    S    
Cu2   O7    S    
H16   N1    S    
C16   H13   S    
O3    S1    S    
C15   C16   A    
C4    O9    A    
Cu2   O9    S    
Cu1   O1    S    
H4    O3    S    
C15   H6    S    
C21   H11   S    
C6    H9    S    
C13   C24   A    
C8    H10   S    
C12   C18   A    
C22   H7    S    
C8    C9    S    
C9    N2    D    
C13   C20   A    
C24   H14   S    
O14   S1    D    
C5    H1    S    
C11   O12   A    
C9    H2    S    
C16   C17   A    
C3    C5    D    
C23   H5    S    
