data_mof_unit_48984.cif
_audit_creation_date              2012-12-10T17:02:01-0500
_audit_creation_method            fapswitch 2.2
_symmetry_space_group_name_H-M    P1
_symmetry_Int_Tables_number       1
_space_group_crystal_system       triclinic
_cell_length_a                    11.046007
_cell_length_b                    10.889684
_cell_length_c                    9.836883
_cell_angle_alpha                 105.541996
_cell_angle_beta                  100.330612
_cell_angle_gamma                 92.760211
_cell_volume                      1115.71558035

loop_
_atom_site_label
_atom_site_type_symbol
_atom_type_description
_atom_site_fract_x
_atom_site_fract_y
_atom_site_fract_z
_atom_type_partial_charge
C1    C     C_R   0.497027 0.255846 0.448052 0.849155
C2    C     C_R   0.077255 0.440296 0.602071 -0.070381
C3    C     C_R   0.128178 0.479627 0.494579 -0.149146
C4    C     C_R   0.048233 0.515294 0.386153 0.236793
C5    C     C_R   0.922248 0.510355 0.384275 0.384716
C6    C     C_R   0.875174 0.501583 0.506398 -0.181846
C7    C     C_2   0.508653 0.121053 0.438475 0.180425
C8    C     C_2   0.407616 0.038868 0.416767 0.313098
C9    C     C_2   0.470640 0.876607 0.551808 0.170371
C10   C     C_2   0.417235 0.907005 0.428295 0.212682
C11   C     C_2   0.519306 0.511607 0.087654 0.479580
C12   C     C_R   0.262370 0.492265 0.498117 0.861814
C13   C     C_2   0.537935 0.471550 0.933714 0.326093
C14   C     C_R   0.496219 0.743697 0.549843 0.825561
C15   C     C_R   0.738785 0.501369 0.501966 0.869609
C16   C     C_R   0.134076 0.360328 0.684500 0.195869
C17   C     C_R   0.077091 0.327310 0.788396 0.186474
C18   C     C_R   0.972333 0.383782 0.822238 0.329331
C19   C     C_R   0.924211 0.472243 0.753592 0.327235
C20   C     C_R   0.958872 0.477521 0.623456 -0.134459
Cu1   Cu    Cu3+1 0.521920 0.521810 0.644910 1.167411
Cu2   Cu    Cu3+1 0.478080 0.478190 0.355090 1.142921
H1    H     H_    0.399298 0.361543 0.066999 0.230161
N1    N     N_2   0.445130 0.445430 0.137370 -0.306743
N2    N     N_2   0.554930 0.554500 0.862630 -0.047670
O1    O     O_R   0.511700 0.332330 0.577400 -0.548128
O2    O     O_R   0.474680 0.295500 0.332650 -0.546289
O3    O     O_R   0.338160 0.518420 0.622400 -0.572064
O4    O     O_R   0.301140 0.481590 0.377650 -0.535107
O5    O     O_R   0.525320 0.704500 0.667350 -0.492412
O6    O     O_R   0.488300 0.667670 0.422600 -0.548771
O7    O     O_R   0.698860 0.518410 0.622350 -0.543195
O8    O     O_R   0.661840 0.481580 0.377600 -0.519553
Br1   Br    Br    0.103556 0.571533 0.233658 -0.231133
Cl1   Cl    Cl    0.660068 0.079387 0.484524 -0.457325
Br2   Br    Br    0.574960 0.300283 0.865736 -0.220837
Cl2   Cl    Cl    0.607899 0.652748 0.204128 -0.373532
Br3   Br    Br    0.484521 0.710977 0.931912 -0.155899
Br4   Br    Br    0.268812 0.265478 0.640002 -0.364627
Br5   Br    Br    0.143742 0.208626 0.891097 -0.206526
Cl3   Cl    Cl    0.894568 0.335290 0.942165 -0.324683
Cl4   Cl    Cl    0.872991 0.607923 0.864669 -0.355519
Cl5   Cl    Cl    0.828630 0.508214 0.219890 -0.371772
Br6   Br    Br    0.341209 0.784458 0.247515 -0.239580
Cl6   Cl    Cl    0.263085 0.072781 0.329524 -0.410580
Cl7   Cl    Cl    0.504683 0.992075 0.719801 -0.381522

loop_
_geom_bond_atom_site_label_1
_geom_bond_atom_site_label_2
_ccdc_geom_bond_type
C9    C14   S    
C11   Cl2   S    
Cu2   O4    S    
C12   O4    A    
C2    C20   A    
C6    C20   A    
Cu1   O5    S    
C19   C20   A    
C19   Cl4   S    
C14   O6    A    
H1    N1    S    
C17   C18   A    
C5    Cl5   S    
C9    Cl7   S    
Cu1   Cu2   S    
C11   C13   S    
C13   N2    D    
C5    C6    A    
C14   O5    A    
Cu1   O1    S    
C12   O3    A    
C2    C3    A    
Cu2   N1    S    
Cu2   O2    S    
C1    O1    A    
N2    Br3   S    
Cu1   O7    S    
C4    Br1   S    
Cu2   O6    S    
C16   Br4   S    
C10   Br6   S    
C3    C4    A    
C11   N1    D    
C7    C8    D    
C2    C16   A    
C13   Br2   S    
C8    C10   S    
C18   C19   A    
C9    C10   D    
C18   Cl3   S    
C1    O2    A    
Cu2   O8    S    
Cu1   N2    S    
C8    Cl6   S    
C16   C17   A    
C3    C12   S    
C6    C15   S    
C1    C7    S    
C7    Cl1   S    
Cu1   O3    S    
C15   O8    A    
C4    C5    A    
C17   Br5   S    
C15   O7    A    
