data_mof_unit_27504.cif
_audit_creation_date              2013-03-05T16:07:49-0500
_audit_creation_method            fapswitch 2.2
_symmetry_space_group_name_H-M    P1
_symmetry_Int_Tables_number       1
_space_group_crystal_system       triclinic
_cell_length_a                    8.716743
_cell_length_b                    15.138684
_cell_length_c                    18.943376
_cell_angle_alpha                 103.605744
_cell_angle_beta                  91.939531
_cell_angle_gamma                 99.719729
_cell_volume                      2387.67182388

loop_
_atom_site_label
_atom_site_type_symbol
_atom_site_description
_atom_site_fract_x
_atom_site_fract_y
_atom_site_fract_z
_atom_type_partial_charge
P1    P     P_3+3 0.039440 0.410950 0.333260 0.507869
O1    O     O_2   0.871970 0.437290 0.322980 -0.342583
O2    O     O_3   0.121420 0.444460 0.412460 -0.359318
O3    O     O_3   0.661430 0.607560 0.372520 -0.308391
O4    O     O_2   0.733467 0.516189 0.243880 -0.359429
O5    O     O_3   0.010749 0.288826 0.294805 -0.542610
O6    O     O_3   0.707695 0.685052 0.253615 -0.556057
H1    H     H_    0.618191 0.760606 0.343876 0.096203
C1    C     C_3   0.699393 0.846699 0.272137 0.350502
H2    H     H_    0.825993 0.857055 0.287681 0.072671
P2    P     P_3+3 0.676740 0.714970 0.563520 0.513876
P3    P     P_3+3 0.138543 0.777032 0.426707 0.503961
O7    O     O_2   0.852280 0.726960 0.542370 -0.362396
O8    O     O_3   0.083990 0.657360 0.410240 -0.309694
O9    O     O_2   0.027586 0.819821 0.480991 -0.382132
O10   O     O_3   0.689328 0.774252 0.657775 -0.571168
O11   O     O_3   0.087489 0.810525 0.347852 -0.539265
C2    C     C_3   0.138588 0.753428 0.286718 0.196303
H3    H     H_    0.090695 0.679284 0.282610 0.093145
H4    H     H_    0.267691 0.764253 0.290810 0.090112
C3    C     C_3   0.079438 0.777191 0.217123 0.103023
H5    H     H_    0.950791 0.762785 0.213837 0.179143
C4    C     C_3   0.211882 0.771160 0.660076 0.383699
H6    H     H_    0.146631 0.741283 0.606308 0.135035
C5    C     C_3   0.161455 0.864954 0.693224 -0.084381
H7    H     H_    0.204895 0.915643 0.661050 0.108279
H8    H     H_    0.034069 0.860180 0.687824 0.087397
Ba1   Ba    Ba6+2 0.853510 0.540900 0.466480 1.629947
C6    C     C_3   0.894376 0.228938 0.318723 0.645824
H9    H     H_    0.800684 0.264911 0.340385 0.092306
C7    C     C_3   0.821214 0.148534 0.254146 -0.600853
H10   H     H_    0.784477 0.172290 0.207506 0.264421
H11   H     H_    0.718455 0.106136 0.270780 0.231416
H12   H     H_    0.905304 0.102934 0.233128 0.272430
C8    C     C_3   0.730081 0.732059 0.713218 0.605649
C9    C     C_3   0.784020 0.809351 0.784188 -0.013122
H13   H     H_    0.892201 0.854931 0.777308 0.156760
H14   H     H_    0.812241 0.778811 0.830037 0.110665
P4    P     P_3+3 0.150270 0.589130 0.666750 0.504244
O12   O     O_2   0.317740 0.562750 0.677070 -0.378516
O13   O     O_3   0.068290 0.555610 0.587550 -0.349617
O14   O     O_3   0.528280 0.392520 0.627490 -0.388056
O15   O     O_3   0.188940 0.710856 0.707223 -0.541387
P5    P     P_3+3 0.056688 0.223563 0.582601 0.437375
O16   O     O_3   0.609300 0.386850 0.459730 -0.372518
O17   O     O_3   0.105720 0.342720 0.589770 -0.394075
O18   O     O_2   0.169765 0.176957 0.531388 -0.399718
O19   O     O_3   0.099951 0.199666 0.666845 -0.523993
Ba2   Ba    Ba6+2 0.336320 0.459170 0.533530 1.555467
P6    P     P_3+3 0.626101 0.583498 0.277305 0.497059
C10   C     C_3   0.621862 0.753232 0.284047 0.085745
H15   H     H_    0.501169 0.734680 0.257976 0.098341
O20   O     O_3   0.580410 0.613230 0.540280 -0.328877
C11   C     C_3   0.469308 0.268315 0.293486 0.228688
H16   H     H_    0.559593 0.330084 0.294981 0.160308
C12   C     C_3   0.444209 0.203096 0.214464 0.409765
H17   H     H_    0.558559 0.194491 0.195464 0.068080
P7    P     P_3+3 0.513991 0.269305 0.436837 0.439377
O21   O     O_2   0.337420 0.273080 0.457680 -0.376231
O22   O     O_3   0.518615 0.219566 0.342198 -0.613819
C13   C     C_3   0.053958 0.265173 0.724707 0.507890
H18   H     H_    0.100346 0.336774 0.720622 0.086852
C14   C     C_3   0.125716 0.256264 0.797545 -0.078425
H19   H     H_    0.108281 0.316030 0.841644 0.069844
H20   H     H_    0.253316 0.259634 0.795479 0.147383
P8    P     P_3+3 0.569277 0.406634 0.720574 0.399543
C15   C     C_3   0.483479 0.229564 0.673721 0.403968
H21   H     H_    0.585568 0.232127 0.640550 0.040923
O23   O     O_2   0.452565 0.464861 0.758909 -0.420138
O24   O     O_3   0.511138 0.298329 0.739585 -0.541925
H22   H     H_    0.381956 0.238500 0.641270 0.179672
H23   H     H_    0.549844 0.123264 0.721709 0.279315
C16   C     C_3   0.449384 0.134457 0.689478 -0.823571
H24   H     H_    0.427580 0.080258 0.637541 0.198951
H25   H     H_    0.344470 0.128028 0.720545 0.303137
C17   C     C_R   0.993833 0.472090 0.046276 0.020105
C18   C     C_R   0.892140 0.432796 0.091026 -0.045938
C19   C     C_R   0.734226 0.400370 0.065610 -0.047173
C20   C     C_R   0.678464 0.405622 0.997341 -0.199977
C21   C     C_R   0.780202 0.440561 0.951062 0.112388
C22   C     C_R   0.938494 0.474035 0.975116 0.087483
C23   C     C_R   0.725589 0.439732 0.880579 -0.219058
C24   C     C_R   0.827577 0.468671 0.830991 -0.025618
C25   C     C_R   0.986873 0.505125 0.855078 -0.009040
C26   C     C_R   0.041185 0.507772 0.927718 -0.000458
C27   C     C_R   0.775661 0.458596 0.757398 0.222701
C28   C     C_R   0.883876 0.483205 0.709074 -0.510739
C29   C     C_R   0.038026 0.529145 0.732430 0.274582
C30   C     C_R   0.091254 0.539555 0.807278 -0.080050
C31   C     C_R   0.151729 0.504506 0.070958 0.050034
C32   C     C_R   0.205634 0.504023 0.143160 0.026032
C33   C     C_R   0.101292 0.464751 0.189547 -0.204499
C34   C     C_R   0.951315 0.419014 0.157342 0.407341
H26   H     H_    0.651606 0.371346 0.098339 0.229340
H27   H     H_    0.555881 0.380073 0.980089 0.160157
H28   H     H_    0.843095 0.472548 0.653028 0.159090
H29   H     H_    0.603090 0.413664 0.864635 0.191659
C35   C     C_R   0.244889 0.581952 0.836437 -0.067274
C36   C     C_R   0.300711 0.579594 0.906776 0.095712
C37   C     C_R   0.198788 0.541922 0.952613 0.012716
C38   C     C_R   0.254456 0.539408 0.023711 0.084137
C39   C     C_R   0.458225 0.613344 0.931830 -0.110319
C40   C     C_R   0.514005 0.608731 0.000943 -0.132413
C41   C     C_R   0.412923 0.572257 0.047486 0.131467
C42   C     C_R   0.365660 0.538309 0.166853 0.039722
C43   C     C_R   0.467664 0.570001 0.117730 -0.164706
C44   C     C_R   0.419571 0.537145 0.238071 0.181122
C45   C     C_R   0.315874 0.498669 0.282182 -0.380101
C46   C     C_R   0.156086 0.465958 0.263262 0.243781
H30   H     H_    0.324535 0.615187 0.804661 0.178935
H31   H     H_    0.539165 0.642439 0.897629 0.143912
H32   H     H_    0.636416 0.634611 0.018290 0.173830
H33   H     H_    0.590841 0.593116 0.133186 0.179246
H34   H     H_    0.365396 0.485098 0.329738 0.192162
C47   C     C_R   0.343074 0.822359 0.467695 0.049149
H35   H     H_    0.195325 0.958040 0.454063 0.192147
C48   C     C_R   0.586896 0.789931 0.514205 0.219123
C49   C     C_R   0.768026 0.230532 0.512228 -0.206594
C50   C     C_R   0.852632 0.176634 0.544147 0.268797
C51   C     C_R   0.785455 0.086404 0.545456 -0.294481
C52   C     C_R   0.632810 0.045904 0.514228 0.091304
C53   C     C_R   0.544059 0.101112 0.482570 -0.068904
C54   C     C_R   0.568199 0.949691 0.508446 0.096568
C55   C     C_R   0.408648 0.917180 0.483351 -0.043032
C56   C     C_R   0.318970 0.979103 0.468763 -0.150372
C57   C     C_R   0.390806 0.058579 0.451337 0.261148
C58   C     C_R   0.654673 0.884346 0.525523 -0.294332
C59   C     C_R   0.432869 0.759848 0.482960 -0.036182
C60   C     C_R   0.611815 0.194949 0.483376 0.215154
H36   H     H_    0.772939 0.905052 0.549617 0.180895
H37   H     H_    0.856078 0.048952 0.571016 0.169935
N1    N     N_R   0.221071 0.902541 0.769502 0.308991
O25   O     O_R   0.319560 0.980425 0.788445 -0.276220
O26   O     O_R   0.175156 0.859479 0.819098 -0.301594
C61   C     C_3   0.969280 0.183048 0.371283 -0.990097
H38   H     H_    0.878965 0.148482 0.399678 0.270081
H39   H     H_    0.029103 0.128025 0.341803 0.266929
H40   H     H_    0.059014 0.232508 0.409440 0.265821
C62   C     C_3   0.857609 0.679514 0.692251 -0.855057
H41   H     H_    0.934768 0.717609 0.662686 0.240944
H42   H     H_    0.916570 0.670630 0.742054 0.211917
H43   H     H_    0.814201 0.613139 0.652259 0.226972
C63   C     C_3   0.596272 0.664729 0.729754 -0.791390
H44   H     H_    0.629214 0.638471 0.777142 0.187312
H45   H     H_    0.494431 0.698351 0.742911 0.260245
H46   H     H_    0.572188 0.604911 0.682021 0.286358
N2    N     N_R   0.637544 0.920751 0.319324 0.217026
O27   O     O_R   0.731817 0.987458 0.364203 -0.455956
O28   O     O_R   0.487787 0.916515 0.320969 -0.458539
N3    N     N_R   0.666307 0.866759 0.805166 0.268311
O29   O     O_R   0.571909 0.850044 0.854183 -0.310165
O30   O     O_R   0.674496 0.944051 0.785315 -0.297106
N4    N     N_R   0.674781 0.850301 0.196083 0.245216
O31   O     O_R   0.536485 0.851708 0.168956 -0.265135
O32   O     O_R   0.793259 0.862850 0.157420 -0.376257
C64   C     C_3   0.320328 0.299299 0.313912 -0.699043
H47   H     H_    0.240741 0.240403 0.324512 0.278664
H48   H     H_    0.340025 0.357346 0.362891 0.240660
H49   H     H_    0.270687 0.321766 0.268789 0.225522
N5    N     N_R   0.358420 0.110699 0.213397 0.244305
O33   O     O_R   0.425602 0.039334 0.192982 -0.339820
O34   O     O_R   0.210976 0.097799 0.224889 -0.407425
N6    N     N_R   0.368980 0.242257 0.161286 0.228223
O35   O     O_R   0.256033 0.192113 0.114839 -0.239261
O36   O     O_R   0.420551 0.326545 0.157413 -0.461193
N7    N     N_R   0.127891 0.719410 0.152002 0.237720
O37   O     O_R   0.275354 0.722790 0.142548 -0.372721
O38   O     O_R   0.025884 0.681176 0.096953 -0.390689
C65   C     C_3   0.875906 0.251084 0.725017 -0.903884
H50   H     H_    0.830449 0.283796 0.684373 0.198938
H51   H     H_    0.824839 0.176257 0.711011 0.275503
H52   H     H_    0.839167 0.283480 0.779050 0.248809
N8    N     N_R   0.055915 0.170012 0.815211 0.294018
O39   O     O_R   0.066741 0.090665 0.772532 -0.322406
O40   O     O_R   0.983033 0.172196 0.874228 -0.287293
N9    N     N_R   0.887411 0.334784 0.174116 0.237234
O41   O     O_R   0.940733 0.261475 0.142063 -0.325408
O42   O     O_R   0.750839 0.325792 0.199255 -0.464834
N10   N     N_R   0.360627 0.666411 0.474302 0.252800
O43   O     O_R   0.402810 0.602844 0.425301 -0.400717
O44   O     O_R   0.258236 0.642958 0.517362 -0.351254
C66   C     C_3   0.851483 0.322030 0.501058 -0.577814
H53   H     H_    0.972627 0.324643 0.489581 0.231955
H54   H     H_    0.822698 0.332531 0.448155 0.193162
H55   H     H_    0.834880 0.380699 0.545321 0.218356
C67   C     C_3   0.321140 0.069678 0.380968 -0.627130
H56   H     H_    0.230076 0.009840 0.353913 0.205175
H57   H     H_    0.260805 0.127922 0.388949 0.240519
H58   H     H_    0.411285 0.070919 0.341727 0.297668
C68   C     C_3   0.133184 0.878915 0.217706 -0.517628
H59   H     H_    0.260764 0.899331 0.230684 0.289205
H60   H     H_    0.105378 0.890676 0.163379 0.288528
H61   H     H_    0.071921 0.923336 0.257974 0.199163
C69   C     C_3   0.381975 0.792812 0.651957 -0.769128
H62   H     H_    0.407707 0.842939 0.618095 0.168924
H63   H     H_    0.444827 0.824342 0.705866 0.295255
H64   H     H_    0.416039 0.726304 0.628456 0.267824

loop_
_geom_bond_atom_site_label_1
_geom_bond_atom_site_label_2
_geom_bond_distance
_ccdc_geom_bond_type
C61   H40   1.097395 S    
C69   H63   1.102442 S    
C28   C29   1.408689 A    
C14   H20   1.107239 S    
C68   H59   1.105614 S    
C35   H30   1.072523 S    
C63   H46   1.104294 S    
C51   H37   1.077820 S    
C16   H25   1.107015 S    
C65   H50   1.104561 S    
C32   C42   1.421320 A    
C8    C9    1.558514 S    
C1    C10   1.532111 S    
N2    O27   1.298624 A    
C41   C43   1.408352 A    
O2    Ba2   2.854235 S    
C54   C55   1.420033 A    
P4    O13   1.570319 S    
C11   O22   1.407657 S    
C18   C19   1.408295 A    
C12   H17   1.089089 S    
C42   C44   1.418573 A    
C12   N6    1.470993 S    
C20   C21   1.395416 A    
C56   C57   1.376643 A    
C9    H13   1.101479 S    
N2    O28   1.297905 A    
C2    H3    1.112965 S    
O10   C8    1.415712 S    
C11   C64   1.486757 S    
C62   H43   1.104930 S    
C33   C46   1.455451 A    
P8    O23   1.546293 D    
P7    C60   1.873920 S    
P7    O22   1.778400 S    
O12   Ba2   2.826355 S    
C2    C3    1.540487 S    
Ba1   O13   2.853588 S    
C4    O15   1.416023 S    
C45   C46   1.401243 A    
C61   H39   1.106877 S    
P1    O1    1.594292 D    
C16   H24   1.110054 S    
C45   H34   1.063401 S    
C13   C14   1.539769 S    
C66   H53   1.081390 S    
C37   C38   1.427239 A    
C68   H61   1.107595 S    
C8    C62   1.485278 S    
C49   C50   1.407259 A    
N6    O35   1.301718 A    
N1    O25   1.301641 A    
P3    O11   1.753311 S    
P1    Ba1   3.447207 S    
C4    H6    1.105763 S    
C7    H11   1.110723 S    
O7    Ba1   2.847241 S    
C15   C16   1.521224 S    
O16   Ba2   3.033122 S    
N4    O32   1.299795 A    
C1    H2    1.107676 S    
C53   C60   1.439772 A    
C15   H22   1.105467 S    
P2    O20   1.578101 S    
P5    O18   1.545330 D    
P3    C47   1.869437 S    
P1    C46   1.952040 S    
C62   H42   1.105686 S    
N9    O42   1.294860 A    
C69   H62   1.104061 S    
C1    N4    1.464477 S    
N4    O31   1.299854 A    
C3    H5    1.102383 S    
N7    O38   1.300987 A    
C65   H51   1.109981 S    
C39   H31   1.082502 S    
C13   H18   1.112655 S    
P4    C29   1.908904 S    
O13   Ba2   3.041038 S    
O3    Ba1   2.864205 S    
P5    O17   1.753734 S    
C14   N8    1.462274 S    
C49   C66   1.516814 S    
Ba1   O16   2.855091 S    
C11   C12   1.572599 S    
O16   P7    1.777117 S    
C43   H33   1.079189 S    
C15   H21   1.107215 S    
C61   H38   1.097697 S    
C17   C18   1.402962 A    
C21   C23   1.398793 A    
P4    O12   1.594667 D    
C19   C20   1.390651 A    
C21   C22   1.407472 A    
P4    O15   1.790338 S    
P5    C50   1.855071 S    
P7    O21   1.608817 D    
N8    O39   1.300767 A    
C1    N2    1.453167 S    
C47   C59   1.398341 A    
N10   O43   1.282655 A    
O3    P6    1.759606 S    
C40   H32   1.083775 S    
P1    O2    1.570313 S    
C66   H55   1.101857 S    
N5    O34   1.300595 A    
O5    C6    1.403596 S    
C53   C57   1.423387 A    
C31   C38   1.413868 A    
C20   H27   1.084205 S    
C6    H9    1.095298 S    
Ba1   Ba2   4.794963 S    
C54   C58   1.427330 A    
C24   C25   1.421513 A    
O17   Ba2   2.848745 S    
P3    O9    1.542063 D    
C57   C67   1.502997 S    
Ba1   O20   3.034081 S    
C28   H28   1.074296 S    
C24   C27   1.416158 A    
C8    C63   1.507001 S    
O11   C2    1.407353 S    
C7    H12   1.110693 S    
C59   N10   1.416826 S    
C25   C26   1.429268 A    
C50   C51   1.398643 A    
C48   C58   1.414233 A    
H1    C10   1.114514 S    
C52   C53   1.442004 A    
N8    O40   1.300895 A    
N1    O26   1.301303 A    
N9    O41   1.301006 A    
P4    Ba2   3.447897 S    
P3    O8    1.743207 S    
C35   C36   1.413453 A    
C38   C41   1.406680 A    
H35   C56   1.078285 S    
N7    O37   1.297925 A    
C65   H52   1.108966 S    
N3    O30   1.302407 A    
O4    P6    1.540674 D    
C13   C65   1.530931 S    
C25   C30   1.427277 A    
C44   C45   1.398878 A    
C67   H57   1.084517 S    
P2    C48   1.877013 S    
C32   C33   1.438800 A    
C51   C52   1.413118 A    
C18   C34   1.415472 A    
O14   P8    1.742694 S    
C3    C68   1.529415 S    
C63   H45   1.103227 S    
C11   H16   1.110012 S    
C64   H47   1.096060 S    
C68   H60   1.110618 S    
C47   C55   1.409408 A    
P1    O5    1.791420 S    
C6    C61   1.528021 S    
C27   C28   1.402434 A    
C7    H10   1.087068 S    
O6    P6    1.745797 S    
H23   C16   1.109471 S    
C17   C22   1.424827 A    
P8    C27   1.876389 S    
C62   H41   1.070092 S    
C64   H49   1.093165 S    
C5    H8    1.100180 S    
C42   C43   1.417282 A    
P8    O24   1.756244 S    
C34   N9    1.414206 S    
Ba2   O21   2.847219 S    
C36   C37   1.408059 A    
C30   C35   1.415424 A    
C15   O24   1.407963 S    
N5    O33   1.300801 A    
C67   H58   1.100667 S    
C9    H14   1.114229 S    
C5    H7    1.114106 S    
C58   H36   1.077518 S    
O6    C10   1.402671 S    
C10   H15   1.108783 S    
C12   N5    1.465831 S    
C49   C60   1.416479 A    
P2    O7    1.586417 D    
C9    N3    1.460221 S    
C31   C32   1.433152 A    
P6    C44   1.877037 S    
P2    Ba1   3.461413 S    
C19   H26   1.071286 S    
Ba2   O20   2.854560 S    
C4    C69   1.484735 S    
C64   H48   1.103296 S    
C33   C34   1.415025 A    
C23   H29   1.080247 S    
C2    H4    1.106860 S    
C4    C5    1.553580 S    
C39   C40   1.402428 A    
C48   C59   1.404732 A    
C66   H54   1.078869 S    
C52   C54   1.447227 A    
P2    O10   1.790275 S    
C3    N7    1.455221 S    
O14   Ba2   2.863463 S    
C14   H19   1.113105 S    
C69   H64   1.095031 S    
P5    O19   1.759777 S    
C36   C39   1.405834 A    
C29   C30   1.440876 A    
O2    Ba1   3.040138 S    
C6    C7    1.539258 S    
C23   C24   1.408293 A    
O19   C13   1.413580 S    
C40   C41   1.405673 A    
C26   C37   1.406621 A    
N3    O29   1.302029 A    
N6    O36   1.299328 A    
O1    Ba1   2.825686 S    
O8    Ba1   2.848189 S    
C67   H56   1.106610 S    
C5    N1    1.464322 S    
C22   C26   1.408571 A    
C63   H44   1.111444 S    
C17   C31   1.405056 A    
C55   C56   1.385954 A    
N10   O44   1.290948 A    
