data_mof_unit_49486.cif
_audit_creation_date              2012-12-10T19:42:12-0500
_audit_creation_method            fapswitch 2.2
_symmetry_space_group_name_H-M    P1
_symmetry_Int_Tables_number       1
_space_group_crystal_system       triclinic
_cell_length_a                    10.886794
_cell_length_b                    10.936556
_cell_length_c                    9.696723
_cell_angle_alpha                 90.560059
_cell_angle_beta                  90.942682
_cell_angle_gamma                 90.306883
_cell_volume                      1154.30195687

loop_
_atom_site_label
_atom_site_type_symbol
_atom_type_description
_atom_site_fract_x
_atom_site_fract_y
_atom_site_fract_z
_atom_type_partial_charge
C1    C     C_R   0.499821 0.265159 0.499041 0.885483
C2    C     C_R   0.204581 0.595789 0.976591 -0.219093
C3    C     C_R   0.931329 0.519200 0.380053 -0.225327
C4    C     C_R   0.871609 0.498398 0.504193 -0.079180
C5    C     C_R   0.941284 0.480076 0.626518 0.013006
C6    C     C_R   0.068297 0.483020 0.620599 -0.232574
C7    C     C_R   0.128140 0.502965 0.496268 -0.080567
C8    C     C_R   0.058303 0.521631 0.374242 -0.019927
C9    C     C_R   0.880722 0.553199 0.859812 -0.110116
C10   C     C_R   0.828067 0.533015 0.988021 -0.221531
C11   C     C_R   0.782352 0.417280 0.020305 -0.129580
C12   C     C_R   0.262198 0.501620 0.498589 0.792249
C13   C     C_R   0.787845 0.321773 0.923667 0.339934
C14   C     C_R   0.840152 0.341782 0.794886 -0.140746
C15   C     C_R   0.886512 0.457815 0.762412 0.075936
C16   C     C_2   0.490883 0.930739 0.386651 -0.259023
C17   C     C_2   0.487453 0.866441 0.503327 -0.365741
C18   C     C_2   0.477890 0.064813 0.384167 0.457739
C19   C     C_2   0.505732 0.132673 0.497441 -0.337959
C20   C     C_2   0.454330 0.411289 0.920481 -0.051522
C21   C     C_2   0.451443 0.412783 0.075964 -0.014629
C22   C     C_R   0.497618 0.734628 0.500661 0.880887
C23   C     C_R   0.737716 0.498749 0.501477 0.795468
C24   C     C_R   0.198898 0.687888 0.076731 -0.135146
C25   C     C_R   0.152749 0.662117 0.206768 -0.149954
C26   C     C_R   0.112449 0.543506 0.237919 0.024725
C27   C     C_R   0.118938 0.449467 0.136279 0.457255
C28   C     C_R   0.165063 0.477382 0.006623 -0.131066
Cu1   Cu    Cu3+1 0.500020 0.500020 0.638630 0.948232
Cu2   Cu    Cu3+1 0.499980 0.499980 0.361370 0.970994
H1    H     H_    0.240664 0.615916 0.875953 0.170227
H2    H     H_    0.742158 0.401910 0.119972 0.179053
H3    H     H_    0.843970 0.267751 0.720086 0.141772
H4    H     H_    0.500279 0.883793 0.288122 0.177191
H5    H     H_    0.471867 0.909082 0.602788 0.156695
H6    H     H_    0.538120 0.091648 0.592437 0.123047
H7    H     H_    0.414323 0.332306 0.867998 0.168187
H8    H     H_    0.534509 0.574857 0.895442 0.199232
H9    H     H_    0.405943 0.336889 0.125265 0.207151
H10   H     H_    0.229986 0.779447 0.053472 0.146322
H11   H     H_    0.544403 0.569442 0.107714 0.191168
H12   H     H_    0.147759 0.734727 0.283244 0.141328
H13   H     H_    0.172056 0.405626 0.929721 0.143387
H14   H     H_    0.879065 0.534780 0.286121 0.161847
H15   H     H_    0.120650 0.467604 0.714139 0.156881
H16   H     H_    0.916284 0.643099 0.836002 0.144999
H17   H     H_    0.822634 0.607303 0.062099 0.147109
N1    N     N_2   0.498640 0.498660 0.846910 -0.288116
N2    N     N_2   0.498610 0.498630 0.153040 -0.298857
O1    O     O_R   0.500020 0.321960 0.617040 -0.590008
O2    O     O_R   0.499980 0.321920 0.382900 -0.513012
O3    O     O_R   0.319660 0.500030 0.617070 -0.597028
O4    O     O_R   0.319620 0.499990 0.382930 -0.567522
O5    O     O_R   0.500020 0.678080 0.617100 -0.584352
O6    O     O_R   0.499980 0.678040 0.382960 -0.580193
O7    O     O_R   0.680380 0.500010 0.617070 -0.565740
O8    O     O_R   0.680340 0.499970 0.382930 -0.596027
Br1   Br    Br    0.722354 0.164718 0.967037 -0.536940
O9    O     O_3   0.439327 0.120900 0.263765 -0.704102
H18   H     H_    0.421103 0.057140 0.192864 0.323520
O10   O     O_3   0.082360 0.330161 0.158336 -0.729111
H19   H     H_    0.058984 0.319832 0.255630 0.333664

loop_
_geom_bond_atom_site_label_1
_geom_bond_atom_site_label_2
_ccdc_geom_bond_type
C25   H12   S    
O9    H18   S    
Cu2   O2    S    
C22   O6    A    
Cu1   O7    S    
C1    O2    A    
Cu1   Cu2   S    
C8    C26   S    
C9    C10   A    
C12   O3    A    
C28   H13   S    
H8    N1    S    
C12   O4    A    
C21   H9    S    
Cu1   O1    S    
C10   C11   A    
C14   H3    S    
C21   N2    D    
C9    C15   A    
C23   O7    A    
C22   O5    A    
C13   C14   A    
C24   C25   A    
C20   H7    S    
C11   C13   A    
C26   C27   A    
C20   N1    D    
C5    C6    A    
H11   N2    S    
C6    H15   S    
Cu2   N2    S    
C11   H2    S    
C3    C8    A    
C6    C7    A    
C7    C12   S    
C19   H6    S    
C16   H4    S    
C2    C24   A    
O10   H19   S    
Cu2   O4    S    
C3    H14   S    
C5    C15   S    
C7    C8    A    
Cu1   O5    S    
Cu1   N1    S    
C3    C4    A    
Cu2   O8    S    
C18   O9    S    
C9    H16   S    
C20   C21   S    
C16   C18   S    
C18   C19   D    
C1    O1    A    
C10   H17   S    
C23   O8    A    
C4    C23   S    
C14   C15   A    
C4    C5    A    
C2    C28   A    
C13   Br1   S    
C17   H5    S    
C24   H10   S    
C25   C26   A    
C1    C19   S    
Cu2   O6    S    
C17   C22   S    
C16   C17   D    
C2    H1    S    
C27   C28   A    
Cu1   O3    S    
C27   O10   S    
