data_mof_unit_24287.cif
_audit_creation_date              2013-03-05T16:32:08-0500
_audit_creation_method            fapswitch 2.2
_symmetry_space_group_name_H-M    P1
_symmetry_Int_Tables_number       1
_space_group_crystal_system       triclinic
_cell_length_a                    10.845028
_cell_length_b                    10.952509
_cell_length_c                    9.620471
_cell_angle_alpha                 90.721264
_cell_angle_beta                  89.509497
_cell_angle_gamma                 91.489334
_cell_volume                      1142.20681652

loop_
_atom_site_label
_atom_site_type_symbol
_atom_site_description
_atom_site_fract_x
_atom_site_fract_y
_atom_site_fract_z
_atom_type_partial_charge
O1    O     O_R   0.500000 0.319640 0.618810 -0.609050
O2    O     O_R   0.500010 0.319680 0.381230 -0.522099
C1    C     C_R   0.505406 0.263622 0.498893 0.880727
O3    O     O_R   0.317690 0.499960 0.618790 -0.558476
O4    O     O_R   0.317700 0.500000 0.381210 -0.545026
C2    C     C_R   0.260184 0.493753 0.500382 0.931649
Cu1   Cu    Cu3+1 0.499990 0.499980 0.640670 1.051586
Cu2   Cu    Cu3+1 0.500010 0.500020 0.359330 1.105792
O5    O     O_R   0.499990 0.680320 0.618770 -0.569747
O6    O     O_R   0.500000 0.680360 0.381190 -0.598976
O7    O     O_R   0.682300 0.500000 0.618790 -0.571194
O8    O     O_R   0.682310 0.500040 0.381210 -0.568827
C3    C     C_R   0.496138 0.737575 0.501535 0.931473
C4    C     C_R   0.739659 0.497986 0.499712 0.902751
C5    C     C_3   0.066632 0.467649 0.651356 0.143991
H1    H     H_    0.106882 0.536524 0.725199 0.198960
C6    C     C_3   0.926134 0.486590 0.650875 -0.376789
H2    H     H_    0.876648 0.410907 0.705919 0.231491
C7    C     C_3   0.078489 0.624822 0.455956 0.322408
C8    C     C_3   0.064630 0.391924 0.397927 0.146657
C9    C     C_3   0.121825 0.492142 0.500788 -0.327331
C10   C     C_3   0.877447 0.498055 0.500270 -0.195154
C11   C     C_3   0.935482 0.614931 0.429546 0.072430
C12   C     C_3   0.922207 0.384742 0.417049 -0.456196
H3    H     H_    0.892181 0.299801 0.471208 0.263831
H4    H     H_    0.878742 0.379988 0.312605 0.230815
C13   C     C_R   0.467475 0.068342 0.611848 0.020823
C14   C     C_R   0.509166 0.131657 0.496765 -0.144568
C15   C     C_R   0.548049 0.062188 0.379902 0.359236
C16   C     C_R   0.537461 0.933901 0.384078 -0.167163
C17   C     C_R   0.494771 0.871540 0.503238 -0.092397
C18   C     C_R   0.458432 0.944421 0.617261 0.107393
C19   C     C_3   0.412642 0.955872 0.766621 0.134523
C20   C     C_3   0.424004 0.094659 0.754537 -0.393725
C21   C     C_R   0.582273 0.572425 0.073242 0.136569
N1    N     N_R   0.500800 0.500930 0.147930 -0.270213
C22   C     C_R   0.428106 0.419243 0.072070 0.430745
C23   C     C_R   0.431031 0.418181 0.924208 -0.059190
H5    H     H_    0.375696 0.351954 0.867477 0.198829
N2    N     N_R   0.500800 0.500890 0.852020 -0.246869
C24   C     C_R   0.581573 0.572509 0.925851 0.151107
C25   C     C_3   0.586523 0.707481 0.920270 0.033776
C26   C     C_3   0.592337 0.709314 0.078059 0.009028
H6    H     H_    0.499036 0.739840 0.878486 0.114422
N3    N     N_R   0.140242 0.668752 0.326140 0.139199
O9    O     O_R   0.201241 0.772780 0.325210 -0.222248
O10   O     O_R   0.123642 0.613066 0.207242 -0.313397
H7    H     H_    0.923325 0.596545 0.317488 0.190815
N4    N     N_R   0.605326 0.118227 0.260695 0.176999
O11   O     O_R   0.694794 0.198434 0.277031 -0.336873
O12   O     O_R   0.582517 0.075216 0.136588 -0.285167
H8    H     H_    0.568756 0.882916 0.295705 0.197551
N5    N     N_R   0.284894 0.913962 0.787871 0.202252
O13   O     O_R   0.195498 0.962090 0.719478 -0.166009
O14   O     O_R   0.258731 0.836403 0.885757 -0.253522
H9    H     H_    0.476095 0.925089 0.846972 0.147049
H10   H     H_    0.335819 0.144100 0.755921 0.264047
H11   H     H_    0.498220 0.136436 0.820028 0.213586
N6    N     N_R   0.340898 0.339383 0.138586 0.149116
O15   O     O_R   0.373601 0.229328 0.167151 -0.276109
O16   O     O_R   0.224823 0.357048 0.116450 -0.287816
N7    N     N_R   0.094059 0.346884 0.707394 0.175420
O17   O     O_R   0.159364 0.341631 0.819514 -0.307542
O18   O     O_R   0.029669 0.249894 0.671041 -0.249911
N8    N     N_R   0.697031 0.756920 0.850011 0.216277
O19   O     O_R   0.802998 0.705760 0.863525 -0.237327
O20   O     O_R   0.693642 0.863186 0.791710 -0.277992
N9    N     N_R   0.711589 0.754802 0.130572 0.181446
O21   O     O_R   0.738387 0.871112 0.126397 -0.206363
O22   O     O_R   0.800445 0.679614 0.148853 -0.291643
H12   H     H_    0.511527 0.752651 0.127728 0.128248
H13   H     H_    0.905318 0.570157 0.710306 0.264173
N10   N     N_R   0.111077 0.712898 0.569403 0.154702
O23   O     O_R   0.029935 0.756190 0.656027 -0.200242
O24   O     O_R   0.226826 0.736356 0.594655 -0.340072
N11   N     N_R   0.872892 0.730622 0.456994 0.177475
O25   O     O_R   0.789195 0.741083 0.553562 -0.306199
O26   O     O_R   0.904812 0.826676 0.385632 -0.172794
H14   H     H_    0.080679 0.422129 0.290965 0.208726
N12   N     N_R   0.116870 0.269157 0.404203 0.213019
O27   O     O_R   0.071478 0.182803 0.324151 -0.183361
O28   O     O_R   0.216619 0.247794 0.472992 -0.323538

loop_
_geom_bond_atom_site_label_1
_geom_bond_atom_site_label_2
_geom_bond_distance
_ccdc_geom_bond_type
C24   C25   1.479499 S    
C21   N1    1.370218 A    
C11   N11   1.472845 S    
Cu1   Cu2   2.706626 S    
C15   N4    1.436483 S    
N3    O9    1.302629 A    
Cu1   O7    1.986534 S    
C22   C23   1.422491 A    
C14   C15   1.416952 A    
C7    C9    1.604178 S    
C12   H4    1.113568 S    
Cu2   N1    2.033862 S    
C23   H5    1.075713 S    
O7    C4    1.299115 A    
C5    H1    1.113088 S    
C5    C6    1.543151 S    
N10   O23   1.301109 A    
O5    C3    1.298852 A    
N7    O18   1.301801 A    
C8    C12   1.554012 S    
N9    O21   1.300282 A    
N8    O20   1.299841 A    
C20   H10   1.111099 S    
Cu1   N2    2.033280 S    
C21   C26   1.500572 S    
C19   H9    1.101132 S    
N5    O14   1.300752 A    
N6    O15   1.298644 A    
N10   O24   1.299116 A    
C25   H6    1.102272 S    
O3    Cu1   1.990008 S    
C19   C20   1.527672 S    
N3    O10   1.301168 A    
C13   C20   1.475048 S    
C19   N5    1.461635 S    
N6    O16   1.298368 A    
C8    N12   1.474732 S    
C7    N10   1.486282 S    
C12   H3    1.112002 S    
O3    C2    1.303539 A    
C26   N9    1.465402 S    
N4    O12   1.301348 A    
N5    O13   1.302664 A    
C2    C9    1.500119 S    
O1    C1    1.301418 A    
C7    C11   1.574474 S    
C15   C16   1.407820 A    
C25   N8    1.465610 S    
C17   C18   1.408086 A    
C16   C17   1.410395 A    
Cu2   O8    1.990007 S    
N7    O17   1.298132 A    
C6    H2    1.112927 S    
N11   O25   1.299394 A    
C22   N6    1.424693 S    
N12   O28   1.300863 A    
N2    C24   1.359433 A    
O8    C4    1.304047 A    
N8    O19   1.299782 A    
C10   C12   1.554520 S    
C1    C14   1.446867 S    
C25   C26   1.519702 S    
Cu1   O5    1.989017 S    
C16   H8    1.069019 S    
N1    C22   1.382513 A    
C26   H12   1.109243 S    
C11   H7    1.102588 S    
C8    H14   1.095967 S    
C13   C18   1.359856 A    
O1    Cu1   1.983708 S    
C3    C17   1.467598 S    
O2    Cu2   1.989015 S    
N11   O26   1.301204 A    
N12   O27   1.301508 A    
O6    C3    1.310400 A    
O4    Cu2   1.986532 S    
C7    N3    1.491237 S    
C6    C10   1.554022 S    
C18   C19   1.521032 S    
C4    C10   1.494347 S    
O2    C1    1.297013 A    
C23   N2    1.358906 A    
O4    C2    1.302199 A    
C5    N7    1.473004 S    
C21   C24   1.418070 A    
C5    C9    1.585909 S    
C8    C9    1.586367 S    
C6    H13   1.100427 S    
Cu2   O6    1.983708 S    
N4    O11   1.301028 A    
C13   C14   1.380421 A    
C20   H11   1.111958 S    
N9    O22   1.298269 A    
C10   C11   1.571748 S    
