data_mof_unit_40818.cif
_audit_creation_date              2013-03-05T15:51:11-0500
_audit_creation_method            fapswitch 2.2
_symmetry_space_group_name_H-M    P1
_symmetry_Int_Tables_number       1
_space_group_crystal_system       triclinic
_cell_length_a                    16.970922
_cell_length_b                    16.843553
_cell_length_c                    19.630996
_cell_angle_alpha                 118.134121
_cell_angle_beta                  62.215025
_cell_angle_gamma                 100.972633
_cell_volume                      4374.83738056

loop_
_atom_site_label
_atom_site_type_symbol
_atom_site_description
_atom_site_fract_x
_atom_site_fract_y
_atom_site_fract_z
_atom_type_partial_charge
C1    C     C_R   0.040417 0.757847 0.010335 -0.130934
H1    H     H_    0.082182 0.805900 0.037147 0.096409
N1    N     N_R   0.034930 0.670790 0.995440 -0.044947
C2    C     C_R   0.751583 0.452193 0.173660 -0.141280
H2    H     H_    0.699152 0.414868 0.157004 0.088193
N2    N     N_R   0.835850 0.454880 0.118930 -0.038882
C3    C     C_R   0.803140 0.560790 0.963977 -0.033418
H3    H     H_    0.812869 0.606522 0.937078 0.087467
N3    N     N_R   0.867000 0.509260 0.948460 -0.034616
C4    C     C_R   0.967817 0.674693 0.249181 -0.124884
H4    H     H_    0.936652 0.657845 0.302232 0.089577
N4    N     N_R   0.003780 0.616410 0.165900 -0.039705
C5    C     C_R   0.738374 0.477021 0.034092 -0.107271
H5    H     H_    0.690865 0.440883 0.067192 0.084010
N5    N     N_R   0.825670 0.461520 0.995440 -0.041974
C6    C     C_R   0.033286 0.752178 0.172510 -0.105215
H6    H     H_    0.058865 0.806056 0.154205 0.087866
N6    N     N_R   0.045120 0.664150 0.118920 -0.039757
C7    C     C_R   0.830211 0.522208 0.248956 -0.127723
H7    H     H_    0.849597 0.551326 0.300544 0.084681
N7    N     N_R   0.884940 0.497570 0.165910 -0.037964
C8    C     C_R   0.963218 0.688842 0.933783 -0.145199
H8    H     H_    0.933166 0.673128 0.891305 0.098279
N8    N     N_R   0.985840 0.628110 0.948460 -0.042649
C9    C     C_R   0.991576 0.772635 0.976584 0.056172
C10   C     C_R   0.744978 0.500646 0.255884 0.038049
C11   C     C_R   0.722044 0.544807 0.021570 0.035113
C12   C     C_R   0.980842 0.760845 0.254781 0.031082
C13   C     C_R   0.248257 0.571819 0.013829 -0.104057
H9    H     H_    0.281775 0.624375 0.996134 0.202553
N9    N     N_R   0.174330 0.538480 0.004560 -0.055774
C14   C     C_R   0.924057 0.261115 0.835695 -0.136977
H10   H     H_    0.876734 0.218684 0.862273 0.097120
N10   N     N_R   0.954880 0.335850 0.881080 -0.045984
C15   C     C_R   0.158340 0.501781 0.757299 -0.235799
H11   H     H_    0.128129 0.485645 0.714652 0.141798
N11   N     N_R   0.115060 0.502430 0.834090 -0.069517
C16   C     C_R   0.055059 0.308582 0.048272 -0.124713
H12   H     H_    0.096733 0.322056 0.080351 0.100742
N12   N     N_R   0.014160 0.371890 0.051540 -0.044263
C17   C     C_R   0.976964 0.239980 0.972384 -0.120185
H13   H     H_    0.945955 0.189389 0.933886 0.096017
N13   N     N_R   0.965070 0.329210 0.004560 -0.045109
C18   C     C_R   0.240673 0.567456 0.829292 0.615924
N14   N     N_R   0.164150 0.545120 0.881070 -0.097561
C19   C     C_R   0.183242 0.493294 0.088491 -0.141791
H14   H     H_    0.159819 0.472212 0.138694 0.093199
N15   N     N_R   0.133000 0.490740 0.051540 -0.045740
C20   C     C_R   0.991636 0.338088 0.758842 -0.058843
H15   H     H_    0.009132 0.365166 0.713624 0.121407
N16   N     N_R   0.996220 0.383590 0.834100 -0.046079
Ni1   Ni    Ni4+2 0.103690 0.603690 0.000000 0.238611
Ni2   Ni    Ni4+2 0.896310 0.396310 0.000000 0.214567
Ni3   Ni    Ni4+2 0.991110 0.505800 0.892250 0.237253
Ni4   Ni    Ni4+2 0.008890 0.494200 0.107750 0.208121
C21   C     C_R   0.256771 0.545013 0.066809 0.088176
C22   C     C_R   0.944297 0.261471 0.759211 0.080136
C23   C     C_R   0.236954 0.544509 0.752532 -0.131549
C24   C     C_R   0.033952 0.223758 0.998095 0.064487
C25   C     C_R   0.829743 0.919303 0.478985 -0.182763
H16   H     H_    0.775849 0.914800 0.535286 0.120677
C26   C     C_R   0.863328 0.841353 0.402657 -0.166300
H17   H     H_    0.831999 0.778440 0.400502 0.116793
C27   C     C_R   0.939300 0.844381 0.331736 0.145014
C28   C     C_R   0.975018 0.927684 0.335173 -0.173816
H18   H     H_    0.032635 0.932274 0.281089 0.113064
C29   C     C_R   0.941263 0.005607 0.411452 -0.162723
H19   H     H_    0.975343 0.067809 0.415172 0.126505
C30   C     C_R   0.872045 0.000679 0.484940 0.145915
C31   C     C_R   0.861272 0.161986 0.588083 -0.297075
H20   H     H_    0.846647 0.181113 0.549521 0.168513
C32   C     C_R   0.880060 0.227946 0.655511 0.362130
C33   C     C_R   0.906980 0.200212 0.699614 -0.023839
C34   C     C_R   0.902074 0.109729 0.684008 -0.205684
H21   H     H_    0.920965 0.087434 0.718093 0.131113
C35   C     C_R   0.880011 0.045692 0.619519 -0.151760
H22   H     H_    0.883830 0.975406 0.604436 0.124521
C36   C     C_R   0.864166 0.070857 0.568366 0.063887
C37   C     C_R   0.508196 0.587294 0.401862 -0.184831
H23   H     H_    0.448796 0.591576 0.396174 0.120610
C38   C     C_R   0.586997 0.551736 0.328204 -0.158642
H24   H     H_    0.588054 0.533144 0.266923 0.110742
C39   C     C_R   0.662680 0.538650 0.333830 0.145632
C40   C     C_R   0.660635 0.568090 0.414300 -0.180323
H25   H     H_    0.718526 0.560065 0.420312 0.112324
C41   C     C_R   0.581781 0.603504 0.487929 -0.162694
H26   H     H_    0.579618 0.618733 0.548924 0.119593
C42   C     C_R   0.504273 0.609501 0.481655 0.117967
C43   C     C_R   0.403160 0.672996 0.637116 -0.213175
H27   H     H_    0.444831 0.730243 0.650501 0.124618
C44   C     C_R   0.339839 0.653975 0.704030 -0.143632
H28   H     H_    0.330713 0.699346 0.768786 0.166372
C45   C     C_R   0.293238 0.574030 0.686040 0.160092
C46   C     C_R   0.301680 0.519982 0.602563 -0.165802
H29   H     H_    0.265244 0.458783 0.587447 0.122417
C47   C     C_R   0.363522 0.539743 0.536179 -0.168757
H30   H     H_    0.374917 0.492009 0.471170 0.120417
C48   C     C_R   0.418541 0.612981 0.552492 0.122093
C49   C     C_R   0.634719 0.589702 0.063521 0.136036
C50   C     C_R   0.325354 0.570009 0.099471 -0.041481
C51   C     C_R   0.404706 0.521623 0.149807 -0.221039
C52   C     C_R   0.330251 0.519920 0.138052 -0.235996
C53   C     C_R   0.391897 0.633725 0.084637 0.539262
C54   C     C_R   0.467255 0.635674 0.097860 0.007036
C55   C     C_R   0.475982 0.572922 0.122545 0.127167
C56   C     C_R   0.559052 0.553749 0.109286 -0.218618
C57   C     C_R   0.624156 0.664734 0.055285 -0.191338
C58   C     C_R   0.539120 0.691134 0.077593 -0.168912
H31   H     H_    0.564188 0.502259 0.125111 0.101737
H32   H     H_    0.681111 0.700106 0.028276 0.120678
H33   H     H_    0.409965 0.475906 0.172197 0.135996
H34   H     H_    0.531969 0.749028 0.070676 0.159891
H35   H     H_    0.280480 0.472498 0.152532 0.144489
C59   C     C_R   0.844343 0.180623 0.136156 0.114014
C60   C     C_R   0.965963 0.860903 0.991458 0.127892
C61   C     C_R   0.893828 0.946360 0.963121 -0.226263
C62   C     C_R   0.930953 0.865533 0.941000 -0.174092
C63   C     C_R   0.966441 0.939957 0.062809 -0.274147
C64   C     C_R   0.928357 0.021158 0.086023 0.185627
C65   C     C_R   0.890428 0.023985 0.036473 0.189017
C66   C     C_R   0.848217 0.103979 0.062285 -0.280461
C67   C     C_R   0.882946 0.178351 0.184386 -0.158779
C68   C     C_R   0.924854 0.099005 0.159619 -0.223307
H36   H     H_    0.818016 0.107331 0.025738 0.120382
H37   H     H_    0.879865 0.238162 0.241307 0.126080
H38   H     H_    0.865800 0.947585 0.924038 0.127726
H39   H     H_    0.953549 0.098200 0.198380 0.131481
H40   H     H_    0.930346 0.806247 0.885293 0.121611
H41   H     H_    0.992130 0.937586 0.103065 0.120596
O1    O     O_3   0.305553 0.616040 0.854023 -0.651033
C69   C     C_3   0.385626 0.562677 0.800351 -0.356919
H42   H     H_    0.401332 0.529558 0.730999 0.157911
H43   H     H_    0.383178 0.510444 0.820639 0.159853
H44   H     H_    0.442157 0.606333 0.805753 0.174434
N17   N     N_R   0.869571 0.321415 0.679260 0.219998
O2    O     O_R   0.830556 0.378308 0.759825 -0.418900
O3    O     O_R   0.885437 0.347076 0.621183 -0.419902
O4    O     O_3   0.384067 0.692322 0.056725 -0.627686
C70   C     C_3   0.441396 0.662446 0.968118 -0.307435
H45   H     H_    0.439345 0.588418 0.930403 0.135186
H46   H     H_    0.511344 0.680768 0.955107 0.150692
H47   H     H_    0.419189 0.697688 0.944224 0.205670

loop_
_geom_bond_atom_site_label_1
_geom_bond_atom_site_label_2
_geom_bond_distance
_ccdc_geom_bond_type
C6    C12   1.381621 A    
N15   Ni4   1.864559 S    
C45   C46   1.399496 A    
C31   C36   1.399619 A    
C17   H13   1.080260 S    
C7    H7    1.074786 S    
N9    Ni1   1.829107 S    
C69   H44   1.106854 S    
C20   N16   1.338928 A    
C38   H24   1.082745 S    
N1    N8    1.387267 A    
N6    Ni1   1.858744 S    
C3    H3    1.073937 S    
C18   N14   1.343588 A    
C11   C49   1.465532 S    
N10   N16   1.367757 A    
C51   C52   1.379302 A    
C34   C35   1.380843 A    
C15   C23   1.374137 A    
N5    Ni2   1.829113 S    
C15   N11   1.329420 A    
C23   C45   1.460241 S    
C40   C41   1.386828 A    
C9    C60   1.484214 S    
C16   H12   1.080571 S    
C70   H47   1.107699 S    
C41   C42   1.403187 A    
C18   O1    1.377826 S    
C10   C39   1.458079 S    
C3    C11   1.392910 A    
C61   C62   1.397466 A    
C25   C26   1.388245 A    
C1    H1    1.078045 S    
C33   C34   1.399526 A    
C22   C33   1.462219 S    
C7    C10   1.380538 A    
C63   C64   1.403626 A    
C37   C42   1.399180 A    
C66   H36   1.082908 S    
C26   C27   1.404174 A    
C59   C66   1.397051 A    
N17   O3    1.301302 A    
N13   Ni2   1.828095 S    
N12   N13   1.387266 A    
C15   H11   1.081742 S    
C18   C23   1.397921 A    
C6    H6    1.073887 S    
C28   C29   1.387835 A    
C8    C9    1.389109 A    
C47   C48   1.401391 A    
C57   C58   1.394125 A    
C31   H20   1.083539 S    
C43   C44   1.390242 A    
C13   H9    1.068624 S    
N12   Ni4   1.817702 S    
C61   H38   1.083629 S    
C5    H5    1.067961 S    
C1    C9    1.390793 A    
C17   N13   1.341609 A    
C30   C36   1.458634 S    
C14   C22   1.378137 A    
C54   C55   1.408378 A    
C38   C39   1.404807 A    
C51   C55   1.389558 A    
C19   N15   1.337278 A    
C34   H21   1.083650 S    
C29   H19   1.083536 S    
N17   O2    1.301536 A    
C40   H25   1.082185 S    
C17   C24   1.396617 A    
C2    N2    1.338016 A    
O4    C70   1.417240 S    
C53   O4    1.385585 S    
C44   H28   1.081350 S    
N7    Ni4   1.864647 S    
C41   H26   1.083440 S    
C2    H2    1.076253 S    
C32   N17   1.436911 S    
N14   Ni1   1.859227 S    
C60   C62   1.406918 A    
N2    N7    1.387280 A    
C50   C53   1.427808 A    
C61   C65   1.400729 A    
C14   H10   1.081894 S    
C25   H16   1.083535 S    
C1    N1    1.346631 A    
C14   N10   1.333478 A    
C26   H17   1.082399 S    
C44   C45   1.403543 A    
C68   H39   1.083554 S    
C39   C40   1.399731 A    
C64   C65   1.414869 A    
C60   C63   1.408049 A    
C47   H30   1.083478 S    
C50   C52   1.407242 A    
C35   H22   1.083591 S    
C46   C47   1.382571 A    
C4    N4    1.339147 A    
N11   Ni3   1.864644 S    
C12   C27   1.462554 S    
C20   H15   1.081055 S    
N9    N15   1.367747 A    
C5    N5    1.323298 A    
C57   H32   1.082240 S    
C8    N8    1.344404 A    
C37   H23   1.083577 S    
C21   C50   1.482469 S    
N2    Ni2   1.859226 S    
N11   N14   1.387282 A    
C69   H42   1.112582 S    
C43   H27   1.083339 S    
C54   C58   1.408114 A    
C65   C66   1.403758 A    
C37   C38   1.386846 A    
C4    C12   1.384480 A    
C3    N3    1.349677 A    
C49   C56   1.401544 A    
C19   H14   1.080008 S    
C7    N7    1.337796 A    
N4    N6    1.367757 A    
C35   C36   1.398890 A    
C32   C33   1.417032 A    
C69   H43   1.111525 S    
C20   C22   1.385492 A    
C2    C10   1.381254 A    
C70   H45   1.114009 S    
C13   C21   1.383563 A    
C64   C68   1.404699 A    
C51   H33   1.084465 S    
C49   C57   1.400527 A    
C55   C56   1.382545 A    
C43   C48   1.400788 A    
N16   Ni3   1.818647 S    
C27   C28   1.402066 A    
C67   H37   1.081772 S    
O1    C69   1.414796 S    
N3    N5    1.367742 A    
C13   N9    1.330702 A    
C52   H35   1.079677 S    
N1    Ni1   1.828098 S    
C16   N12   1.341144 A    
C70   H46   1.105353 S    
C25   C30   1.400116 A    
C46   H29   1.083022 S    
C62   H40   1.081640 S    
N4    Ni4   1.818647 S    
C4    H4    1.073730 S    
C16   C24   1.395267 A    
C59   C67   1.396093 A    
C58   H34   1.081368 S    
N10   Ni2   1.858745 S    
C6    N6    1.338225 A    
C28   H18   1.081705 S    
C19   C21   1.392082 A    
C53   C54   1.410487 A    
C63   H41   1.083396 S    
C8    H8    1.078185 S    
C5    C11   1.374578 A    
C31   C32   1.399941 A    
N3    Ni3   1.864562 S    
C29   C30   1.401388 A    
C67   C68   1.398219 A    
N8    Ni3   1.817704 S    
C42   C48   1.457181 S    
C56   H31   1.079062 S    
