data_mof_unit_53174.cif
_audit_creation_date              2012-12-10T18:43:03-0500
_audit_creation_method            fapswitch 2.2
_symmetry_space_group_name_H-M    P1
_symmetry_Int_Tables_number       1
_space_group_crystal_system       triclinic
_cell_length_a                    18.091108
_cell_length_b                    18.081158
_cell_length_c                    18.090418
_cell_angle_alpha                 120.029255
_cell_angle_beta                  90.064618
_cell_angle_gamma                 60.057793
_cell_volume                      4188.47351511

loop_
_atom_site_label
_atom_site_type_symbol
_atom_type_description
_atom_site_fract_x
_atom_site_fract_y
_atom_site_fract_z
_atom_type_partial_charge
C1    C     C_R   0.891454 0.216781 0.608488 0.539429
C2    C     C_3   0.551272 0.897444 0.948000 0.066061
C3    C     C_3   0.450613 0.033005 0.077743 0.026821
C4    C     C_3   0.549388 0.966995 0.922256 0.026820
C5    C     C_3   0.043508 0.405824 0.483766 0.233082
C6    C     C_3   0.956490 0.594178 0.516235 0.233090
C7    C     C_3   0.076153 0.477061 0.519450 0.242113
C8    C     C_3   0.923845 0.522940 0.480549 0.242101
C9    C     C_3   0.051522 0.499092 0.447961 0.022593
C10   C     C_3   0.948477 0.500909 0.552040 0.022598
C11   C     C_3   0.018742 0.426427 0.411063 -0.174325
C12   C     C_R   0.108546 0.783219 0.391511 0.539429
C13   C     C_3   0.981258 0.573574 0.588937 -0.174304
C14   C     C_3   0.924077 0.033660 0.481650 0.277322
C15   C     C_3   0.075923 0.966340 0.518350 0.277323
C16   C     C_R   0.608492 0.783108 0.891307 0.548537
C17   C     C_R   0.391508 0.216892 0.108692 0.548538
C18   C     C_3   0.955950 0.964661 0.516919 -0.154721
C19   C     C_3   0.044050 0.035339 0.483081 -0.154722
C20   C     C_3   0.050994 0.897637 0.448357 0.040092
C21   C     C_3   0.949006 0.102363 0.551643 0.040092
C22   C     C_3   0.018335 0.965926 0.411981 -0.137519
C23   C     C_3   0.517265 0.404419 0.447678 -0.122427
C24   C     C_3   0.981665 0.034074 0.588019 -0.137518
C25   C     C_3   0.923865 0.522991 0.042364 0.242391
C26   C     C_3   0.076137 0.477008 0.957634 0.242412
C27   C     C_3   0.956602 0.594139 0.077929 0.240765
C28   C     C_3   0.043399 0.405859 0.922069 0.240766
C29   C     C_3   0.051608 0.498948 0.051065 0.021868
C30   C     C_3   0.948393 0.501051 0.948933 0.021870
C31   C     C_3   0.018752 0.426340 0.015299 -0.175994
C32   C     C_3   0.981249 0.573659 0.984700 -0.175975
C33   C     C_3   0.585911 0.427188 0.980636 0.253545
C34   C     C_3   0.482735 0.595581 0.552322 -0.122428
C35   C     C_3   0.414089 0.572812 0.019364 0.253545
C36   C     C_3   0.515126 0.403494 0.954343 -0.193104
C37   C     C_3   0.484874 0.596507 0.045657 -0.193106
C38   C     C_3   0.448141 0.500231 0.051067 0.020710
C39   C     C_3   0.551859 0.499769 0.948933 0.020709
C40   C     C_R   0.608605 0.499681 0.891364 0.547441
C41   C     C_R   0.391395 0.500319 0.108636 0.547441
C42   C     C_3   0.519627 0.522243 0.076032 0.241973
C43   C     C_3   0.480373 0.477757 0.923969 0.241974
C44   C     C_R   0.891456 0.500237 0.608576 0.573720
C45   C     C_3   0.447174 0.964969 0.984178 -0.144027
C46   C     C_R   0.108544 0.499764 0.391424 0.573717
C47   C     C_R   0.891398 0.500247 0.891698 0.555307
C48   C     C_R   0.108602 0.499752 0.108302 0.555305
C49   C     C_R   0.608450 0.499934 0.608279 0.520610
C50   C     C_R   0.391550 0.500066 0.391721 0.520611
C51   C     C_3   0.587086 0.429779 0.446793 -0.106582
C52   C     C_3   0.412914 0.570221 0.553207 -0.106582
C53   C     C_3   0.517456 0.525778 0.447612 -0.120695
C54   C     C_3   0.482544 0.474222 0.552388 -0.120694
C55   C     C_3   0.448592 0.500353 0.449322 0.063084
C56   C     C_3   0.552826 0.035031 0.015821 -0.144025
C57   C     C_3   0.551408 0.499647 0.550678 0.063084
C58   C     C_3   0.836192 0.996473 0.398610 -0.108096
C59   C     C_3   0.163808 0.003526 0.601390 -0.108096
C60   C     C_3   0.836010 0.767190 0.165946 -0.119936
C61   C     C_3   0.163987 0.232806 0.834057 -0.119958
C62   C     C_3   0.840391 0.550052 0.160284 -0.121417
C63   C     C_3   0.159629 0.449909 0.839696 -0.121418
C64   C     C_3   0.689886 0.288944 0.985063 -0.101446
C65   C     C_3   0.310114 0.711056 0.014937 -0.101447
C66   C     C_3   0.596349 0.572828 0.168619 -0.109885
C67   C     C_3   0.445174 0.035770 0.958263 -0.160164
C68   C     C_3   0.403650 0.427175 0.831382 -0.109886
C69   C     C_2   0.396463 0.066711 0.164501 0.209353
C70   C     C_2   0.603537 0.933289 0.835498 0.209349
C71   C     C_3   0.159576 0.449408 0.610334 -0.115924
C72   C     C_3   0.840426 0.550589 0.389662 -0.115985
C73   C     C_3   0.164981 0.233217 0.398962 -0.090570
C74   C     C_3   0.834991 0.766770 0.601000 -0.090526
C75   C     C_3   0.554827 0.964230 0.041736 -0.160163
C76   C     C_3   0.448728 0.102555 0.051999 0.066061
H1    H     H_    0.530662 0.546886 0.403590 0.129385
H2    H     H_    0.474367 0.673594 0.080780 0.097655
H3    H     H_    0.659458 0.372134 0.403989 0.138738
H4    H     H_    0.340542 0.627866 0.596011 0.138739
H5    H     H_    0.530305 0.326124 0.403724 0.122587
H6    H     H_    0.469695 0.673876 0.596276 0.122585
H7    H     H_    0.399869 0.066526 0.924655 0.103781
H8    H     H_    0.600131 0.933474 0.075344 0.103783
H9    H     H_    0.404358 0.935240 0.971080 0.122847
H10   H     H_    0.595643 0.064760 0.028919 0.122848
H11   H     H_    0.035075 0.367421 0.338559 0.121528
H12   H     H_    0.469338 0.453114 0.596410 0.129386
H13   H     H_    0.964930 0.632575 0.661441 0.121523
H14   H     H_    0.839770 0.946030 0.418562 0.120272
H15   H     H_    0.890099 0.948675 0.333166 0.129258
H16   H     H_    0.770222 0.031921 0.388035 0.135506
H17   H     H_    0.109901 0.051325 0.666834 0.129258
H18   H     H_    0.160230 0.053971 0.581439 0.120274
H19   H     H_    0.229777 0.968078 0.611965 0.135506
H20   H     H_    0.788675 0.743987 0.147748 0.151036
H21   H     H_    0.851278 0.786213 0.120884 0.117086
H22   H     H_    0.801194 0.839434 0.235887 0.119607
H23   H     H_    0.921003 0.933733 0.528812 0.124313
H24   H     H_    0.148714 0.213782 0.879117 0.117096
H25   H     H_    0.211321 0.256008 0.852261 0.151012
H26   H     H_    0.198806 0.160561 0.764116 0.119608
H27   H     H_    0.857814 0.602588 0.208915 0.151028
H28   H     H_    0.887433 0.469601 0.142156 0.115698
H29   H     H_    0.771579 0.579723 0.195061 0.113890
H30   H     H_    0.112523 0.530331 0.857782 0.115677
H31   H     H_    0.142309 0.397276 0.791026 0.151023
H32   H     H_    0.228418 0.420331 0.804982 0.113905
H33   H     H_    0.668935 0.237393 0.942822 0.110870
H34   H     H_    0.078997 0.066267 0.471188 0.124315
H35   H     H_    0.652394 0.334728 0.058090 0.160453
H36   H     H_    0.762653 0.237873 0.974281 0.136683
H37   H     H_    0.347607 0.665272 0.941910 0.160453
H38   H     H_    0.331066 0.762607 0.057178 0.110869
H39   H     H_    0.237347 0.762127 0.025720 0.136685
H40   H     H_    0.563367 0.650182 0.179900 0.114703
H41   H     H_    0.660219 0.513370 0.109993 0.170936
H42   H     H_    0.614546 0.580690 0.229495 0.126590
H43   H     H_    0.339778 0.486636 0.890006 0.170937
H44   H     H_    0.436628 0.349824 0.820107 0.114699
H45   H     H_    0.033414 0.936399 0.339532 0.136933
H46   H     H_    0.385457 0.419307 0.770504 0.126588
H47   H     H_    0.403815 0.008168 0.172676 0.083475
H48   H     H_    0.596185 0.991832 0.827323 0.083473
H49   H     H_    0.143007 0.395903 0.605433 0.147585
H50   H     H_    0.111948 0.529467 0.672818 0.110544
H51   H     H_    0.228183 0.420444 0.616007 0.130406
H52   H     H_    0.888055 0.470530 0.327178 0.110566
H53   H     H_    0.856996 0.604094 0.394566 0.147549
H54   H     H_    0.771819 0.579553 0.383988 0.130406
H55   H     H_    0.212106 0.256854 0.405502 0.184610
H56   H     H_    0.966586 0.063601 0.660468 0.136934
H57   H     H_    0.150526 0.214749 0.334554 0.133658
H58   H     H_    0.199701 0.160512 0.395932 0.130766
H59   H     H_    0.849381 0.785143 0.665446 0.133725
H60   H     H_    0.787818 0.743157 0.594318 0.184579
H61   H     H_    0.800355 0.839535 0.604103 0.130763
H62   H     H_    0.035148 0.367320 0.028817 0.116444
H63   H     H_    0.964848 0.632683 0.971186 0.116450
H64   H     H_    0.525634 0.326406 0.919221 0.097655
O1    O     O_3   0.750010 0.499980 0.749990 -0.467969
O2    O     O_R   0.305750 0.265450 0.132730 -0.512408
O3    O     O_R   0.867280 0.265410 0.571220 -0.515647
O4    O     O_R   0.132720 0.734590 0.428780 -0.515644
O5    O     O_R   0.571230 0.734580 0.867270 -0.559797
O6    O     O_R   0.428770 0.265420 0.132730 -0.559797
O7    O     O_R   0.694200 0.438470 0.867270 -0.495342
O8    O     O_R   0.305800 0.561530 0.132730 -0.495341
O9    O     O_R   0.867340 0.561470 0.694210 -0.550958
O10   O     O_R   0.132660 0.438530 0.305790 -0.550962
O11   O     O_R   0.867310 0.438430 0.867270 -0.494059
O12   O     O_3   0.249990 0.500020 0.250010 -0.467970
O13   O     O_R   0.132690 0.561570 0.132730 -0.494055
O14   O     O_R   0.694200 0.438520 0.571220 -0.533816
O15   O     O_R   0.305800 0.561480 0.428780 -0.533816
O16   O     O_R   0.867340 0.561440 0.867270 -0.575615
O17   O     O_R   0.132660 0.438560 0.132730 -0.575618
O18   O     O_R   0.571190 0.561530 0.694210 -0.537973
O19   O     O_R   0.428810 0.438470 0.305790 -0.537973
O20   O     O_3   0.840683 0.077396 0.466980 -0.546478
O21   O     O_3   0.159317 0.922604 0.533020 -0.546478
O22   O     O_3   0.916058 0.689764 0.163874 -0.564834
O23   O     O_R   0.571190 0.561490 0.867270 -0.543957
O24   O     O_3   0.083942 0.310231 0.836126 -0.564838
O25   O     O_3   0.839717 0.549688 0.082253 -0.561770
O26   O     O_3   0.160281 0.450322 0.917753 -0.561768
O27   O     O_3   0.678924 0.353977 0.958554 -0.537355
O28   O     O_3   0.321077 0.646024 0.041446 -0.537354
O29   O     O_3   0.536742 0.542509 0.157879 -0.557811
O30   O     O_3   0.463259 0.457490 0.842121 -0.557810
O31   O     O_2   0.344381 0.159131 0.226041 -0.511745
O32   O     O_2   0.655620 0.840869 0.773958 -0.511735
O33   O     O_3   0.160163 0.450603 0.533077 -0.549283
O34   O     O_R   0.428810 0.438510 0.132730 -0.543957
O35   O     O_3   0.839838 0.549391 0.466917 -0.549311
O36   O     O_3   0.084425 0.309886 0.473616 -0.572098
O37   O     O_3   0.915586 0.690118 0.526390 -0.572102
O38   O     O_R   0.867310 0.438490 0.571220 -0.496204
O39   O     O_R   0.132690 0.561510 0.428780 -0.496195
O40   O     O_R   0.867280 0.265380 0.694210 -0.546616
O41   O     O_R   0.132720 0.734620 0.305790 -0.546616
O42   O     O_R   0.694250 0.734550 0.867270 -0.512408
Zn1   Zn    Zn3+2 0.618190 0.587870 0.793920 0.947017
Zn2   Zn    Zn3+2 0.381810 0.412130 0.206080 0.947018
Zn3   Zn    Zn3+2 0.793940 0.412090 0.793920 0.993934
Zn4   Zn    Zn3+2 0.206060 0.587910 0.206080 0.993936
Zn5   Zn    Zn3+2 0.793970 0.587840 0.793920 0.952488
Zn6   Zn    Zn3+2 0.206030 0.412160 0.206080 0.952483
Zn7   Zn    Zn3+2 0.793940 0.412130 0.618200 0.999437
Zn8   Zn    Zn3+2 0.206060 0.587870 0.381800 0.999441

loop_
_geom_bond_atom_site_label_1
_geom_bond_atom_site_label_2
_ccdc_geom_bond_type
C25   C31   S    
C54   H12   S    
C48   O13   A    
C73   H55   S    
C1    C21   S    
C56   C76   S    
C27   C29   S    
C61   O24   S    
C65   H38   S    
C14   C18   S    
C66   O29   S    
C61   H25   S    
O17   Zn6   S    
O12   Zn6   S    
C6    C9    S    
C4    C70   S    
C8    O35   S    
C72   H53   S    
C62   H29   S    
O7    Zn3   S    
C26   C32   S    
C74   O37   S    
C65   O28   S    
C33   C39   S    
C66   H40   S    
C72   H52   S    
C59   O21   S    
C33   C42   S    
C14   C21   S    
C3    C69   S    
C5    C11   S    
C64   O27   S    
C60   H22   S    
C23   C54   S    
C27   O22   S    
O10   Zn6   S    
C1    O40   A    
C16   O42   A    
C75   H8    S    
O16   Zn5   S    
C47   O16   A    
C69   H47   S    
O8    Zn4   S    
C33   C36   S    
C49   C57   S    
O11   Zn3   S    
C69   O31   D    
C72   O35   S    
C37   C42   S    
C70   O32   D    
O12   Zn8   S    
C34   C52   S    
C15   C19   S    
C68   O30   S    
C63   O26   S    
C23   C51   S    
C11   H11   S    
C66   H41   S    
C74   H60   S    
C45   C67   S    
C17   C76   S    
C60   O22   S    
C71   H50   S    
C26   C29   S    
C51   C57   S    
C59   H18   S    
O19   Zn2   S    
O12   Zn2   S    
C35   C43   S    
C58   H15   S    
C52   C55   S    
C13   H13   S    
C9    C46   S    
C56   C75   S    
C4    C56   S    
C65   H39   S    
C71   H51   S    
C33   O27   S    
C59   H19   S    
C43   O30   S    
C52   C54   S    
C62   H28   S    
C53   C55   S    
C2    C45   S    
C15   C20   S    
C74   H61   S    
C29   C48   S    
O23   Zn1   S    
C49   O14   A    
C19   C22   S    
O1    Zn7   S    
C40   O23   A    
O12   Zn4   S    
C60   H21   S    
C44   O38   A    
C39   C40   S    
C5    C7    S    
O38   Zn7   S    
C64   H35   S    
C39   C43   S    
C25   O25   S    
C10   C44   S    
C3    C45   S    
C12   O4    A    
C14   O20   S    
C17   O2    A    
O1    Zn1   S    
C32   H63   S    
C2    C4    S    
C1    O3    A    
O15   Zn8   S    
C70   H48   S    
C34   C57   S    
C9    C11   S    
C30   C47   S    
C48   O17   A    
C56   H10   S    
C12   O41   A    
C50   O15   A    
C42   O29   S    
C74   H59   S    
C12   C20   S    
C68   H46   S    
C35   O28   S    
O3    Zn7   S    
C67   H7    S    
C63   H30   S    
C23   C55   S    
C3    C76   S    
C36   H64   S    
C38   C41   S    
O1    Zn5   S    
C60   H20   S    
C8    C10   S    
C15   C24   S    
C46   O10   A    
O14   Zn7   S    
C73   H57   S    
O9    Zn5   S    
C6    O37   S    
C66   H42   S    
C53   H1    S    
C59   H17   S    
C5    O36   S    
C18   C24   S    
C49   O18   A    
C61   H24   S    
O1    Zn3   S    
C18   H23   S    
C63   H31   S    
C3    C75   S    
C28   O24   S    
C22   H45   S    
C62   H27   S    
O18   Zn1   S    
C19   H34   S    
C25   C30   S    
C7    C9    S    
O34   Zn2   S    
C26   O26   S    
C23   H5    S    
C40   O7    A    
C35   C37   S    
C27   C32   S    
C65   H37   S    
C46   O39   A    
C15   O21   S    
C28   C31   S    
C71   H49   S    
C50   C55   S    
C20   C22   S    
C68   H43   S    
C10   C13   S    
C4    C67   S    
C6    C8    S    
O41   Zn4   S    
C72   H54   S    
C50   O19   A    
C25   C27   S    
O2    Zn6   S    
C37   H2    S    
O5    Zn1   S    
C26   C28   S    
C44   O9    A    
O6    Zn2   S    
C45   H9    S    
C58   H14   S    
C31   H62   S    
C14   C22   S    
C73   O36   S    
C28   C30   S    
C17   O6    A    
C5    C10   S    
C37   C39   S    
C58   O20   S    
C68   H44   S    
C6    C13   S    
C30   C32   S    
C24   H56   S    
C64   H33   S    
O39   Zn8   S    
C2    C16   S    
C41   O34   A    
C8    C11   S    
C7    O33   S    
C36   C38   S    
C61   H26   S    
C18   C20   S    
O42   Zn5   S    
C51   H3    S    
C64   H36   S    
O40   Zn3   S    
C47   O11   A    
C38   C42   S    
C71   O33   S    
C7    C13   S    
C62   O25   S    
C73   H58   S    
O4    Zn8   S    
C34   C53   S    
C29   C31   S    
O13   Zn4   S    
C21   C24   S    
C35   C38   S    
C16   O5    A    
C36   C43   S    
C67   C76   S    
C34   H6    S    
C51   C53   S    
C63   H32   S    
C52   H4    S    
C58   H16   S    
C2    C75   S    
C19   C21   S    
C54   C57   S    
C41   O8    A    
