data_mof_unit_67730.cif
_audit_creation_date              2012-12-10T19:48:34-0500
_audit_creation_method            fapswitch 2.2
_symmetry_space_group_name_H-M    P1
_symmetry_Int_Tables_number       1
_space_group_crystal_system       triclinic
_cell_length_a                    11.555024
_cell_length_b                    10.750981
_cell_length_c                    9.770759
_cell_angle_alpha                 85.275113
_cell_angle_beta                  92.879509
_cell_angle_gamma                 90.537902
_cell_volume                      1208.13130643

loop_
_atom_site_label
_atom_site_type_symbol
_atom_type_description
_atom_site_fract_x
_atom_site_fract_y
_atom_site_fract_z
_atom_type_partial_charge
C1    C     C_R   0.502447 0.260691 0.504905 0.792464
C2    C     C_3   0.400444 0.050864 0.455961 0.166250
C3    C     C_3   0.494333 0.877218 0.488292 -0.165275
C4    C     C_3   0.504363 0.123524 0.512634 -0.122683
C5    C     C_3   0.412643 0.948616 0.576683 -0.178934
C6    C     C_3   0.586191 0.052475 0.424991 -0.189084
C7    C     C_3   0.527175 0.604979 0.040580 0.229263
C8    C     C_3   0.472376 0.394485 0.959722 0.152026
C9    C     C_3   0.427703 0.579606 0.936673 0.192836
C10   C     C_3   0.571497 0.420252 0.063406 0.213279
C11   C     C_3   0.598953 0.526968 0.955757 0.103911
C12   C     C_R   0.497038 0.739554 0.495205 0.793856
C13   C     C_3   0.399864 0.472989 0.046444 0.150086
C14   C     C_R   0.263022 0.501623 0.498247 0.776942
C15   C     C_R   0.737345 0.498291 0.501940 0.778771
C16   C     C_R   0.134343 0.826929 0.137030 0.160133
C17   C     C_R   0.872168 0.173834 0.866959 0.148102
C18   C     C_R   0.119849 0.770557 0.269536 0.120994
C19   C     C_R   0.883770 0.229941 0.733597 0.126220
C20   C     C_R   0.106381 0.641011 0.288427 -0.065975
C21   C     C_R   0.898243 0.359346 0.713902 -0.050673
C22   C     C_R   0.113287 0.563915 0.181239 0.181446
C23   C     C_R   0.872282 0.497491 0.500475 -0.152090
C24   C     C_R   0.899752 0.435733 0.822185 0.097895
C25   C     C_R   0.128282 0.619989 0.047549 0.124468
C26   C     C_R   0.882595 0.380933 0.955890 0.101845
C27   C     C_R   0.133789 0.752923 0.024553 0.099643
C28   C     C_R   0.874343 0.248243 0.979361 0.114450
C29   C     C_R   0.932944 0.582677 0.411198 0.171142
C30   C     C_R   0.068519 0.416984 0.588743 0.175007
C31   C     C_R   0.128704 0.502549 0.500225 -0.147753
C32   C     C_R   0.944276 0.416206 0.589291 0.101920
C33   C     C_R   0.057363 0.583601 0.411272 0.095654
C34   C     C_3   0.518857 0.021156 0.631572 0.181228
C35   C     C_3   0.479892 0.980443 0.369754 0.175255
C36   C     C_3   0.598523 0.950018 0.545807 0.117070
Cu1   Cu    Cu3+1 0.500030 0.499990 0.643150 0.935168
Cu2   Cu    Cu3+1 0.499970 0.500010 0.356850 0.951049
H1    H     H_    0.341030 0.908686 0.638300 0.177762
H2    H     H_    0.668033 0.266423 0.056950 0.192684
H3    H     H_    0.489913 0.755857 0.131299 0.218003
H4    H     H_    0.628862 0.712594 0.158402 0.245218
H5    H     H_    0.376441 0.283735 0.838466 0.240160
H6    H     H_    0.514536 0.239612 0.873832 0.257255
H7    H     H_    0.676312 0.671562 0.856520 0.273296
H8    H     H_    0.718100 0.528887 0.835714 0.276062
H9    H     H_    0.265203 0.354087 0.026119 0.230919
H10   H     H_    0.331953 0.347366 0.180339 0.282855
H11   H     H_    0.207316 0.541721 0.893950 0.215937
H12   H     H_    0.657715 0.092656 0.363376 0.176626
H13   H     H_    0.102531 0.452733 0.960742 0.270836
H14   H     H_    0.798152 0.456846 0.106389 0.226717
H15   H     H_    0.898666 0.551319 0.039919 0.289340
H16   H     H_    0.815058 0.721765 0.373740 0.221640
H17   H     H_    0.820815 0.624111 0.246958 0.240015
H18   H     H_    0.180033 0.375751 0.753848 0.229937
H19   H     H_    0.187800 0.279025 0.626492 0.222935
H20   H     H_    0.689027 0.825118 0.675748 0.245844
H21   H     H_    0.741668 0.849274 0.518923 0.230280
H22   H     H_    0.309339 0.172239 0.323021 0.257434
H23   H     H_    0.201688 0.876990 0.879389 0.226869
H24   H     H_    0.258878 0.154490 0.481382 0.220035
H25   H     H_    0.553301 0.951692 0.828651 0.258708
H26   H     H_    0.623870 0.084727 0.782335 0.235839
H27   H     H_    0.390664 0.899587 0.216716 0.229316
H28   H     H_    0.528162 0.947906 0.179633 0.231475
H29   H     H_    0.142045 0.753068 0.813357 0.261636
H30   H     H_    0.802648 0.126089 0.123337 0.222224
H31   H     H_    0.862525 0.249580 0.189845 0.259768
H32   H     H_    0.317610 0.670692 0.789201 0.241623
H33   H     H_    0.338335 0.739123 0.942859 0.197454
H34   H     H_    0.683327 0.333156 0.211414 0.239178
I1    I     I_    0.150889 0.024896 0.102572 -0.225203
I2    I     I_    0.855383 0.975835 0.902046 -0.252933
I3    I     I_    0.104608 0.876455 0.442658 -0.252225
I4    I     I_    0.893373 0.123858 0.559807 -0.261626
I5    I     I_    0.085655 0.361372 0.232729 -0.370881
I6    I     I_    0.920875 0.639609 0.769536 -0.369072
N1    N     N_3   0.500090 0.499970 0.858290 -0.234772
N2    N     N_3   0.300791 0.410109 0.100097 -0.546253
N3    N     N_3   0.126485 0.544335 0.933536 -0.565662
N4    N     N_3   0.879900 0.458327 0.068494 -0.563348
N5    N     N_3   0.870417 0.671471 0.318127 -0.550607
N6    N     N_3   0.131502 0.328360 0.681759 -0.552191
N7    N     N_3   0.707586 0.894027 0.598401 -0.498713
N8    N     N_3   0.291243 0.106372 0.403491 -0.484675
N9    N     N_3   0.543567 0.039725 0.775593 -0.573431
N10   N     N_3   0.452074 0.970753 0.224697 -0.533519
N11   N     N_3   0.499910 0.500030 0.141710 -0.226723
N12   N     N_3   0.131557 0.815331 0.887798 -0.467747
N13   N     N_3   0.873754 0.186551 0.116309 -0.470620
N14   N     N_3   0.376207 0.692074 0.868301 -0.571242
N15   N     N_3   0.626394 0.309645 0.131627 -0.558093
N16   N     N_3   0.561509 0.726164 0.083438 -0.572703
N17   N     N_3   0.441203 0.271843 0.916837 -0.538482
N18   N     N_3   0.700473 0.586446 0.909076 -0.574355
O1    O     O_R   0.500060 0.316850 0.620870 -0.595064
O2    O     O_R   0.499940 0.683150 0.379130 -0.607088
O3    O     O_R   0.500000 0.316860 0.379090 -0.564805
O4    O     O_R   0.500000 0.683140 0.620910 -0.559186
O5    O     O_R   0.319670 0.500010 0.620890 -0.608114
O6    O     O_R   0.680330 0.499990 0.379110 -0.605639
O7    O     O_R   0.319620 0.500010 0.379110 -0.554338
O8    O     O_R   0.680380 0.499990 0.620890 -0.592474

loop_
_geom_bond_atom_site_label_1
_geom_bond_atom_site_label_2
_ccdc_geom_bond_type
C11   N18   S    
C2    C35   S    
C30   C32   A    
C18   I3    S    
H2    N15   S    
Cu2   O2    S    
C1    O3    A    
Cu1   O1    S    
C7    C11   S    
Cu1   N1    S    
Cu2   N11   S    
C8    C13   S    
C23   C29   A    
C19   I4    S    
C19   C21   A    
Cu1   Cu2   S    
C24   C26   A    
C29   N5    S    
H28   N10   S    
C30   C31   A    
C7    N11   S    
C29   C33   A    
H30   N13   S    
C6    C35   S    
C27   N12   S    
C9    N1    S    
H11   N3    S    
C14   C31   S    
C9    C13   S    
C3    C12   S    
H33   N14   S    
C10   N11   S    
C22   C25   A    
C8    N1    S    
H5    N17   S    
C31   C33   A    
C15   O8    A    
H13   N3    S    
H26   N9    S    
C12   O2    A    
H25   N9    S    
C16   C27   A    
C15   C23   S    
C13   N2    S    
C26   N4    S    
C25   N3    S    
C8    N17   S    
H9    N2    S    
C9    N14   S    
H16   N5    S    
H18   N6    S    
C21   C32   S    
C4    C34   S    
C16   I1    S    
C4    C6    S    
C1    O1    A    
H22   N8    S    
C14   O5    A    
C10   N15   S    
H29   N12   S    
H15   N4    S    
C2    C4    S    
H21   N7    S    
Cu2   O7    S    
H24   N8    S    
C35   N10   S    
H3    N16   S    
C3    C35   S    
C5    C34   S    
H19   N6    S    
C16   C18   A    
C6    H12   S    
H14   N4    S    
C11   N1    S    
C20   C33   S    
C24   I6    S    
C20   C22   A    
C5    H1    S    
C17   I2    S    
C2    C5    S    
H34   N15   S    
H17   N5    S    
H20   N7    S    
H23   N12   S    
H27   N10   S    
C7    C9    S    
C7    N16   S    
C13   N11   S    
H4    N16   S    
C17   C28   A    
H32   N14   S    
C22   I5    S    
Cu2   O3    S    
C3    C5    S    
Cu1   O8    S    
C18   C20   A    
C36   N7    S    
C25   C27   A    
C26   C28   A    
C1    C4    S    
C23   C32   A    
H10   N2    S    
Cu2   O6    S    
H6    N17   S    
Cu1   O5    S    
C14   O7    A    
C3    C36   S    
C17   C19   A    
C6    C36   S    
C2    N8    S    
C28   N13   S    
C34   C36   S    
C34   N9    S    
C15   O6    A    
C30   N6    S    
C12   O4    A    
C10   C11   S    
H8    N18   S    
C8    C10   S    
C21   C24   A    
H31   N13   S    
H7    N18   S    
Cu1   O4    S    
