data_mof_unit_11682.cif
_audit_creation_date              2012-12-10T16:53:11-0500
_audit_creation_method            fapswitch 2.2
_symmetry_space_group_name_H-M    P1
_symmetry_Int_Tables_number       1
_space_group_crystal_system       triclinic
_cell_length_a                    10.77922
_cell_length_b                    10.915999
_cell_length_c                    9.723114
_cell_angle_alpha                 89.471806
_cell_angle_beta                  90.276371
_cell_angle_gamma                 90.052117
_cell_volume                      1144.01714026

loop_
_atom_site_label
_atom_site_type_symbol
_atom_type_description
_atom_site_fract_x
_atom_site_fract_y
_atom_site_fract_z
_atom_type_partial_charge
C1    C     C_R   0.503402 0.265403 0.500864 0.825215
C2    C     C_R   0.065860 0.395289 0.575555 0.101084
C3    C     C_R   0.128918 0.487177 0.499528 -0.091906
C4    C     C_R   0.063687 0.573394 0.421008 -0.191198
C5    C     C_R   0.935717 0.573726 0.421589 -0.164283
C6    C     C_R   0.871069 0.487810 0.500650 -0.093347
C7    C     C_2   0.549686 0.935537 0.394308 0.190886
C8    C     C_2   0.499827 0.867150 0.496371 -0.348356
C9    C     C_2   0.534165 0.068865 0.391272 -0.171717
C10   C     C_2   0.515848 0.133530 0.505542 -0.362106
C11   C     C_2   0.448946 0.415408 0.924999 0.045599
C12   C     C_R   0.262699 0.495849 0.499856 0.773274
C13   C     C_2   0.470524 0.405376 0.077842 -0.025733
C14   C     C_R   0.503354 0.734691 0.498990 0.869937
C15   C     C_R   0.737308 0.496139 0.500283 0.783914
C16   C     C_R   0.129908 0.300890 0.646822 -0.181947
C17   C     C_R   0.065233 0.210268 0.718657 -0.135287
C18   C     C_R   0.936219 0.210518 0.719108 -0.109070
C19   C     C_R   0.871045 0.301433 0.647792 -0.144242
C20   C     C_R   0.934621 0.395594 0.576103 0.095293
Cu1   Cu    Cu3+1 0.500020 0.500020 0.638630 1.032670
Cu2   Cu    Cu3+1 0.499980 0.499980 0.361370 0.994669
H1    H     H_    0.112268 0.642707 0.361518 0.159662
H2    H     H_    0.517067 0.090838 0.606671 0.158783
H3    H     H_    0.389809 0.347082 0.877725 0.089051
H4    H     H_    0.456190 0.316865 0.126544 0.137843
H5    H     H_    0.486612 0.583779 0.108874 0.264448
H6    H     H_    0.229928 0.294373 0.645745 0.140744
H7    H     H_    0.115467 0.138583 0.772684 0.141550
H8    H     H_    0.886346 0.139021 0.773477 0.151179
H9    H     H_    0.770985 0.295354 0.647544 0.148264
H10   H     H_    0.886701 0.643184 0.362342 0.180501
H11   H     H_    0.448949 0.908527 0.579783 0.133968
H12   H     H_    0.542655 0.115065 0.292313 0.185118
N1    N     N_2   0.498640 0.498660 0.846910 -0.004281
N2    N     N_2   0.498610 0.498630 0.153040 -0.244912
O1    O     O_R   0.500020 0.321960 0.617040 -0.608434
O2    O     O_R   0.499980 0.321920 0.382900 -0.583935
O3    O     O_R   0.319670 0.500020 0.617100 -0.590155
O4    O     O_R   0.319630 0.499980 0.382950 -0.579057
O5    O     O_R   0.500020 0.678080 0.617100 -0.536615
O6    O     O_R   0.499980 0.678040 0.382960 -0.556018
O7    O     O_R   0.680370 0.500020 0.617050 -0.528473
O8    O     O_R   0.680330 0.499980 0.382900 -0.551251
Cl1   Cl    Cl    0.630316 0.575252 0.904839 -0.476079
I1    I     I_    0.656396 0.864260 0.228929 -0.325251

loop_
_geom_bond_atom_site_label_1
_geom_bond_atom_site_label_2
_ccdc_geom_bond_type
C12   O4    A    
C16   H6    S    
C18   H8    S    
H5    N2    S    
C2    C16   A    
C9    C10   D    
C19   C20   A    
Cu1   O3    S    
C1    O1    A    
C14   O6    A    
C5    H10   S    
C19   H9    S    
C12   O3    A    
C11   N1    D    
C2    C3    A    
Cu2   O4    S    
C7    C8    D    
Cu1   O7    S    
C17   H7    S    
C11   C13   S    
Cu2   O6    S    
C6    C20   A    
C13   N2    D    
C14   O5    A    
Cu1   N1    S    
C1    O2    A    
C15   O8    A    
C17   C18   A    
C8    H11   S    
C5    C6    A    
Cu1   O5    S    
C13   H4    S    
C11   H3    S    
C15   O7    A    
C3    C4    A    
N1    Cl1   S    
C7    I1    S    
Cu2   N2    S    
Cu1   O1    S    
C18   C19   A    
C7    C9    S    
C4    H1    S    
C16   C17   A    
C8    C14   S    
C3    C12   S    
C10   H2    S    
C6    C15   S    
Cu1   Cu2   S    
C2    C20   A    
Cu2   O8    S    
C1    C10   S    
C9    H12   S    
C4    C5    A    
Cu2   O2    S    
