data_mof_unit_28438.cif
_audit_creation_date              2013-03-05T16:48:29-0500
_audit_creation_method            fapswitch 2.2
_symmetry_space_group_name_H-M    P1
_symmetry_Int_Tables_number       1
_space_group_crystal_system       triclinic
_cell_length_a                    11.140366
_cell_length_b                    14.755488
_cell_length_c                    14.536621
_cell_angle_alpha                 66.084912
_cell_angle_beta                  105.466511
_cell_angle_gamma                 100.754223
_cell_volume                      2096.92623265

loop_
_atom_site_label
_atom_site_type_symbol
_atom_site_description
_atom_site_fract_x
_atom_site_fract_y
_atom_site_fract_z
_atom_type_partial_charge
O1    O     O_R   0.455540 0.022090 0.338120 -0.506292
O2    O     O_R   0.544460 0.977910 0.661880 -0.546327
O3    O     O_R   0.512510 0.160150 0.379180 -0.574774
O4    O     O_R   0.487490 0.839850 0.620820 -0.586357
C1    C     C_R   0.480622 0.119843 0.310840 0.912881
C2    C     C_R   0.519796 0.881245 0.688506 0.862599
O5    O     O_R   0.291160 0.930970 0.479480 -0.499179
O6    O     O_R   0.708840 0.069030 0.520520 -0.462460
O7    O     O_R   0.348130 0.069020 0.520540 -0.593295
O8    O     O_R   0.651870 0.930980 0.479460 -0.605928
C3    C     C_R   0.260608 0.002220 0.496596 0.923500
C4    C     C_R   0.734483 0.003830 0.490383 0.898750
Cu1   Cu    Cu3+1 0.466270 0.918260 0.475690 1.092839
Cu2   Cu    Cu3+1 0.533730 0.081740 0.524310 1.089821
H1    H     H_    0.274217 0.379259 0.620782 0.185516
H2    H     H_    0.635946 0.641626 0.341600 0.177529
C5    C     C_R   0.239429 0.220442 0.668037 -0.170485
C6    C     C_R   0.689686 0.798462 0.293233 -0.085851
H3    H     H_    0.262269 0.208761 0.748971 0.188226
H4    H     H_    0.649903 0.810814 0.213057 0.179395
C7    C     C_R   0.193578 0.140852 0.635456 0.443539
C8    C     C_R   0.754192 0.876957 0.322630 0.451346
C9    C     C_R   0.163386 0.159300 0.528455 -0.092648
C10   C     C_R   0.808839 0.857563 0.428552 -0.060035
C11   C     C_R   0.194202 0.254365 0.457552 0.454428
C12   C     C_R   0.792253 0.760016 0.503080 0.435487
C13   C     C_R   0.222925 0.333657 0.491459 -0.176537
C14   C     C_R   0.733198 0.683081 0.469511 -0.165556
H5    H     H_    0.219987 0.408805 0.436665 0.209366
H6    H     H_    0.731409 0.607041 0.523310 0.196467
C15   C     C_R   0.248105 0.317042 0.595881 -0.251755
C16   C     C_R   0.681162 0.702182 0.365891 -0.245587
C17   C     C_R   0.946999 0.096430 0.469583 0.464035
C18   C     C_R   0.029835 0.930152 0.460253 0.416233
C19   C     C_R   0.862870 0.010814 0.472703 -0.197065
C20   C     C_R   0.121553 0.005305 0.484905 -0.197322
C21   C     C_R   0.902168 0.932876 0.457494 -0.113062
C22   C     C_R   0.077161 0.086919 0.490682 -0.046729
C23   C     C_R   0.473999 0.191238 0.201332 -0.026425
C24   C     C_R   0.524109 0.814691 0.797303 -0.070951
C25   C     C_R   0.454460 0.228485 0.019420 -0.164829
C26   C     C_R   0.523050 0.784431 0.973876 -0.124500
C27   C     C_R   0.460888 0.160427 0.119725 -0.039530
C28   C     C_R   0.523210 0.850515 0.872687 -0.058947
C29   C     C_R   0.486648 0.294853 0.179098 -0.125142
C30   C     C_R   0.519801 0.711709 0.823819 -0.174103
C31   C     C_R   0.482980 0.366330 0.077683 0.076810
C32   C     C_R   0.508880 0.643122 0.923105 0.088245
C33   C     C_R   0.464266 0.330465 0.997570 0.139927
C34   C     C_R   0.516973 0.681183 0.999771 0.129022
C35   C     C_R   0.496328 0.471780 0.052792 0.081867
C36   C     C_R   0.491405 0.538144 0.948206 0.084464
C37   C     C_R   0.464787 0.497808 0.871157 -0.178896
C38   C     C_R   0.513053 0.513499 0.127991 -0.158122
C39   C     C_R   0.453792 0.396196 0.895709 -0.193180
C40   C     C_R   0.519346 0.615914 0.101317 -0.185423
H7    H     H_    0.435193 0.368757 0.833949 0.144318
H8    H     H_    0.528046 0.644309 0.161091 0.142737
H9    H     H_    0.527087 0.686672 0.765669 0.161647
H10   H     H_    0.499248 0.318103 0.242397 0.168299
H11   H     H_    0.520594 0.929083 0.853248 0.216883
H12   H     H_    0.456560 0.084612 0.130757 0.261177
H13   H     H_    0.442250 0.200957 0.958426 0.166215
H14   H     H_    0.525396 0.813949 0.031592 0.177846
H15   H     H_    0.447657 0.542981 0.790189 0.137158
H16   H     H_    0.520459 0.469082 0.208451 0.136524
N1    N     N_R   0.584450 0.204570 0.560790 -0.237626
N2    N     N_R   0.415550 0.795430 0.439210 -0.230457
C41   C     C_R   0.678927 0.271147 0.693377 -0.316113
C42   C     C_R   0.285727 0.711892 0.330417 -0.293805
C43   C     C_R   0.666164 0.196994 0.654571 0.587822
C44   C     C_R   0.336978 0.798875 0.346023 0.656124
C45   C     C_R   0.527088 0.290696 0.503202 -0.082465
C46   C     C_R   0.460381 0.705760 0.506433 -0.093309
C47   C     C_R   0.544083 0.370254 0.539639 -0.009749
C48   C     C_R   0.435504 0.620994 0.477241 -0.022151
C49   C     C_R   0.616349 0.355312 0.639047 0.052376
C50   C     C_R   0.352544 0.629990 0.383045 0.047167
C51   C     C_R   0.487254 0.461584 0.484089 0.080345
C52   C     C_R   0.494812 0.530847 0.532910 0.065008
C53   C     C_R   0.562924 0.508642 0.634390 -0.234729
C54   C     C_R   0.422824 0.486000 0.381331 -0.260591
C55   C     C_R   0.625201 0.423414 0.685504 -0.125672
C56   C     C_R   0.349591 0.565194 0.334241 -0.147900
H17   H     H_    0.679353 0.409820 0.763137 0.182048
H18   H     H_    0.293866 0.578035 0.257224 0.200716
H19   H     H_    0.525570 0.704218 0.576460 0.177170
H20   H     H_    0.463575 0.294121 0.432238 0.181775
H21   H     H_    0.737552 0.262196 0.768821 0.208274
H22   H     H_    0.217595 0.715258 0.260340 0.206954
H23   H     H_    0.571066 0.556941 0.675312 0.164731
H24   H     H_    0.420690 0.441154 0.338132 0.178367
S1    S     S_3+6 0.350995 0.896223 0.227851 0.015537
O9    O     O_2   0.488105 0.926339 0.235389 -0.316928
O10   O     O_2   0.305833 0.861570 0.139178 -0.305386
O11   O     O_3   0.270137 0.992303 0.202887 -0.511781
H25   H     H_    0.192429 0.985459 0.152758 0.403837
S2    S     S_3+6 0.760876 0.097990 0.742644 0.079531
O12   O     O_2   0.889854 0.145202 0.770879 -0.218486
O13   O     O_2   0.708936 0.051423 0.838584 -0.317654
O14   O     O_3   0.779127 0.006966 0.708159 -0.488478
H26   H     H_    0.805956 0.951082 0.773797 0.364291
S3    S     S_3+6 0.173974 0.019886 0.729621 0.042289
O15   O     O_2   0.258646 0.954065 0.725395 -0.318857
O16   O     O_2   0.205832 0.023190 0.835552 -0.244140
O17   O     O_3   0.025245 0.972032 0.705825 -0.507345
H27   H     H_    0.021850 0.905552 0.761747 0.396096
S4    S     S_3+6 0.776058 0.994990 0.223718 0.058961
O18   O     O_2   0.690884 0.998489 0.123078 -0.221650
O19   O     O_2   0.748168 0.076218 0.250204 -0.310831
O20   O     O_3   0.924541 0.014759 0.208853 -0.455221
H28   H     H_    0.969733 0.054035 0.250934 0.367990
S5    S     S_3+6 0.180199 0.278147 0.324498 0.002008
O21   O     O_2   0.185313 0.388173 0.262541 -0.291986
O22   O     O_2   0.285803 0.236346 0.313674 -0.368343
O23   O     O_3   0.046027 0.223939 0.275653 -0.490371
H29   H     H_    0.047750 0.242593 0.202400 0.395308
S6    S     S_3+6 0.852436 0.729467 0.637146 0.023978
O24   O     O_2   0.848170 0.618451 0.693300 -0.259855
O25   O     O_2   0.985647 0.772386 0.657772 -0.238903
O26   O     O_3   0.764097 0.774695 0.683321 -0.560428
H30   H     H_    0.806869 0.840462 0.680964 0.354368
S7    S     S_3+6 0.887241 0.214874 0.437227 0.066275
O27   O     O_2   0.962627 0.305856 0.380762 -0.239455
O28   O     O_2   0.759292 0.219460 0.368575 -0.279228
O29   O     O_3   0.879868 0.224139 0.546835 -0.483105
H31   H     H_    0.852615 0.291245 0.525414 0.359273
S8    S     S_3+6 0.071528 0.833669 0.429490 0.041884
O30   O     O_2   0.967673 0.764569 0.398034 -0.307311
O31   O     O_2   0.133130 0.885990 0.339739 -0.271997
O32   O     O_3   0.170327 0.761672 0.532076 -0.474558
H32   H     H_    0.182832 0.707547 0.512723 0.358555

loop_
_geom_bond_atom_site_label_1
_geom_bond_atom_site_label_2
_geom_bond_distance
_ccdc_geom_bond_type
C29   H10   1.073847 S    
O29   H31   0.990642 S    
C30   H9    1.076373 S    
C13   H5    1.071732 S    
C18   C21   1.419732 A    
C45   C47   1.436024 A    
C41   C49   1.373427 A    
O20   H28   0.988842 S    
S8    O30   1.497630 D    
S7    O27   1.494926 D    
C31   C33   1.417304 A    
C42   H22   1.084871 S    
S4    O18   1.503310 D    
O5    C3    1.293772 A    
S1    O9    1.496502 D    
C46   C48   1.435115 A    
O1    C1    1.326938 A    
C8    C10   1.425190 A    
C3    C20   1.519985 S    
C19   C21   1.417291 A    
C10   C12   1.422261 A    
C32   C36   1.427431 A    
S7    O28   1.501613 D    
C42   C50   1.371940 A    
O17   H27   0.990227 S    
C49   C55   1.397591 A    
N2    C46   1.375873 A    
C54   H24   1.075110 S    
O23   H29   0.990620 S    
C29   C31   1.417989 A    
O4    Cu1   1.924165 S    
C41   C43   1.391111 A    
S6    O24   1.503154 D    
C5    H3    1.082100 S    
C40   H8    1.084005 S    
Cu2   N1    2.030415 S    
N1    C45   1.370905 A    
C46   H19   1.075752 S    
C37   H15   1.075937 S    
N1    C43   1.397211 A    
O6    C4    1.307713 A    
C23   C29   1.416007 A    
S5    O23   1.681174 S    
C32   C34   1.414398 A    
S1    O10   1.506197 D    
Cu1   Cu2   2.702887 S    
C25   C27   1.386948 A    
O2    C2    1.312480 A    
C26   C28   1.397259 A    
C41   H21   1.086040 S    
C25   C33   1.395272 A    
C53   C55   1.381313 A    
C38   C40   1.392405 A    
C37   C39   1.382499 A    
C43   S2    1.795801 S    
C30   C32   1.409095 A    
C13   C15   1.392761 A    
C35   C36   1.428930 A    
O14   H26   0.990794 S    
C48   C52   1.425077 A    
C14   C16   1.391194 A    
O4    C2    1.298881 A    
S7    O29   1.677716 S    
C31   C35   1.435265 A    
C33   C39   1.390158 A    
C5    C7    1.400877 A    
S6    O26   1.680787 S    
C7    S3    1.772122 S    
C24   C30   1.402737 A    
O7    Cu2   2.028914 S    
C45   H20   1.071972 S    
C11   S5    1.788199 S    
C47   C49   1.404412 A    
O5    Cu1   2.011472 S    
N2    C44   1.390009 A    
O11   H25   0.990561 S    
C10   C21   1.485773 S    
S3    O16   1.504158 D    
C4    C19   1.497307 S    
O7    C3    1.334862 A    
O26   H30   0.989510 S    
O3    Cu2   1.924165 S    
O8    C4    1.311100 A    
C26   C34   1.406204 A    
C44   S1    1.759945 S    
C55   H17   1.084550 S    
S1    O11   1.684667 S    
C54   C56   1.381695 A    
C7    C9    1.420726 A    
C11   C13   1.399265 A    
C5    C15   1.389874 A    
C2    C24   1.478451 S    
O1    Cu1   1.953848 S    
C25   H13   1.084752 S    
O32   H32   0.990427 S    
C9    C22   1.475167 S    
S8    O32   1.685335 S    
C26   H14   1.083810 S    
C36   C37   1.412122 A    
S5    O21   1.502502 D    
C1    C23   1.502005 S    
O6    Cu2   2.011474 S    
C6    C8    1.402639 A    
C12   C14   1.399584 A    
C12   S6    1.776073 S    
C48   C50   1.403629 A    
C52   C53   1.401129 A    
O3    C1    1.295687 A    
O8    Cu1   2.028914 S    
S8    O31   1.494102 D    
C51   C54   1.401653 A    
C23   C27   1.398343 A    
H1    C15   1.082612 S    
C38   H16   1.073100 S    
C28   H11   1.080419 S    
H2    C16   1.081577 S    
S2    O14   1.672945 S    
S2    O13   1.502348 D    
C17   C22   1.421356 A    
S4    O20   1.681514 S    
C35   C38   1.415193 A    
C39   H7    1.084927 S    
C14   H6    1.076778 S    
C34   C40   1.394012 A    
C8    S4    1.777130 S    
C20   C22   1.424172 A    
C17   C19   1.418011 A    
C18   C20   1.451281 A    
S4    O19   1.502751 D    
S3    O17   1.679071 S    
C6    H4    1.081867 S    
C9    C11   1.408776 A    
O2    Cu2   1.953848 S    
S6    O25   1.503057 D    
C51   C52   1.441979 A    
C53   H23   1.077412 S    
C50   C56   1.394372 A    
C24   C28   1.399235 A    
C6    C16   1.389049 A    
C18   S8    1.821053 S    
S2    O12   1.504017 D    
S3    O15   1.502655 D    
C17   S7    1.821987 S    
C56   H18   1.084413 S    
C42   C44   1.385021 A    
C47   C51   1.425634 A    
C27   H12   1.057383 S    
S5    O22   1.495813 D    
Cu1   N2    2.030414 S    
