data_mof_unit_47453.cif
_audit_creation_date              2012-12-11T15:55:47-0500
_audit_creation_method            fapswitch 2.2
_symmetry_space_group_name_H-M    P1
_symmetry_Int_Tables_number       1
_space_group_crystal_system       triclinic
_cell_length_a                    6.951504
_cell_length_b                    14.557929
_cell_length_c                    16.092157
_cell_angle_alpha                 89.843044
_cell_angle_beta                  89.999246
_cell_angle_gamma                 90.117877
_cell_volume                      1628.50871208

loop_
_atom_site_label
_atom_site_type_symbol
_atom_type_description
_atom_site_fract_x
_atom_site_fract_y
_atom_site_fract_z
_atom_type_partial_charge
O1    O     O_R   0.505680 0.583900 0.413320 -0.537735
O2    O     O_R   0.176010 0.594950 0.586080 -0.545519
O3    O     O_R   0.005680 0.416100 0.586680 -0.540334
C1    C     C_R   0.345091 0.616902 0.614907 0.714369
O4    O     O_R   0.175960 0.594930 0.413930 -0.544996
O5    O     O_R   0.005640 0.416080 0.413300 -0.508304
C2    C     C_R   0.344948 0.618460 0.386220 0.722180
O6    O     O_R   0.505720 0.583920 0.586700 -0.541679
O7    O     O_3   0.339190 0.441320 0.500000 -0.362414
V1    V     V_3+5 0.064350 0.510890 0.500000 1.420590
O8    O     O_R   0.675920 0.405050 0.413920 -0.543149
C3    C     C_R   0.845412 0.381281 0.386377 0.737722
O9    O     O_R   0.675960 0.405070 0.586070 -0.547388
C4    C     C_R   0.844713 0.382869 0.614709 0.679058
V2    V     V_3+5 0.564340 0.489110 0.500000 1.411110
O10   O     O_3   0.839370 0.558680 0.500000 -0.375721
C5    C     C_R   0.007862 0.316717 0.740855 0.105490
C6    C     C_R   0.852776 0.317230 0.685223 -0.111409
C7    C     C_R   0.701038 0.255334 0.700915 -0.183541
H1    H     H_    0.578359 0.253134 0.659768 0.130625
C8    C     C_R   0.712357 0.191140 0.766428 -0.175848
H2    H     H_    0.597355 0.141705 0.774004 0.124880
C9    C     C_R   0.876113 0.186657 0.817998 -0.114176
C10   C     C_R   0.019530 0.252916 0.805447 0.102160
C11   C     C_3   0.230103 0.240180 0.792946 -0.411492
C12   C     C_3   0.217536 0.310074 0.722919 -0.398527
H3    H     H_    0.264894 0.169769 0.771146 0.161563
H4    H     H_    0.315537 0.264709 0.846923 0.178368
H5    H     H_    0.245874 0.280462 0.660508 0.164746
H6    H     H_    0.294933 0.375214 0.736553 0.169105
C13   C     C_R   0.044481 0.216838 0.223312 -0.297628
H7    H     H_    0.182816 0.197141 0.199536 0.215355
C14   C     C_R   0.036608 0.274692 0.292810 0.487112
C15   C     C_R   0.857949 0.309944 0.320068 -0.226936
C16   C     C_R   0.690164 0.274707 0.283904 -0.315008
H8    H     H_    0.551670 0.298012 0.304848 0.218421
C17   C     C_R   0.697975 0.206699 0.222397 0.485023
C18   C     C_R   0.876768 0.181545 0.187044 -0.214556
C19   C     C_R   0.201911 0.744191 0.699456 -0.195768
H9    H     H_    0.074683 0.740816 0.660682 0.133211
C20   C     C_R   0.211845 0.810178 0.763151 0.184951
C21   C     C_R   0.377739 0.815175 0.814863 -0.176627
C22   C     C_R   0.531581 0.753649 0.799462 0.422650
C23   C     C_R   0.521231 0.691314 0.733162 -0.245668
H10   H     H_    0.642568 0.646451 0.721844 0.145999
C24   C     C_R   0.356054 0.684984 0.683443 -0.143358
C25   C     C_R   0.224863 0.763573 0.314771 0.120183
C26   C     C_R   0.233587 0.826121 0.247573 0.463234
C27   C     C_R   0.377930 0.817491 0.186138 -0.185881
C28   C     C_R   0.509644 0.744934 0.192250 -0.264974
H11   H     H_    0.620277 0.736403 0.145532 0.135338
C29   C     C_R   0.498056 0.681392 0.257472 -0.184052
H12   H     H_    0.600406 0.625410 0.259373 0.137777
C30   C     C_R   0.354872 0.688670 0.318794 -0.147854
O11   O     O_R   0.229200 0.915950 0.913350 -0.520771
O12   O     O_R   0.559090 0.905000 0.086080 -0.559547
O13   O     O_R   0.729280 0.083880 0.086680 -0.516845
C31   C     C_R   0.390015 0.883757 0.115661 0.715587
O14   O     O_R   0.558920 0.904980 0.913920 -0.513511
O15   O     O_R   0.729110 0.083860 0.913300 -0.542942
C32   C     C_R   0.389723 0.883325 0.884429 0.726233
O16   O     O_R   0.229360 0.915970 0.086730 -0.525360
O17   O     O_3   0.395680 0.058580 0.000030 -0.366483
V3    V     V_3+5 0.670570 0.989070 0.999990 1.468422
O18   O     O_R   0.058820 0.094950 0.913870 -0.543876
C33   C     C_R   0.889842 0.116675 0.884868 0.697906
O19   O     O_R   0.058990 0.094970 0.086020 -0.539247
C34   C     C_R   0.889670 0.115961 0.115902 0.738328
V4    V     V_3+5 0.170560 0.010930 0.999930 1.471809
O20   O     O_3   0.895590 0.941310 0.999960 -0.364090
O21   O     O_3   0.528553 0.166102 0.197045 -0.550417
C35   C     C_3   0.495481 0.088350 0.247848 -0.197792
H13   H     H_    0.607733 0.035300 0.238472 0.110921
H14   H     H_    0.355530 0.057168 0.230524 0.174238
H15   H     H_    0.488931 0.106879 0.314754 0.116404
N1    N     N_3   0.055450 0.873656 0.773679 -0.593377
H16   H     H_    0.940062 0.856699 0.734915 0.235674
H17   H     H_    0.104148 0.938315 0.754449 0.194307
O22   O     O_3   0.697499 0.756501 0.846720 -0.534059
C36   C     C_3   0.683926 0.689020 0.909449 -0.197918
H18   H     H_    0.678080 0.618728 0.882525 0.116473
H19   H     H_    0.557245 0.701027 0.950363 0.103162
H20   H     H_    0.814525 0.693164 0.948895 0.153716
N2    N     N_3   0.089296 0.780840 0.380103 -0.653138
H21   H     H_    0.984503 0.729317 0.379787 0.238602
H22   H     H_    0.161369 0.780294 0.437138 0.218911
O23   O     O_3   0.111323 0.900985 0.245754 -0.563287
C37   C     C_3   0.928878 0.872098 0.217505 -0.155947
H23   H     H_    0.937696 0.825653 0.162667 0.110589
H24   H     H_    0.847600 0.933533 0.197609 0.139694
H25   H     H_    0.846300 0.838613 0.268279 0.153287
O24   O     O_3   0.205752 0.295826 0.333333 -0.547419
C38   C     C_3   0.225581 0.235176 0.401552 -0.211521
H26   H     H_    0.214848 0.161959 0.382300 0.115062
H27   H     H_    0.116488 0.249337 0.450367 0.121492
H28   H     H_    0.369468 0.245590 0.429841 0.146053

loop_
_geom_bond_atom_site_label_1
_geom_bond_atom_site_label_2
_ccdc_geom_bond_type
C31   O16   A    
O23   C37   S    
C38   H26   S    
C20   C21   A    
C4    C6    S    
C7    H1    S    
C1    O6    A    
C19   C20   A    
C1    C24   S    
C23   H10   S    
C11   H4    S    
O14   V3    S    
C5    C12   S    
C9    C33   S    
C38   H28   S    
C7    C8    A    
N1    H17   S    
C15   C16   A    
C25   C30   A    
C36   H20   S    
O5    C3    A    
C22   O22   S    
V2    O10   S    
C6    C7    A    
O8    V2    S    
C13   H7    S    
C29   C30   A    
C28   C29   A    
C9    C10   A    
O12   V3    S    
O1    V2    S    
V3    O20   S    
O7    V1    S    
O15   C33   A    
C38   H27   S    
O9    C4    A    
C35   H15   S    
C23   C24   A    
C14   C15   A    
N1    H16   S    
C8    C9    A    
O14   C32   A    
C5    C10   A    
O19   C34   A    
O17   V4    S    
C10   C11   S    
C35   H14   S    
C14   O24   S    
C19   H9    S    
O4    C2    A    
C36   H18   S    
C28   H11   S    
C11   C12   S    
C27   C31   S    
O22   C36   S    
O16   V4    S    
O19   V4    S    
C16   H8    S    
O2    C1    A    
C22   C23   A    
C17   C18   A    
C25   C26   A    
C37   H25   S    
C13   C14   A    
C5    C6    A    
C26   O23   S    
C25   N2    S    
N2    H21   S    
C21   C32   S    
O11   V4    S    
O3    C4    A    
C19   C24   A    
C36   H19   S    
C26   C27   A    
C37   H24   S    
C12   H6    S    
O6    V2    S    
O9    V2    S    
C21   C22   A    
O13   C34   A    
C3    C15   S    
O2    V1    S    
C29   H12   S    
O13   V3    S    
C16   C17   A    
O1    C2    A    
C18   C34   S    
C35   H13   S    
O5    V1    S    
O8    C3    A    
C11   H3    S    
C13   C18   A    
O15   V3    S    
C17   O21   S    
O7    V2    S    
O4    V1    S    
O3    V1    S    
V1    O10   S    
C20   N1    S    
O18   V4    S    
O11   C32   A    
O24   C38   S    
O12   C31   A    
O18   C33   A    
V4    O20   S    
O17   V3    S    
O21   C35   S    
C37   H23   S    
C12   H5    S    
C27   C28   A    
N2    H22   S    
C2    C30   S    
C8    H2    S    
