data_mof_unit_62939.cif
_audit_creation_date              2012-12-10T18:40:14-0500
_audit_creation_method            fapswitch 2.2
_symmetry_space_group_name_H-M    P1
_symmetry_Int_Tables_number       1
_space_group_crystal_system       triclinic
_cell_length_a                    25.599513
_cell_length_b                    25.598448
_cell_length_c                    51.397793
_cell_angle_alpha                 89.9975
_cell_angle_beta                  89.999287
_cell_angle_gamma                 89.999554
_cell_volume                      33681.3747411

loop_
_atom_site_label
_atom_site_type_symbol
_atom_type_description
_atom_site_fract_x
_atom_site_fract_y
_atom_site_fract_z
_atom_type_partial_charge
C1    C     C_R   1.000000 0.500001 0.679370 0.818329
C2    C     C_R   0.499999 0.000000 0.320630 0.818101
C3    C     C_R   0.000000 0.499999 0.320630 0.818932
C4    C     C_R   0.500000 0.000000 0.679371 0.818746
C5    C     C_R   0.500000 0.000001 0.179370 0.818947
C6    C     C_R   1.000000 0.499999 0.820629 0.818775
C7    C     C_R   0.500001 0.999999 0.820630 0.818390
C8    C     C_R   0.000000 0.500000 0.179370 0.818107
C9    C     C_R   0.499674 0.047660 0.527462 -0.018732
C10   C     C_R   0.047657 0.499512 0.472537 -0.018734
C11   C     C_R   0.500318 0.952346 0.527464 -0.018670
C12   C     C_R   0.952351 0.500482 0.472538 -0.018694
C13   C     C_R   0.499663 0.047660 0.472537 -0.018685
C14   C     C_R   0.952350 0.500478 0.527463 -0.018697
C15   C     C_R   0.500325 0.952347 0.472539 -0.018655
C16   C     C_R   0.047657 0.499526 0.527462 -0.018680
C17   C     C_R   0.999413 0.547646 0.027460 -0.018672
C18   C     C_R   0.547649 0.998914 0.972537 -0.018711
C19   C     C_R   0.000604 0.452338 0.027464 -0.018685
C20   C     C_R   0.452362 0.001069 0.972537 -0.018676
C21   C     C_R   0.999407 0.547642 0.972535 -0.018655
C22   C     C_R   0.452359 0.001064 0.027462 -0.018740
C23   C     C_R   0.000611 0.452334 0.972539 -0.018764
C24   C     C_R   0.547647 0.998936 0.027463 -0.018703
C25   C     C_R   0.499996 0.000003 0.513748 -0.015235
C26   C     C_R   0.000004 0.499998 0.486253 -0.015226
C27   C     C_R   0.499994 0.000003 0.486253 -0.015237
C28   C     C_R   0.000004 0.500001 0.513747 -0.015232
C29   C     C_R   0.000009 0.499991 0.013747 -0.015236
C30   C     C_R   0.500005 0.999994 0.986252 -0.015229
C31   C     C_R   0.000009 0.499989 0.986252 -0.015230
C32   C     C_R   0.500004 0.999998 0.013747 -0.015222
C33   C     C_R   0.499347 0.094952 0.513581 -0.145041
C34   C     C_R   0.094946 0.499038 0.486417 -0.145046
C35   C     C_R   0.500644 0.905054 0.513585 -0.145104
C36   C     C_R   0.905061 0.500958 0.486417 -0.145104
C37   C     C_R   0.499339 0.094952 0.486416 -0.145131
C38   C     C_R   0.905061 0.500954 0.513583 -0.145133
C39   C     C_R   0.500650 0.905054 0.486419 -0.145175
C40   C     C_R   0.094946 0.499048 0.513582 -0.145115
C41   C     C_R   0.998815 0.594935 0.013579 -0.145138
C42   C     C_R   0.594928 0.997851 0.986417 -0.145069
C43   C     C_R   0.001203 0.405047 0.013587 -0.145112
C44   C     C_R   0.405082 0.002136 0.986416 -0.145058
C45   C     C_R   0.998810 0.594932 0.986413 -0.145105
C46   C     C_R   0.405080 0.002130 0.013582 -0.145009
C47   C     C_R   0.001208 0.405045 0.986421 -0.145006
C48   C     C_R   0.594927 0.997866 0.013583 -0.145064
C49   C     C_R   0.952479 0.499722 0.890426 0.025370
C50   C     C_R   0.500101 0.047533 0.109574 0.025077
C51   C     C_R   0.047531 0.500248 0.890424 0.024844
C52   C     C_R   0.499898 0.952476 0.109576 0.025040
C53   C     C_R   0.047531 0.499883 0.109575 0.025257
C54   C     C_R   0.500857 0.047512 0.890425 0.025286
C55   C     C_R   0.952478 0.500113 0.109574 0.025382
C56   C     C_R   0.499159 0.952470 0.890425 0.024981
C57   C     C_R   0.452470 0.999622 0.390425 0.025249
C58   C     C_R   0.000241 0.547533 0.609574 0.025261
C59   C     C_R   0.547520 0.000385 0.390426 0.025388
C60   C     C_R   0.999763 0.452476 0.609576 0.025307
C61   C     C_R   0.547526 0.999884 0.609575 0.025091
C62   C     C_R   0.000791 0.547518 0.390424 0.025091
C63   C     C_R   0.452473 0.000120 0.609576 0.024967
C64   C     C_R   0.999216 0.452473 0.390425 0.025021
C65   C     C_R   0.952656 0.499728 0.863209 -0.237805
C66   C     C_R   0.500089 0.047353 0.136792 -0.237113
C67   C     C_R   0.047349 0.500251 0.863206 -0.236782
C68   C     C_R   0.499909 0.952655 0.136793 -0.237066
C69   C     C_R   0.047350 0.499880 0.136793 -0.238060
C70   C     C_R   0.500838 0.047335 0.863208 -0.237920
C71   C     C_R   0.952656 0.500118 0.136792 -0.238312
C72   C     C_R   0.499174 0.952652 0.863207 -0.237267
C73   C     C_R   0.452652 0.999624 0.363208 -0.238064
C74   C     C_R   0.000227 0.547352 0.636792 -0.237975
C75   C     C_R   0.547342 0.000380 0.363208 -0.238328
C76   C     C_R   0.999775 0.452655 0.636793 -0.237904
C77   C     C_R   0.547347 0.999880 0.636792 -0.237197
C78   C     C_R   0.000776 0.547339 0.363207 -0.237168
C79   C     C_R   0.452653 0.000123 0.636793 -0.237038
C80   C     C_R   0.999230 0.452654 0.363208 -0.237040
C81   C     C_R   0.000001 0.499993 0.849382 -0.041798
C82   C     C_R   0.499999 0.000003 0.150618 -0.041910
C83   C     C_R   0.000002 0.499999 0.150618 -0.041486
C84   C     C_R   0.500004 0.999995 0.849382 -0.041797
C85   C     C_R   0.499998 0.000001 0.349382 -0.041493
C86   C     C_R   0.000000 0.500003 0.650618 -0.041541
C87   C     C_R   0.500000 0.000001 0.650619 -0.041981
C88   C     C_R   0.000002 0.499997 0.349382 -0.041917
C89   C     C_R   0.000006 0.499983 0.904188 0.233044
C90   C     C_R   0.499999 0.000005 0.095811 0.232959
C91   C     C_R   0.000005 0.499997 0.095811 0.233207
C92   C     C_R   0.500009 0.999989 0.904188 0.233062
C93   C     C_R   0.499995 0.000004 0.404189 0.233238
C94   C     C_R   0.000002 0.500005 0.595811 0.233189
C95   C     C_R   0.499999 0.000002 0.595812 0.232958
C96   C     C_R   0.000004 0.499995 0.404188 0.233004
C97   C     C_R   0.900388 0.400477 0.750020 0.830908
C98   C     C_R   0.400477 0.099612 0.249979 0.830422
C99   C     C_R   0.099610 0.599525 0.750020 0.830079
C100  C     C_R   0.599523 0.900389 0.249979 0.830433
C101  C     C_R   0.099608 0.400473 0.249980 0.830336
C102  C     C_R   0.599526 0.099609 0.750020 0.830340
C103  C     C_R   0.900392 0.599526 0.249980 0.830391
C104  C     C_R   0.400473 0.900391 0.750021 0.829690
C105  C     C_R   0.400392 0.900474 0.250020 0.830271
C106  C     C_R   0.900477 0.599612 0.749979 0.830824
C107  C     C_R   0.599608 0.099527 0.250020 0.830379
C108  C     C_R   0.099526 0.400392 0.749980 0.830251
C109  C     C_R   0.599608 0.900473 0.749980 0.829867
C110  C     C_R   0.099524 0.599611 0.250020 0.830384
C111  C     C_R   0.400390 0.099524 0.749980 0.830311
C112  C     C_R   0.900477 0.400388 0.250021 0.830381
C113  C     C_3   0.809154 0.766015 0.740321 -0.234685
C114  C     C_3   0.765224 0.191037 0.260543 -0.230396
C115  C     C_3   0.192401 0.236132 0.737286 -0.230291
C116  C     C_3   0.235367 0.808366 0.261553 -0.230380
C117  C     C_3   0.190871 0.765986 0.259728 -0.234780
C118  C     C_3   0.234664 0.191517 0.739074 -0.234727
C119  C     C_3   0.809620 0.233517 0.258690 -0.234815
C120  C     C_3   0.764661 0.808397 0.738494 -0.230510
C121  C     C_3   0.309091 0.265952 0.240198 -0.234805
C122  C     C_3   0.265929 0.690920 0.759827 -0.234658
C123  C     C_3   0.690246 0.733388 0.241615 -0.234843
C124  C     C_3   0.733943 0.309202 0.759594 -0.234802
C125  C     C_3   0.691551 0.264717 0.761424 -0.230515
C126  C     C_3   0.734610 0.690876 0.239756 -0.230433
C127  C     C_3   0.308299 0.735425 0.761650 -0.230344
C128  C     C_3   0.264586 0.308324 0.238376 -0.230390
C129  C     C_3   0.763984 0.720285 0.777603 -0.222109
C130  C     C_3   0.722592 0.234577 0.222051 -0.219695
C131  C     C_3   0.231152 0.273986 0.778208 -0.219668
C132  C     C_3   0.275841 0.767000 0.221907 -0.219711
C133  C     C_3   0.235946 0.720365 0.222386 -0.221994
C134  C     C_3   0.277813 0.234117 0.777838 -0.222054
C135  C     C_3   0.762517 0.281182 0.222623 -0.222020
C136  C     C_3   0.724087 0.766919 0.778087 -0.219612
C137  C     C_3   0.264166 0.220469 0.277628 -0.222014
C138  C     C_3   0.220508 0.735805 0.722367 -0.222061
C139  C     C_3   0.737931 0.781621 0.277301 -0.222011
C140  C     C_3   0.779831 0.263866 0.722413 -0.221940
C141  C     C_3   0.733200 0.223968 0.721921 -0.219582
C142  C     C_3   0.777869 0.735029 0.277897 -0.219727
C143  C     C_3   0.267145 0.775697 0.721898 -0.219584
C144  C     C_3   0.224270 0.267104 0.278101 -0.219731
C145  C     C_1   0.639001 0.860888 0.749831 -0.117285
C146  C     C_1   0.860864 0.361025 0.250220 -0.116870
C147  C     C_1   0.361027 0.139137 0.749788 -0.116829
C148  C     C_1   0.139138 0.638973 0.250216 -0.116830
C149  C     C_1   0.360997 0.860890 0.250169 -0.116774
C150  C     C_1   0.139106 0.360994 0.749835 -0.116772
C151  C     C_1   0.638999 0.139114 0.250171 -0.116827
C152  C     C_1   0.860865 0.638975 0.749783 -0.116369
C153  C     C_1   0.139001 0.360889 0.249832 -0.116736
C154  C     C_1   0.360889 0.860997 0.750171 -0.117223
C155  C     C_1   0.861001 0.639113 0.249827 -0.116763
C156  C     C_1   0.639109 0.139004 0.750168 -0.117046
C157  C     C_1   0.861024 0.360865 0.750215 -0.116612
C158  C     C_1   0.639137 0.861026 0.249780 -0.116811
C159  C     C_1   0.138970 0.639141 0.750215 -0.116787
C160  C     C_1   0.360863 0.138974 0.249783 -0.116790
C161  C     C_3   0.785838 0.712261 0.749352 0.143654
C162  C     C_3   0.712232 0.214139 0.250387 0.144028
C163  C     C_3   0.214140 0.287769 0.749673 0.144110
C164  C     C_3   0.287769 0.785859 0.250360 0.144072
C165  C     C_3   0.214165 0.712259 0.250646 0.143806
C166  C     C_3   0.287759 0.214183 0.749387 0.143869
C167  C     C_3   0.785855 0.287721 0.250674 0.143812
C168  C     C_3   0.712231 0.785858 0.749639 0.144251
C169  C     C_3   0.285834 0.212258 0.249355 0.143798
C170  C     C_3   0.212253 0.714171 0.750644 0.143948
C171  C     C_3   0.714140 0.787716 0.249319 0.143780
C172  C     C_3   0.787733 0.285843 0.750648 0.143614
C173  C     C_3   0.714137 0.212236 0.750362 0.144050
C174  C     C_3   0.787765 0.714137 0.249603 0.144000
C175  C     C_3   0.285855 0.787772 0.750360 0.144317
C176  C     C_3   0.212229 0.285858 0.249642 0.144054
C177  C     C_3   0.694878 0.738527 0.732200 -0.200731
C178  C     C_3   0.741478 0.301407 0.270661 -0.197814
C179  C     C_3   0.303741 0.260861 0.731203 -0.197926
C180  C     C_3   0.259626 0.697485 0.269820 -0.197857
C181  C     C_3   0.305169 0.738480 0.267757 -0.201038
C182  C     C_3   0.262609 0.306268 0.733337 -0.201047
C183  C     C_3   0.695820 0.260527 0.268660 -0.200923
C184  C     C_3   0.740429 0.697540 0.730139 -0.198039
C185  C     C_3   0.194762 0.238415 0.232308 -0.201045
C186  C     C_3   0.238388 0.805265 0.767671 -0.200912
C187  C     C_3   0.803877 0.760228 0.231078 -0.200912
C188  C     C_3   0.761387 0.194956 0.767872 -0.200776
C189  C     C_3   0.802366 0.240515 0.769928 -0.197837
C190  C     C_3   0.758191 0.801082 0.229101 -0.197801
C191  C     C_3   0.197381 0.759732 0.769740 -0.197999
C192  C     C_3   0.240298 0.197412 0.230240 -0.197870
C193  C     C_1   0.671945 0.827375 0.749736 -0.072033
C194  C     C_1   0.827359 0.328072 0.250417 -0.068836
C195  C     C_1   0.328085 0.172654 0.749608 -0.068840
C196  C     C_1   0.172650 0.671919 0.250405 -0.068817
C197  C     C_1   0.328053 0.827377 0.250264 -0.071812
C198  C     C_1   0.172619 0.328049 0.749750 -0.071805
C199  C     C_1   0.671943 0.172627 0.250274 -0.071798
C200  C     C_1   0.827354 0.671922 0.749594 -0.068602
C201  C     C_1   0.171945 0.327375 0.249737 -0.071799
C202  C     C_1   0.327375 0.828055 0.750266 -0.072082
C203  C     C_1   0.828056 0.672625 0.249721 -0.071790
C204  C     C_1   0.672621 0.171949 0.750264 -0.071817
C205  C     C_1   0.828074 0.327357 0.750406 -0.068602
C206  C     C_1   0.672640 0.828072 0.249581 -0.068817
C207  C     C_1   0.171915 0.672654 0.750404 -0.068911
C208  C     C_1   0.327351 0.171920 0.249594 -0.068811
C209  C     C_R   0.500305 0.953328 0.554789 0.521122
C210  C     C_R   0.953333 0.500476 0.445213 0.521108
C211  C     C_R   0.499691 0.046677 0.554787 0.521170
C212  C     C_R   0.046675 0.499513 0.445212 0.521182
C213  C     C_R   0.500321 0.953329 0.445214 0.521175
C214  C     C_R   0.046674 0.499544 0.554787 0.521195
C215  C     C_R   0.499665 0.046678 0.445212 0.521200
C216  C     C_R   0.953332 0.500465 0.554787 0.521176
C217  C     C_R   0.000581 0.453322 0.054789 0.521189
C218  C     C_R   0.453345 0.001045 0.945212 0.521146
C219  C     C_R   0.999435 0.546666 0.054785 0.521184
C220  C     C_R   0.546669 0.998931 0.945213 0.521212
C221  C     C_R   0.000597 0.453314 0.945214 0.521247
C222  C     C_R   0.546664 0.998977 0.054787 0.521114
C223  C     C_R   0.999421 0.546657 0.945211 0.521080
C224  C     C_R   0.453339 0.001031 0.054787 0.521183
H1    H     H_    0.776682 0.842109 0.750813 0.139469
H2    H     H_    0.836878 0.221130 0.242971 0.139126
H3    H     H_    0.220460 0.162435 0.753554 0.139412
H4    H     H_    0.162757 0.779231 0.244566 0.139358
H5    H     H_    0.223311 0.842110 0.249263 0.139896
H6    H     H_    0.157886 0.223299 0.748826 0.140030
H7    H     H_    0.776581 0.157993 0.247634 0.139754
H8    H     H_    0.837226 0.779218 0.755512 0.139572
H9    H     H_    0.276689 0.342114 0.250622 0.139914
H10   H     H_    0.342106 0.723304 0.749420 0.139303
H11   H     H_    0.723463 0.658043 0.252845 0.139706
H12   H     H_    0.657896 0.276688 0.749054 0.139894
H13   H     H_    0.720808 0.337211 0.744359 0.139674
H14   H     H_    0.663240 0.721255 0.257491 0.139090
H15   H     H_    0.279251 0.662726 0.744718 0.138980
H16   H     H_    0.337265 0.279253 0.255320 0.139356
H17   H     H_    0.797310 0.731292 0.790411 0.129495
H18   H     H_    0.741423 0.202190 0.211032 0.129765
H19   H     H_    0.197533 0.253921 0.787662 0.129726
H20   H     H_    0.256419 0.799980 0.211599 0.129724
H21   H     H_    0.202585 0.731409 0.209608 0.129289
H22   H     H_    0.265964 0.199947 0.789887 0.129212
H23   H     H_    0.795153 0.270866 0.209244 0.129313
H24   H     H_    0.743482 0.799870 0.788428 0.129520
H25   H     H_    0.297576 0.231561 0.290363 0.129308
H26   H     H_    0.231617 0.702377 0.709646 0.129064
H27   H     H_    0.705512 0.771515 0.290850 0.129363
H28   H     H_    0.768882 0.297140 0.709556 0.129490
H29   H     H_    0.700296 0.243320 0.711522 0.129725
H30   H     H_    0.759224 0.702819 0.289124 0.129798
H31   H     H_    0.300176 0.756221 0.711658 0.129318
H32   H     H_    0.243730 0.300122 0.288359 0.129763
H33   H     H_    0.756248 0.700132 0.710016 0.143531
H34   H     H_    0.689069 0.244658 0.288532 0.139097
H35   H     H_    0.249146 0.315422 0.713265 0.138780
H36   H     H_    0.313021 0.753242 0.287739 0.138954
H37   H     H_    0.243859 0.700016 0.289954 0.143524
H38   H     H_    0.302526 0.246413 0.710795 0.143387
H39   H     H_    0.758351 0.297762 0.290529 0.143666
H40   H     H_    0.687075 0.753345 0.712223 0.138958
H41   H     H_    0.255985 0.199868 0.210088 0.143566
H42   H     H_    0.199805 0.744069 0.789898 0.143530
H43   H     H_    0.740996 0.797128 0.209317 0.143753
H44   H     H_    0.799688 0.256422 0.790030 0.143502
H45   H     H_    0.746483 0.187240 0.787841 0.138926
H46   H     H_    0.810299 0.744041 0.211244 0.139181
H47   H     H_    0.253044 0.813219 0.787662 0.138932
H48   H     H_    0.186832 0.253103 0.212320 0.138982
H49   H     H_    0.499094 0.132114 0.523653 0.195447
H50   H     H_    0.132105 0.498660 0.476343 0.195446
H51   H     H_    0.500898 0.867892 0.523659 0.195405
H52   H     H_    0.867902 0.501334 0.476345 0.195428
H53   H     H_    0.499080 0.132114 0.476342 0.195405
H54   H     H_    0.867902 0.501327 0.523656 0.195418
H55   H     H_    0.500908 0.867893 0.476347 0.195379
H56   H     H_    0.132105 0.498677 0.523655 0.195404
H57   H     H_    0.998347 0.632095 0.023650 0.195406
H58   H     H_    0.632080 0.997008 0.976345 0.195429
H59   H     H_    0.001670 0.367888 0.023661 0.195413
H60   H     H_    0.367931 0.002976 0.976343 0.195430
H61   H     H_    0.998339 0.632091 0.976338 0.195420
H62   H     H_    0.367928 0.002965 0.023655 0.195468
H63   H     H_    0.001679 0.367885 0.976350 0.195465
H64   H     H_    0.632078 0.997033 0.023656 0.195446
H65   H     H_    0.915775 0.499524 0.852842 0.177434
H66   H     H_    0.500174 0.084234 0.147160 0.177857
H67   H     H_    0.084228 0.500457 0.852837 0.178031
H68   H     H_    0.499824 0.915772 0.147162 0.177898
H69   H     H_    0.084230 0.499794 0.147161 0.177300
H70   H     H_    0.501502 0.084213 0.852839 0.177411
H71   H     H_    0.915775 0.500205 0.147159 0.177202
H72   H     H_    0.498509 0.915777 0.852839 0.177799
H73   H     H_    0.415772 0.999326 0.352839 0.177311
H74   H     H_    0.000416 0.584233 0.647160 0.177416
H75   H     H_    0.584222 0.000678 0.352840 0.177188
H76   H     H_    0.999585 0.415773 0.647162 0.177271
H77   H     H_    0.584228 0.999791 0.647160 0.177793
H78   H     H_    0.001389 0.584216 0.352838 0.177842
H79   H     H_    0.415772 0.000212 0.647162 0.177976
H80   H     H_    0.998615 0.415777 0.352840 0.177911
N1    N     N_R   0.499998 0.000003 0.567808 -0.356797
N2    N     N_R   0.000004 0.499994 0.432192 -0.356794
N3    N     N_R   0.499993 0.000004 0.432192 -0.356713
N4    N     N_R   0.000003 0.500005 0.567808 -0.356736
N5    N     N_R   0.000007 0.499995 0.067808 -0.356720
N6    N     N_R   0.500008 0.999987 0.932192 -0.356770
N7    N     N_R   0.000009 0.499985 0.932192 -0.356789
N8    N     N_R   0.500001 0.000005 0.067808 -0.356803
O1    O     O_3   0.000000 0.500000 0.750000 -0.488431
O2    O     O_3   0.500000 0.000000 0.250000 -0.488370
O3    O     O_3   0.000000 0.500000 0.250000 -0.488371
O4    O     O_3   0.500000 0.000000 0.750000 -0.488327
O5    O     O_R   0.999770 0.543030 0.691960 -0.641696
O6    O     O_R   0.543030 0.000230 0.308040 -0.641950
O7    O     O_R   0.000230 0.456970 0.691960 -0.641854
O8    O     O_R   0.456970 0.999770 0.308040 -0.641841
O9    O     O_R   0.000230 0.543030 0.308040 -0.641311
O10   O     O_R   0.456970 0.000230 0.691960 -0.641216
O11   O     O_R   0.999770 0.456970 0.308040 -0.641240
O12   O     O_R   0.543030 0.999770 0.691960 -0.641431
O13   O     O_R   0.499770 0.043030 0.191960 -0.641295
O14   O     O_R   0.043030 0.500230 0.808040 -0.641093
O15   O     O_R   0.500230 0.956970 0.191960 -0.641242
O16   O     O_R   0.956970 0.499770 0.808040 -0.641752
O17   O     O_R   0.500230 0.043030 0.808040 -0.641837
O18   O     O_R   0.956970 0.500230 0.191960 -0.641933
O19   O     O_R   0.499770 0.956970 0.808040 -0.641375
O20   O     O_R   0.043030 0.499770 0.191960 -0.641843
O21   O     O_R   0.939300 0.396520 0.734780 -0.632644
O22   O     O_R   0.396520 0.060700 0.265220 -0.632506
O23   O     O_R   0.060700 0.603480 0.734780 -0.632360
O24   O     O_R   0.603480 0.939300 0.265220 -0.632691
O25   O     O_R   0.060700 0.396520 0.265220 -0.631255
O26   O     O_R   0.603480 0.060700 0.734780 -0.631553
O27   O     O_R   0.939300 0.603480 0.265220 -0.631425
O28   O     O_R   0.396520 0.939300 0.734780 -0.631374
O29   O     O_R   0.439300 0.896520 0.234780 -0.631309
O30   O     O_R   0.896520 0.560700 0.765220 -0.632347
O31   O     O_R   0.560700 0.103480 0.234780 -0.631471
O32   O     O_R   0.103480 0.439300 0.765220 -0.631238
O33   O     O_R   0.560700 0.896520 0.765220 -0.631487
O34   O     O_R   0.103480 0.560700 0.234780 -0.632537
O35   O     O_R   0.439300 0.103480 0.765220 -0.632286
O36   O     O_R   0.896520 0.439300 0.234780 -0.632634
O37   O     O_R   0.103260 0.560510 0.765220 -0.631785
O38   O     O_R   0.560510 0.896740 0.234780 -0.631507
O39   O     O_R   0.896740 0.439490 0.765220 -0.631420
O40   O     O_R   0.439490 0.103260 0.234780 -0.631599
O41   O     O_R   0.896740 0.560510 0.234780 -0.632404
O42   O     O_R   0.439490 0.896740 0.765220 -0.632749
O43   O     O_R   0.103260 0.439490 0.234780 -0.632510
O44   O     O_R   0.560510 0.103260 0.765220 -0.632435
O45   O     O_R   0.603260 0.060510 0.265220 -0.632437
O46   O     O_R   0.060510 0.396740 0.734780 -0.632616
O47   O     O_R   0.396740 0.939490 0.265220 -0.632525
O48   O     O_R   0.939490 0.603260 0.734780 -0.631462
O49   O     O_R   0.396740 0.060510 0.734780 -0.631703
O50   O     O_R   0.939490 0.396740 0.265220 -0.631619
O51   O     O_R   0.603260 0.939490 0.734780 -0.632640
O52   O     O_R   0.060510 0.603260 0.265220 -0.631644
O53   O     O_2   0.500591 0.908099 0.568267 -0.547339
O54   O     O_2   0.908107 0.500951 0.431735 -0.547266
O55   O     O_2   0.499406 0.091906 0.568264 -0.547143
O56   O     O_2   0.091901 0.499036 0.431734 -0.547142
O57   O     O_2   0.500641 0.908100 0.431737 -0.547578
O58   O     O_2   0.091900 0.499105 0.568265 -0.547487
O59   O     O_2   0.499345 0.091907 0.431733 -0.547517
O60   O     O_2   0.908106 0.500905 0.568265 -0.547383
O61   O     O_2   0.001118 0.408096 0.068269 -0.547515
O62   O     O_2   0.408129 0.002065 0.931734 -0.547440
O63   O     O_2   0.998897 0.591894 0.068261 -0.547513
O64   O     O_2   0.591886 0.997909 0.931735 -0.547290
O65   O     O_2   0.001159 0.408086 0.931738 -0.547045
O66   O     O_2   0.591881 0.998008 0.068265 -0.547214
O67   O     O_2   0.998859 0.591883 0.931731 -0.547404
O68   O     O_2   0.408121 0.002002 0.068264 -0.547113
Zn1   Zn    Zn3+2 0.938390 0.500010 0.771740 0.993178
Zn2   Zn    Zn3+2 0.500010 0.061610 0.228260 0.993654
Zn3   Zn    Zn3+2 0.061610 0.499990 0.771740 0.993600
Zn4   Zn    Zn3+2 0.499990 0.938390 0.228260 0.993797
Zn5   Zn    Zn3+2 0.061610 0.500010 0.228260 0.991694
Zn6   Zn    Zn3+2 0.499990 0.061610 0.771740 0.991979
Zn7   Zn    Zn3+2 0.938390 0.499990 0.228260 0.991631
Zn8   Zn    Zn3+2 0.500010 0.938390 0.771740 0.992186
Zn9   Zn    Zn3+2 0.438390 0.000010 0.271740 0.991695
Zn10  Zn    Zn3+2 0.000010 0.561610 0.728260 0.992701
Zn11  Zn    Zn3+2 0.561610 0.999990 0.271740 0.991569
Zn12  Zn    Zn3+2 0.999990 0.438390 0.728260 0.991808
Zn13  Zn    Zn3+2 0.561610 0.000010 0.728260 0.992563
Zn14  Zn    Zn3+2 0.999990 0.561610 0.271740 0.993621
Zn15  Zn    Zn3+2 0.438390 0.999990 0.728260 0.993307
Zn16  Zn    Zn3+2 0.000010 0.438390 0.271740 0.993773
C225  C     C_1   0.743191 0.671143 0.788850 0.237528
N9    N     N_1   0.727055 0.632822 0.797698 -0.161336
C226  C     C_1   0.674058 0.245733 0.207283 0.225502
N10   N     N_1   0.636227 0.254307 0.195714 -0.161168
C227  C     C_1   0.240423 0.320640 0.794702 0.225290
N11   N     N_1   0.247520 0.356999 0.807612 -0.161098
C228  C     C_1   0.323537 0.756689 0.206331 0.225360
N12   N     N_1   0.360711 0.748777 0.194134 -0.160970
C229  C     C_1   0.256708 0.671256 0.211092 0.237343
N13   N     N_1   0.272821 0.632961 0.202208 -0.162039
C230  C     C_1   0.326151 0.254108 0.790245 0.237341
N14   N     N_1   0.363840 0.269614 0.799996 -0.161752
C231  C     C_1   0.741157 0.330894 0.212299 0.237401
N15   N     N_1   0.724573 0.369662 0.204170 -0.162094
C232  C     C_1   0.676352 0.756565 0.793628 0.225299
N16   N     N_1   0.639148 0.748619 0.805796 -0.161745
C233  C     C_1   0.243451 0.171400 0.288990 0.237359
N17   N     N_1   0.227375 0.133138 0.297927 -0.162001
C234  C     C_1   0.171460 0.756512 0.710982 0.237337
N18   N     N_1   0.133214 0.772581 0.702027 -0.161393
C235  C     C_1   0.759450 0.831495 0.287342 0.237421
N19   N     N_1   0.776159 0.870392 0.295251 -0.162219
C236  C     C_1   0.829019 0.243023 0.711242 0.237402
N20   N     N_1   0.867376 0.226846 0.702455 -0.162453
C237  C     C_1   0.743621 0.176164 0.706446 0.225377
N21   N     N_1   0.751619 0.138904 0.694327 -0.161877
C238  C     C_1   0.826644 0.746424 0.292422 0.225624
N22   N     N_1   0.864663 0.755185 0.303801 -0.161097
C239  C     C_1   0.256918 0.823315 0.706245 0.225132
N23   N     N_1   0.249071 0.860428 0.693990 -0.161381
C240  C     C_1   0.176636 0.256848 0.293734 0.225440
N24   N     N_1   0.139510 0.248980 0.305975 -0.160916
C241  C     C_1   0.723182 0.642456 0.732629 0.208313
N25   N     N_1   0.709784 0.599437 0.734505 -0.170439
C242  C     C_1   0.644973 0.283548 0.260963 0.219760
N26   N     N_1   0.605224 0.301518 0.255042 -0.167649
C243  C     C_1   0.284566 0.356062 0.743208 0.219753
N27   N     N_1   0.301714 0.395000 0.750827 -0.166712
C244  C     C_1   0.355564 0.715918 0.259051 0.219806
N28   N     N_1   0.394966 0.698302 0.252343 -0.166810
C245  C     C_1   0.276871 0.642408 0.267281 0.208380
N29   N     N_1   0.290267 0.599396 0.265367 -0.170902
C246  C     C_1   0.358612 0.277905 0.734904 0.208248
N30   N     N_1   0.401469 0.291148 0.737724 -0.170523
C247  C     C_1   0.724122 0.356598 0.269118 0.208500
N31   N     N_1   0.710644 0.399696 0.267981 -0.171059
C248  C     C_1   0.644463 0.715937 0.740860 0.219743
N32   N     N_1   0.605047 0.698299 0.747533 -0.168045
C249  C     C_1   0.223064 0.142345 0.232850 0.208427
N33   N     N_1   0.209677 0.099340 0.234819 -0.170856
C250  C     C_1   0.142321 0.776967 0.767105 0.208351
N34   N     N_1   0.099321 0.790355 0.765117 -0.170390
C251  C     C_1   0.775574 0.856293 0.230357 0.208598
N35   N     N_1   0.789073 0.899406 0.231269 -0.171171
C252  C     C_1   0.857458 0.223252 0.767517 0.208364
N36   N     N_1   0.900483 0.209842 0.765703 -0.171286
C253  C     C_1   0.784012 0.144499 0.759293 0.219741
N37   N     N_1   0.801677 0.105051 0.752684 -0.168101
C254  C     C_1   0.854852 0.783365 0.238474 0.219753
N38   N     N_1   0.894699 0.801423 0.244159 -0.167788
C255  C     C_1   0.215874 0.855618 0.758871 0.219807
N39   N     N_1   0.198295 0.894987 0.752088 -0.167413
C256  C     C_1   0.144402 0.215885 0.241084 0.219806
N40   N     N_1   0.105027 0.198293 0.247848 -0.166847
C257  C     C_1   0.840734 0.761167 0.716205 0.211959
N41   N     N_1   0.865387 0.757317 0.697428 -0.167664
C258  C     C_1   0.759369 0.167752 0.286848 0.212357
N42   N     N_1   0.754736 0.149568 0.307335 -0.172479
C259  C     C_1   0.172309 0.245181 0.710557 0.212237
N43   N     N_1   0.156611 0.252304 0.689740 -0.173120
C260  C     C_1   0.242682 0.830183 0.288078 0.212356
N44   N     N_1   0.248452 0.847223 0.308735 -0.172732
C261  C     C_1   0.159358 0.761067 0.283862 0.211746
N45   N     N_1   0.134757 0.757162 0.302654 -0.167535
C262  C     C_1   0.241164 0.161591 0.714535 0.211809
N46   N     N_1   0.246301 0.138226 0.695429 -0.167883
C263  C     C_1   0.842459 0.237102 0.282441 0.211480
N47   N     N_1   0.868093 0.239968 0.300933 -0.167162
C264  C     C_1   0.757414 0.830286 0.711978 0.212138
N48   N     N_1   0.751697 0.847383 0.691329 -0.172508
C265  C     C_1   0.340507 0.260944 0.216037 0.211771
N49   N     N_1   0.365034 0.256970 0.197225 -0.167405
C266  C     C_1   0.260883 0.659531 0.783996 0.211464
N50   N     N_1   0.256879 0.635026 0.802814 -0.167515
C267  C     C_1   0.657028 0.736597 0.217982 0.211455
N51   N     N_1   0.631099 0.739171 0.199581 -0.166936
C268  C     C_1   0.738686 0.340886 0.783681 0.212040
N52   N     N_1   0.742454 0.365620 0.802436 -0.167675
C269  C     C_1   0.669545 0.257586 0.787922 0.212370
N53   N     N_1   0.652356 0.251960 0.808559 -0.172687
C270  C     C_1   0.740037 0.667164 0.213524 0.212385
N54   N     N_1   0.744336 0.648647 0.193094 -0.172252
C271  C     C_1   0.329977 0.742876 0.788193 0.212102
N55   N     N_1   0.346911 0.748752 0.808865 -0.172615
C272  C     C_1   0.257166 0.330044 0.211838 0.212369
N56   N     N_1   0.251314 0.347010 0.191171 -0.172643
C273  C     C_1   0.903242 0.499435 0.904075 0.210099
N57   N     N_1   0.863778 0.499205 0.915054 -0.166577
C274  C     C_1   0.500258 0.096775 0.095927 0.210819
N58   N     N_1   0.500384 0.136243 0.084949 -0.166131
C275  C     C_1   0.096771 0.500531 0.904069 0.211150
N59   N     N_1   0.136237 0.500758 0.915045 -0.165784
C276  C     C_1   0.499739 0.903234 0.095930 0.210861
N60   N     N_1   0.499612 0.863767 0.084953 -0.166071
C277  C     C_1   0.096770 0.499797 0.095928 0.210046
N61   N     N_1   0.136235 0.499727 0.084949 -0.166523
C278  C     C_1   0.501770 0.096745 0.904071 0.210214
N62   N     N_1   0.502503 0.136205 0.915049 -0.166372
C279  C     C_1   0.903240 0.500200 0.095927 0.209740
N63   N     N_1   0.863776 0.500270 0.084947 -0.166818
C280  C     C_1   0.498249 0.903234 0.904071 0.210816
N64   N     N_1   0.497519 0.863771 0.915048 -0.166016
C281  C     C_1   0.403231 0.999227 0.404071 0.210010
N65   N     N_1   0.363766 0.998910 0.415049 -0.166553
C282  C     C_1   0.000519 0.596775 0.595928 0.210001
N66   N     N_1   0.000743 0.636244 0.584950 -0.166611
C283  C     C_1   0.596758 0.000784 0.404072 0.209689
N67   N     N_1   0.636222 0.001103 0.415050 -0.166848
C284  C     C_1   0.999484 0.403234 0.595931 0.210068
N68   N     N_1   0.999260 0.363766 0.584954 -0.166579
C285  C     C_1   0.596764 0.999785 0.595927 0.210812
N69   N     N_1   0.636229 0.999705 0.584948 -0.166131
C286  C     C_1   0.001616 0.596753 0.404069 0.210695
N70   N     N_1   0.002279 0.636216 0.415046 -0.166219
C287  C     C_1   0.403234 0.000219 0.595930 0.210970
N71   N     N_1   0.363768 0.000299 0.584951 -0.165974
C288  C     C_1   0.998392 0.403237 0.404072 0.210857
N72   N     N_1   0.997729 0.363773 0.415050 -0.166065

loop_
_geom_bond_atom_site_label_1
_geom_bond_atom_site_label_2
_ccdc_geom_bond_type
O14   Zn3   S    
C141  C173  S    
C256  N40   T    
C173  C188  S    
C79   H79   S    
C255  N39   T    
C189  C252  S    
C274  N58   T    
C143  C175  S    
C240  N24   T    
C53   C69   A    
C210  N2    A    
C79   C87   A    
C58   C282  S    
C4    C87   S    
C245  N29   T    
O33   Zn8   S    
C113  H8    S    
O26   Zn13  S    
C138  C143  S    
C139  C142  S    
C110  C148  S    
C109  O33   A    
C78   C88   A    
C67   H67   S    
C124  C268  S    
C180  C245  S    
C152  C200  T    
C239  N23   T    
C102  O26   A    
C50   C90   A    
C98   O22   A    
O10   Zn15  S    
C130  C135  S    
O28   Zn15  S    
C56   C72   A    
C1    O5    A    
C189  H44   S    
C139  C171  S    
C19   C217  A    
O21   Zn12  S    
C190  H43   S    
C146  C194  T    
C70   C84   A    
O1    Zn3   S    
C21   C45   A    
C17   C219  A    
C137  C233  S    
C123  H14   S    
C188  H45   S    
C93   N3    S    
C94   N4    S    
C183  C242  S    
O12   Zn13  S    
C212  O56   S    
C188  C253  S    
C89   N7    S    
C8    O18   A    
C44   C46   A    
O5    Zn10  S    
C153  C201  T    
C91   N5    S    
O2    Zn9   S    
C57   C281  S    
C134  H22   S    
C106  C152  S    
C73   H73   S    
C258  N42   T    
C46   H62   S    
C157  C205  T    
C140  C141  S    
C121  C128  S    
O35   Zn6   S    
C59   C283  S    
C123  C126  S    
C261  N45   T    
C60   C76   A    
C23   C31   A    
C24   C32   A    
C54   C92   A    
C66   C82   A    
C113  C120  S    
C15   C27   A    
C54   C70   A    
C115  C118  S    
C55   C279  S    
C71   H71   S    
C171  C206  S    
C6    O16   A    
C72   H72   S    
C15   C39   A    
C72   C84   A    
O48   Zn10  S    
C16   C40   A    
C43   H59   S    
C10   C212  A    
C110  O52   A    
O2    Zn4   S    
C106  O30   A    
C129  C225  S    
O4    Zn6   S    
C119  C167  S    
C264  N48   T    
C164  C197  S    
C120  C168  S    
C185  C192  S    
C78   H78   S    
C5    O13   A    
C21   C223  A    
C138  C234  S    
C109  C145  S    
O41   Zn7   S    
C159  C207  T    
O38   Zn4   S    
C177  C184  S    
C100  O38   A    
C13   C215  A    
C161  C184  S    
C11   C35   A    
C192  C249  S    
C112  O36   A    
C162  C183  S    
C80   C88   A    
C229  N13   T    
C175  C186  S    
C5    C82   S    
C221  O65   S    
C285  N69   T    
C222  N8    A    
C1    O7    A    
C217  O61   S    
C115  C163  S    
C249  N33   T    
O22   Zn9   S    
O46   Zn12  S    
C115  C259  S    
C113  C161  S    
C167  C178  S    
C133  C229  S    
C223  O67   S    
C41   C45   A    
C108  O46   A    
C231  N15   T    
C43   C47   A    
C95   N1    S    
C55   C71   A    
C186  C255  S    
C187  C254  S    
C237  N21   T    
C99   C159  S    
C8    C83   S    
C236  N20   T    
C234  N18   T    
C15   C213  A    
C18   C220  A    
C213  O57   S    
C227  N11   T    
C20   C30   A    
C257  N41   T    
C130  C226  S    
C21   C31   A    
C22   C32   A    
C112  O50   A    
C172  C205  S    
C122  C266  S    
C18   C42   A    
C103  O41   A    
C11   C25   A    
C226  N10   T    
C57   C73   A    
C122  C127  S    
C6    O14   A    
C164  C181  S    
C185  H48   S    
O50   Zn16  S    
C186  H47   S    
C132  H20   S    
C3    O11   A    
C242  N26   T    
C187  H46   S    
C2    O8    A    
C115  H6    S    
C64   C288  S    
C62   C286  S    
C53   C91   A    
C114  C119  S    
C177  C248  S    
O4    Zn13  S    
C107  C151  S    
C130  C162  S    
C5    O15   A    
C6    C81   S    
C143  H31   S    
C277  N61   T    
O30   Zn1   S    
C155  C203  T    
C20   C44   A    
C71   C83   A    
C53   C277  S    
C23   C47   A    
O43   Zn5   S    
C14   C216  A    
C24   C48   A    
C135  H23   S    
O36   Zn7   S    
C163  C198  S    
C117  C165  S    
C114  H7    S    
C119  C263  S    
C121  C265  S    
C51   C67   A    
C122  C170  S    
C22   C224  A    
C170  C191  S    
C2    O6    A    
C171  C190  S    
C12   C26   A    
O37   Zn3   S    
C269  N53   T    
C39   H55   S    
C174  C187  S    
C160  C208  T    
O20   Zn5   S    
O39   Zn1   S    
C268  N52   T    
C184  C241  S    
C183  H34   S    
C144  C176  S    
C267  N51   T    
C129  C161  S    
O1    Zn12  S    
C42   C48   A    
C140  C236  S    
C16   C214  A    
O11   Zn16  S    
C73   C85   A    
C108  C150  S    
C137  C144  S    
C98   C160  S    
C67   C81   A    
C168  C193  S    
C13   C37   A    
C191  C250  S    
O15   Zn4   S    
C74   H74   S    
C284  N68   T    
C102  C156  S    
C58   C74   A    
C1    C86   S    
O17   Zn6   S    
C161  C200  S    
C3    C88   S    
C178  C247  S    
C62   C78   A    
C175  C202  S    
C138  H26   S    
C126  C174  S    
C278  N62   T    
C118  C262  S    
C142  H30   S    
O16   Zn1   S    
C68   C82   A    
O47   Zn9   S    
C209  N1    A    
C220  N6    A    
C225  N9    T    
C180  H37   S    
C130  H18   S    
C3    O9    A    
C33   H49   S    
C167  C194  S    
C209  O53   S    
C64   C96   A    
C179  C246  S    
C192  H41   S    
C75   H75   S    
C219  O63   S    
C211  N1    A    
O4    Zn15  S    
C252  N36   T    
C77   C87   A    
C251  N35   T    
C270  N54   T    
C135  C167  S    
C35   H51   S    
O18   Zn7   S    
O27   Zn14  S    
C282  N66   T    
C119  H2    S    
C37   H53   S    
C60   C94   A    
O25   Zn16  S    
C117  H4    S    
C233  N17   T    
C62   C96   A    
C17   C29   A    
C52   C90   A    
C266  N50   T    
C140  H28   S    
C213  N3    A    
C131  C134  S    
O4    Zn8   S    
C214  N4    A    
C220  O64   S    
C9    C25   A    
C176  C185  S    
C108  O32   A    
C114  C258  S    
C117  C261  S    
C144  H32   S    
O3    Zn7   S    
O24   Zn11  S    
C111  O35   A    
C219  N5    A    
O1    Zn1   S    
C281  N65   T    
C110  O34   A    
O44   Zn6   S    
C114  C162  S    
C168  C177  S    
C44   H60   S    
C63   C95   A    
C128  H9    S    
C45   H61   S    
C136  H24   S    
C2    C85   S    
C103  O27   A    
C186  C191  S    
C187  C190  S    
C55   C91   A    
C97   O21   A    
O34   Zn5   S    
C75   C85   A    
C23   C221  A    
C99   O23   A    
C142  C238  S    
C134  C166  S    
C145  C193  T    
C178  C183  S    
C135  C231  S    
C101  O43   A    
C218  O62   S    
C179  C182  S    
C102  O44   A    
C126  C270  S    
C100  O24   A    
C61   C285  S    
C254  N38   T    
C246  N30   T    
C273  N57   T    
C9    C33   A    
C64   C80   A    
C120  C264  S    
C105  O47   A    
C154  C202  T    
C19   C43   A    
C216  N4    A    
C107  O45   A    
C127  C175  S    
C128  C176  S    
C250  N34   T    
C158  C206  T    
C286  N70   T    
C63   C79   A    
C241  N25   T    
C162  C199  S    
C33   C37   A    
O6    Zn11  S    
C35   C39   A    
C262  N46   T    
C132  C164  S    
C265  N49   T    
C133  C165  S    
C63   C287  S    
C65   C81   A    
C131  C163  S    
C288  N72   T    
O40   Zn2   S    
C7    O17   A    
C60   C284  S    
C103  C155  S    
C50   C274  S    
C22   C46   A    
O13   Zn2   S    
C125  C269  S    
C68   H68   S    
C69   H69   S    
C105  O29   A    
C224  O68   S    
C19   C29   A    
C165  C196  S    
C76   C86   A    
C8    O20   A    
C107  O31   A    
C180  C181  S    
C80   H80   S    
C65   H65   S    
O23   Zn10  S    
O3    Zn5   S    
C20   C218  A    
C218  N6    A    
C216  O60   S    
C137  H25   S    
C61   C95   A    
C24   C222  A    
C172  C189  S    
C121  H16   S    
C41   H57   S    
C141  H29   S    
O7    Zn12  S    
C36   C38   A    
C12   C210  A    
C125  H12   S    
C47   H63   S    
C51   C89   A    
C48   H64   S    
C129  H17   S    
O3    Zn16  S    
C112  C146  S    
C211  O55   S    
C127  C271  S    
C104  O28   A    
C100  C158  S    
C170  C207  S    
C40   H56   S    
C49   C273  S    
C52   C276  S    
O42   Zn8   S    
C232  N16   T    
C104  C154  S    
C150  C198  T    
O31   Zn2   S    
C123  C171  S    
C217  N5    A    
C98   O40   A    
C16   C28   A    
C121  C169  S    
C104  O42   A    
C116  H5    S    
C138  C170  S    
C221  N7    A    
C228  N12   T    
C214  O58   S    
C125  C173  S    
C169  C208  S    
C235  N19   T    
C280  N64   T    
C142  C174  S    
C181  H36   S    
C92   N6    S    
C54   C278  S    
C182  H35   S    
C34   H50   S    
C279  N63   T    
C49   C65   A    
C173  C204  S    
C34   C40   A    
C181  C244  S    
C177  H40   S    
C106  O48   A    
C275  N59   T    
O32   Zn3   S    
C111  C147  S    
C178  H39   S    
C179  H38   S    
C14   C38   A    
C276  N60   T    
C222  O66   S    
C116  C117  S    
C283  N67   T    
C96   N2    S    
C132  C228  S    
C148  C196  T    
C132  C133  S    
C124  C172  S    
C272  N56   T    
C147  C195  T    
C123  C267  S    
C12   C36   A    
C271  N55   T    
C141  C237  S    
C52   C68   A    
C10   C26   A    
C7    C84   S    
C140  C172  S    
C57   C93   A    
C163  C182  S    
C4    O10   A    
C223  N7    A    
C224  N8    A    
C134  C230  S    
C210  O54   S    
C42   H58   S    
C38   H54   S    
C131  C227  S    
O45   Zn11  S    
C30   C32   A    
C122  H15   S    
C151  C199  T    
C166  C195  S    
C61   C77   A    
C238  N22   T    
C76   H76   S    
C77   H77   S    
C136  C168  S    
O3    Zn14  S    
C263  N47   T    
C118  C166  S    
C188  C189  S    
C97   C157  S    
O51   Zn13  S    
C212  N2    A    
C69   C83   A    
O49   Zn15  S    
C129  C136  S    
C215  O59   S    
C260  N44   T    
C182  C243  S    
C101  C153  S    
C230  N14   T    
C259  N43   T    
C10   C34   A    
C74   C86   A    
C126  H11   S    
C50   C66   A    
C144  C240  S    
C143  C239  S    
C18   C30   A    
O9    Zn14  S    
C111  O49   A    
O2    Zn2   S    
C116  C260  S    
C191  H42   S    
C36   H52   S    
O1    Zn10  S    
C156  C204  T    
C56   C280  S    
C59   C75   A    
O19   Zn8   S    
C287  N71   T    
C136  C232  S    
O8    Zn9   S    
C127  H10   S    
C90   N8    S    
C190  C251  S    
C101  O25   A    
C137  C169  S    
C176  C201  S    
C116  C164  S    
C139  H27   S    
C97   O39   A    
C49   C89   A    
C7    O19   A    
C99   O37   A    
O2    Zn11  S    
C25   C27   A    
C105  C149  S    
C26   C28   A    
C184  H33   S    
C118  H3    S    
C128  C272  S    
C58   C94   A    
C248  N32   T    
C29   C31   A    
C131  H19   S    
C11   C209  A    
O52   Zn14  S    
C124  H13   S    
C185  C256  S    
C247  N31   T    
C51   C275  S    
C9    C211  A    
C109  O51   A    
C174  C203  S    
C70   H70   S    
C253  N37   T    
C17   C41   A    
C215  N3    A    
C244  N28   T    
C139  C235  S    
C66   H66   S    
C243  N27   T    
C133  H21   S    
C4    O12   A    
C165  C180  S    
C13   C27   A    
O29   Zn4   S    
C166  C179  S    
C59   C93   A    
C169  C192  S    
C14   C28   A    
C56   C92   A    
C120  H1    S    
C149  C197  T    
C124  C125  S    
C113  C257  S    
