data_mof_unit_34453.cif
_audit_creation_date              2013-03-05T16:12:16-0500
_audit_creation_method            fapswitch 2.2
_symmetry_space_group_name_H-M    P1
_symmetry_Int_Tables_number       1
_space_group_crystal_system       triclinic
_cell_length_a                    8.287885
_cell_length_b                    16.391486
_cell_length_c                    26.881374
_cell_angle_alpha                 72.220342
_cell_angle_beta                  96.830274
_cell_angle_gamma                 96.131637
_cell_volume                      3443.1431362

loop_
_atom_site_label
_atom_site_type_symbol
_atom_site_description
_atom_site_fract_x
_atom_site_fract_y
_atom_site_fract_z
_atom_type_partial_charge
P1    P     P_3+3 0.610630 0.953360 0.619150 0.513239
O1    O     O_2   0.431310 0.922990 0.623550 -0.352930
O2    O     O_3   0.663280 0.983100 0.563360 -0.412514
O3    O     O_3   0.126250 0.812630 0.574830 -0.399899
O4    O     O_2   0.304559 0.773374 0.664928 -0.411667
O5    O     O_3   0.633855 0.038418 0.646580 -0.521205
O6    O     O_3   0.090833 0.651128 0.652698 -0.502692
H1    H     H_    0.184917 0.669819 0.580773 0.157016
C1    C     C_3   0.106793 0.538510 0.613088 -0.812667
H2    H     H_    0.006245 0.496689 0.633444 0.301199
P2    P     P_3+3 0.057260 0.861390 0.437850 0.502383
P3    P     P_3+3 0.506611 0.698728 0.532987 0.438543
O7    O     O_2   0.229950 0.835370 0.450810 -0.326762
O8    O     O_3   0.517580 0.797570 0.545130 -0.385319
O9    O     O_2   0.351034 0.694648 0.495715 -0.379520
O10   O     O_3   0.026905 0.892040 0.368832 -0.586039
O11   O     O_3   0.468620 0.615972 0.590661 -0.579250
C2    C     C_3   0.589133 0.619200 0.632071 0.824919
H3    H     H_    0.658102 0.683145 0.625775 -0.041516
C3    C     C_3   0.505167 0.599769 0.682458 -0.876726
H4    H     H_    0.397596 0.636764 0.675467 0.277025
H5    H     H_    0.464109 0.530494 0.696612 0.254522
C4    C     C_3   0.611480 0.886453 0.387217 0.115617
H6    H     H_    0.736592 0.901144 0.403088 0.055384
H7    H     H_    0.535717 0.861781 0.420876 0.128431
C5    C     C_3   0.615919 0.816968 0.358542 0.341123
H8    H     H_    0.741820 0.795742 0.365838 0.023018
Ba1   Ba    Ba6+2 0.337820 0.939830 0.518500 1.597903
C6    C     C_3   0.593853 0.114487 0.608224 0.375041
H9    H     H_    0.465480 0.107684 0.592756 0.101141
H10   H     H_    0.673715 0.130514 0.575753 0.129998
C7    C     C_3   0.616994 0.187044 0.633307 -0.869612
H11   H     H_    0.532325 0.174629 0.664312 0.274266
H12   H     H_    0.592463 0.249164 0.603533 0.215641
H13   H     H_    0.744430 0.191805 0.651035 0.260547
C8    C     C_3   0.094471 0.974527 0.343206 0.765189
H14   H     H_    0.144288 0.011349 0.370865 -0.024651
C9    C     C_3   0.959984 0.022057 0.304596 -0.801614
H15   H     H_    0.986824 0.092373 0.293154 0.193566
H16   H     H_    0.842544 0.006065 0.321644 0.274027
P4    P     P_3+3 0.579040 0.046590 0.380840 0.532031
O12   O     O_2   0.758370 0.077020 0.376420 -0.387096
O13   O     O_3   0.526390 0.016840 0.436620 -0.392586
O14   O     O_3   0.063420 0.187310 0.425160 -0.380149
O15   O     O_3   0.551141 0.961851 0.352577 -0.489844
P5    P     P_3+3 0.693447 0.302768 0.465622 0.431605
O16   O     O_3   0.173250 0.067890 0.537260 -0.369979
O17   O     O_3   0.672100 0.202370 0.454860 -0.401765
O18   O     O_2   0.848051 0.305635 0.503544 -0.394569
O19   O     O_3   0.736310 0.382524 0.407596 -0.518804
Ba2   Ba    Ba6+2 0.851970 0.060110 0.481480 1.571495
P6    P     P_3+3 0.126346 0.762689 0.642151 0.459606
C10   C     C_3   0.085324 0.633313 0.604345 0.480387
H17   H     H_    0.966160 0.649399 0.581709 0.041439
O20   O     O_3   0.016420 0.932050 0.462720 -0.398649
C11   C     C_3   0.072630 0.046303 0.654898 0.200417
H18   H     H_    0.944859 0.063996 0.644449 0.130199
H19   H     H_    0.090997 0.990177 0.641760 0.082401
C12   C     C_3   0.111189 0.024255 0.714404 -0.142919
H20   H     H_    0.108385 0.082992 0.726667 0.162418
H21   H     H_    0.236560 0.002203 0.724964 0.160889
P7    P     P_3+3 0.145147 0.149772 0.564128 0.456383
O21   O     O_2   0.959730 0.164640 0.549160 -0.366131
O22   O     O_3   0.180204 0.116239 0.632551 -0.591510
H22   H     H_    0.589678 0.616713 0.713564 0.237372
C13   C     C_3   0.639469 0.363171 0.365589 0.389230
H23   H     H_    0.664015 0.299554 0.362769 0.132062
H24   H     H_    0.508005 0.364023 0.369859 0.051383
C14   C     C_3   0.681799 0.430312 0.314886 -0.818625
H25   H     H_    0.616797 0.411997 0.281025 0.237418
H26   H     H_    0.645933 0.494070 0.314165 0.269686
P8    P     P_3+3 0.064190 0.236714 0.357565 0.462327
C15   C     C_3   0.149494 0.366189 0.392865 0.404865
O23   O     O_2   0.886659 0.227621 0.333624 -0.407392
O24   O     O_3   0.102157 0.348086 0.345235 -0.512693
C16   C     C_3   0.185565 0.462627 0.382207 -0.841589
H27   H     H_    0.218028 0.477982 0.419782 0.215563
H28   H     H_    0.076439 0.496651 0.361753 0.273677
C17   C     C_R   0.490343 0.259952 0.170050 0.570661
O25   O     O_2   0.500800 0.182276 0.183926 -0.521225
N1    N     N_R   0.436063 0.298422 0.203700 -0.171780
C18   C     C_R   0.417964 0.386165 0.186916 0.505523
C19   C     C_2   0.247324 0.247999 0.272628 -0.127455
C20   C     C_3   0.204632 0.190197 0.326131 0.178546
C21   C     C_1   0.477147 0.142716 0.341333 0.344785
C22   C     C_2   0.515851 0.188774 0.293496 -0.166204
C23   C     C_2   0.395546 0.246467 0.256179 0.118629
C24   C     C_R   0.518293 0.399014 0.102680 -0.059970
C25   C     C_R   0.531396 0.309519 0.119295 -0.090707
C26   C     C_R   0.580328 0.271071 0.084117 -0.050596
C27   C     C_R   0.459475 0.437268 0.136598 -0.044233
C28   C     C_2   0.356250 0.162911 0.361783 -0.488232
H29   H     H_    0.632618 0.183625 0.280749 0.178503
C29   C     C_2   0.841815 0.841849 0.638471 -0.495816
C30   C     C_R   0.684522 0.463465 0.969962 -0.113840
C31   C     C_R   0.570051 0.588473 0.981883 0.069959
C32   C     C_R   0.644337 0.550554 0.950112 0.076578
C33   C     C_R   0.782105 0.432823 0.940036 0.292931
C34   C     C_R   0.808046 0.481353 0.888382 -0.149807
C35   C     C_R   0.757298 0.564772 0.866821 -0.106613
C36   C     C_R   0.680776 0.600656 0.898299 -0.057632
C37   C     C_R   0.641752 0.686900 0.878091 -0.079860
C38   C     C_R   0.681640 0.736257 0.827189 0.584727
N2    N     N_R   0.753639 0.699924 0.795758 -0.172789
C39   C     C_R   0.789341 0.614344 0.815164 0.538561
C40   C     C_2   0.944907 0.751792 0.727231 -0.053202
C41   C     C_3   0.991144 0.811149 0.674485 0.194397
C42   C     C_1   0.716815 0.858599 0.658725 0.324962
C43   C     C_2   0.675848 0.810230 0.705733 -0.154773
C44   C     C_2   0.795207 0.752119 0.743221 0.101358
O26   O     O_2   0.848308 0.580811 0.787390 -0.541870
C45   C     C_R   0.627006 0.411253 0.018793 0.059413
C46   C     C_R   0.562055 0.450130 0.051819 0.100771
C47   C     C_R   0.538208 0.539296 0.034194 0.046653
C48   C     C_R   0.623343 0.320556 0.034628 -0.086813
H30   H     H_    0.038156 0.714907 0.753814 0.164226
H31   H     H_    0.879080 0.455549 0.866141 0.215353
H32   H     H_    0.648465 0.285899 0.008496 0.167874
O27   O     O_2   0.366320 0.420110 0.215874 -0.584311
C49   C     C_R   0.443565 0.526057 0.119581 -0.053014
H33   H     H_    0.154438 0.285619 0.246317 0.164775
H34   H     H_    0.400727 0.557755 0.144943 0.181373
C50   C     C_R   0.529394 0.674665 0.959906 -0.191824
C51   C     C_R   0.565099 0.722618 0.909415 -0.048881
O28   O     O_2   0.654742 0.812177 0.811367 -0.527117
C52   C     C_R   0.481561 0.575894 0.069641 -0.192749
H35   H     H_    0.466609 0.706901 0.980439 0.139321
H36   H     H_    0.531461 0.788403 0.894865 0.181542
H37   H     H_    0.556383 0.812920 0.717418 0.188138
H38   H     H_    0.468010 0.643671 0.060379 0.142070
H39   H     H_    0.368292 0.162960 0.402455 0.161500
C53   C     C_2   0.403904 0.248682 0.508275 -0.542543
C54   C     C_R   0.803823 0.760526 0.492482 -0.569682
C55   C     C_2   0.244489 0.318822 0.552387 -0.294990
C56   C     C_2   0.264410 0.250372 0.536995 0.318484
C57   C     C_2   0.512465 0.316490 0.494967 0.218235
C58   C     C_3   0.470349 0.402196 0.497999 -0.097803
C59   C     C_3   0.368795 0.394085 0.543691 0.128382
C60   C     C_2   0.612146 0.466519 0.498279 -0.087503
C61   C     C_2   0.582655 0.548204 0.490074 -0.007244
C62   C     C_R   0.853841 0.615606 0.464215 0.065007
C63   C     C_R   0.712864 0.617132 0.487858 0.017887
C64   C     C_R   0.966225 0.686749 0.453397 -0.262411
C65   C     C_R   0.938351 0.760488 0.465958 0.306608
C66   C     C_R   0.688556 0.690068 0.502457 0.183475
H40   H     H_    0.148117 0.316470 0.576944 0.172339
H41   H     H_    0.069357 0.685902 0.432480 0.219839
H42   H     H_    0.423654 0.188693 0.501561 0.167750
H43   H     H_    0.783121 0.817808 0.502067 0.185135
H44   H     H_    0.736100 0.447213 0.507134 0.169037
H45   H     H_    0.456983 0.564698 0.483873 0.170132
N3    N     N_R   0.505565 0.741341 0.379597 0.214504
O29   O     O_R   0.541609 0.667068 0.377750 -0.403410
O30   O     O_R   0.355394 0.750856 0.384869 -0.327477
N4    N     N_R   0.579491 0.849998 0.301364 0.303177
O31   O     O_R   0.470778 0.809286 0.276717 -0.244046
O32   O     O_R   0.673363 0.911620 0.273817 -0.346785
N5    N     N_R   0.222216 0.966434 0.312289 0.236320
O33   O     O_R   0.239282 0.892272 0.306181 -0.250808
O34   O     O_R   0.289347 0.034918 0.280577 -0.388244
H46   H     H_    0.222820 0.519948 0.637035 0.263385
H47   H     H_    0.945494 0.002251 0.268212 0.281978
H48   H     H_    0.108971 0.526749 0.574579 0.203418
N6    N     N_R   0.994894 0.958316 0.742567 0.238044
O35   O     O_R   0.843784 0.974866 0.740359 -0.330221
O36   O     O_R   0.048030 0.890777 0.778138 -0.386304
H49   H     H_    0.814785 0.434466 0.311413 0.274263
H50   H     H_    0.261380 0.334064 0.412095 0.035862
H51   H     H_    0.050286 0.345065 0.419460 0.164809
H52   H     H_    0.288965 0.485382 0.357401 0.273176
H53   H     H_    0.583771 0.201966 0.094486 0.187036
N7    N     N_R   0.876181 0.359619 0.963352 0.227509
O37   O     O_R   0.899145 0.309059 0.936164 -0.362630
O38   O     O_R   0.960793 0.351627 0.008373 -0.380147
N8    N     N_R   0.703542 0.553621 0.639665 0.205803
O39   O     O_R   0.685400 0.502051 0.610662 -0.433601
O40   O     O_R   0.808876 0.537997 0.680759 -0.355757
H54   H     H_    0.836238 0.848652 0.596833 0.174487

loop_
_geom_bond_atom_site_label_1
_geom_bond_atom_site_label_2
_geom_bond_distance
_ccdc_geom_bond_type
P3    C66   1.838148 S    
C19   C23   1.359355 D    
C5    N3    1.464916 S    
Ba1   O16   2.818252 S    
C36   C37   1.408917 A    
C4    O15   1.401085 S    
N4    O32   1.298549 A    
C15   O24   1.403208 S    
P4    O12   1.522938 D    
C13   H24   1.111071 S    
O16   P7    1.753882 S    
N1    C18   1.388639 Am   
C30   C33   1.428925 A    
C50   C51   1.393512 A    
N8    O40   1.301370 A    
C10   H17   1.109000 S    
C11   H18   1.108825 S    
C64   H41   1.081013 S    
C58   C60   1.493599 S    
P5    O18   1.545607 D    
C29   C42   1.315783 D    
C5    H8    1.111539 S    
C6    H9    1.102297 S    
O3    P6    1.743600 S    
N6    O35   1.300244 A    
C9    H16   1.097406 S    
C16   H28   1.110645 S    
O6    P6    1.760454 S    
P1    O1    1.522612 D    
C6    C7    1.521876 S    
C30   C45   1.434682 A    
C62   C64   1.391862 A    
C9    H15   1.103415 S    
C47   C52   1.415597 A    
Ba1   Ba2   4.542694 S    
C49   C52   1.394463 A    
C13   C14   1.518921 S    
C40   C41   1.520188 S    
C52   H38   1.077000 S    
C64   C65   1.398487 A    
P2    C65   1.828474 S    
C42   C43   1.331660 D    
C1    H48   1.111811 S    
C2    H3    1.113861 S    
C29   H54   1.086256 S    
C4    C5    1.563535 S    
C24   C46   1.433980 A    
C14   H26   1.110657 S    
C11   C12   1.530212 S    
C45   C46   1.420029 A    
P7    O22   1.749063 S    
C12   N6    1.456571 S    
C21   C28   1.314812 D    
O17   Ba2   2.764364 S    
N8    O39   1.300932 A    
P6    C41   1.866964 S    
N7    O38   1.301741 A    
C26   H53   1.083410 S    
P1    Ba1   3.359459 S    
C4    H6    1.104248 S    
C11   O22   1.399411 S    
O7    Ba1   2.868943 S    
C1    H2    1.105048 S    
Ba2   O20   2.817670 S    
C8    N5    1.461452 S    
O12   Ba2   2.775113 S    
C51   H36   1.083590 S    
C33   N7    1.436976 S    
C2    N8    1.460806 S    
C13   H23   1.109856 S    
C39   O26   1.221944 D    
C12   H20   1.112010 S    
N5    O34   1.300506 A    
P4    O13   1.529756 S    
C63   C66   1.407367 A    
C31   C47   1.430868 A    
C5    N4    1.470737 S    
C14   H25   1.106604 S    
C18   O27   1.222049 D    
P8    O24   1.753317 S    
C37   C51   1.401127 A    
N2    C39   1.390152 Am   
O3    Ba1   2.763541 S    
Ba1   O20   2.907613 S    
C49   H34   1.083565 S    
C55   H40   1.085574 S    
P5    O17   1.743460 S    
C29   C41   1.507544 S    
C12   H21   1.112787 S    
P1    O5    1.749680 S    
C53   H42   1.084464 S    
C7    H13   1.110891 S    
C3    H22   1.108105 S    
C28   H39   1.086225 S    
Ba2   O21   2.869441 S    
C16   H27   1.109997 S    
C15   H50   1.108355 S    
C17   N1    1.387070 Am   
O2    Ba2   2.753874 S    
C22   C23   1.509610 S    
O16   Ba2   2.906768 S    
C21   C22   1.334138 D    
C18   C27   1.416592 A    
C40   H30   1.085378 S    
P1    O2    1.530005 S    
C7    H12   1.107489 S    
P7    C56   1.821230 S    
P3    O11   1.755939 S    
C1    H46   1.107844 S    
C14   H49   1.110270 S    
P7    O21   1.567108 D    
C22   H29   1.084010 S    
C34   H31   1.083645 S    
P2    O10   1.761987 S    
C50   H35   1.076932 S    
C19   C20   1.519405 S    
C24   C27   1.407929 A    
C53   C57   1.339016 D    
C48   H32   1.078546 S    
C31   C32   1.423301 A    
C3    H4    1.097242 S    
O11   C2    1.414125 S    
C35   C39   1.418289 A    
C54   H43   1.081697 S    
O4    P6    1.543448 D    
N1    C23   1.464906 S    
C26   C48   1.395298 A    
C19   H33   1.085668 S    
C16   H52   1.110813 S    
O19   C13   1.403096 S    
C61   H45   1.084923 S    
P8    C20   1.862055 S    
O14   Ba2   2.762821 S    
P8    O23   1.545245 D    
N3    O30   1.300135 A    
P3    O9    1.544710 D    
C43   H37   1.082919 S    
N5    O33   1.299578 A    
C15   C16   1.520898 S    
C1    C10   1.525718 S    
O6    C10   1.411247 S    
C15   H51   1.111234 S    
N4    O31   1.302173 A    
P2    O20   1.585386 S    
N7    O37   1.301488 A    
C46   C47   1.419940 A    
C40   C44   1.361537 D    
O2    Ba1   2.927973 S    
C54   C65   1.393204 A    
C60   H44   1.085109 S    
C31   C50   1.415342 A    
C3    H5    1.111013 S    
C57   C58   1.511140 S    
H1    C10   1.108255 S    
C55   C59   1.499218 S    
C60   C61   1.333379 D    
C30   C32   1.423918 A    
C55   C56   1.340411 D    
C61   C63   1.469138 S    
P4    C21   1.836483 S    
C58   C59   1.535249 S    
P5    O19   1.748023 S    
Ba1   O13   2.753264 S    
C34   C35   1.401218 A    
C7    H11   1.110647 S    
N6    O36   1.300534 A    
P3    O8    1.739018 S    
C6    H10   1.108720 S    
C62   C63   1.400827 A    
O10   C8    1.406218 S    
N2    C44   1.469703 S    
P2    O7    1.507572 D    
O13   Ba2   2.928815 S    
P2    Ba1   3.409501 S    
C53   C56   1.471586 S    
C8    C9    1.530703 S    
C35   C36   1.405532 A    
C11   H19   1.111491 S    
O14   P8    1.749413 S    
C2    C3    1.527629 S    
C4    H7    1.110812 S    
C37   C38   1.417924 A    
C38   O28   1.221771 D    
C17   C25   1.418367 A    
P1    C42   1.838226 S    
P5    C57   1.839719 S    
C17   O25   1.222122 D    
C9    H47   1.110895 S    
O5    C6    1.396265 S    
C54   C66   1.398029 A    
C24   C25   1.409118 A    
C8    H14   1.111479 S    
C33   C34   1.402461 A    
C38   N2    1.388441 Am   
P4    O15   1.759005 S    
C27   C49   1.401733 A    
O1    Ba1   2.774910 S    
N3    O29   1.300764 A    
C20   C28   1.506438 S    
O8    Ba1   2.763803 S    
C25   C26   1.402013 A    
C43   C44   1.509756 S    
P4    Ba2   3.359787 S    
C45   C48   1.413945 A    
C32   C36   1.433189 A    
