data_mof_unit_26686.cif
_audit_creation_date              2013-03-05T15:48:16-0500
_audit_creation_method            fapswitch 2.2
_symmetry_space_group_name_H-M    P1
_symmetry_Int_Tables_number       1
_space_group_crystal_system       triclinic
_cell_length_a                    15.670716
_cell_length_b                    15.681583
_cell_length_c                    34.144306
_cell_angle_alpha                 89.660511
_cell_angle_beta                  89.710574
_cell_angle_gamma                 119.908177
_cell_volume                      7272.81618716

loop_
_atom_site_label
_atom_site_type_symbol
_atom_site_description
_atom_site_fract_x
_atom_site_fract_y
_atom_site_fract_z
_atom_type_partial_charge
O1    O     O_R   0.498680 0.159540 0.541860 -0.513528
O2    O     O_R   0.840460 0.339140 0.541860 -0.508210
O3    O     O_R   0.660860 0.501320 0.541860 -0.509024
O4    O     O_R   0.159540 0.498680 0.041860 -0.511293
O5    O     O_R   0.339140 0.840460 0.041860 -0.503905
O6    O     O_R   0.501320 0.660860 0.041860 -0.520261
O7    O     O_R   0.532760 0.358060 0.540030 -0.498191
O8    O     O_R   0.641940 0.174700 0.540030 -0.499843
O9    O     O_R   0.825300 0.467240 0.540030 -0.500565
O10   O     O_R   0.358060 0.532760 0.040030 -0.497453
O11   O     O_R   0.174700 0.641940 0.040030 -0.502161
O12   O     O_R   0.467240 0.825300 0.040030 -0.501165
C1    C     C_R   0.577289 0.441761 0.554858 0.561742
C2    C     C_R   0.557613 0.135135 0.554750 0.555100
C3    C     C_R   0.865030 0.422601 0.554450 0.564241
C4    C     C_R   0.441938 0.577011 0.054778 0.560761
C5    C     C_R   0.133426 0.556797 0.054032 0.556333
C6    C     C_R   0.422924 0.865635 0.054264 0.569593
O13   O     O_R   0.498590 0.161190 0.456930 -0.535255
O14   O     O_R   0.838810 0.337400 0.456930 -0.503183
O15   O     O_R   0.662600 0.501410 0.456930 -0.520660
O16   O     O_R   0.161190 0.498590 0.956930 -0.534543
O17   O     O_R   0.337400 0.838810 0.956930 -0.500720
O18   O     O_R   0.501410 0.662600 0.956930 -0.523148
O19   O     O_R   0.532680 0.359580 0.461300 -0.498374
O20   O     O_R   0.640420 0.173100 0.461300 -0.529143
O21   O     O_R   0.826900 0.467320 0.461300 -0.517715
O22   O     O_R   0.359580 0.532680 0.961300 -0.498104
O23   O     O_R   0.173100 0.640420 0.961300 -0.528730
O24   O     O_R   0.467320 0.826900 0.961300 -0.515163
C7    C     C_R   0.608034 0.418593 0.440376 0.543394
C8    C     C_R   0.557451 0.134604 0.445919 0.527651
C9    C     C_R   0.809893 0.392324 0.440617 0.547347
C10   C     C_R   0.418592 0.607969 0.940359 0.544007
C11   C     C_R   0.135273 0.557676 0.945494 0.529174
C12   C     C_R   0.392537 0.810373 0.940504 0.547900
Cr1   Cr    Cr6+3 0.522350 0.263930 0.500020 0.992717
Cr2   Cr    Cr6+3 0.736070 0.258420 0.500020 0.993764
Cr3   Cr    Cr6+3 0.741580 0.477650 0.500020 0.996172
Cr4   Cr    Cr6+3 0.263930 0.522350 0.000020 0.992506
Cr5   Cr    Cr6+3 0.258420 0.736070 0.000020 1.002689
Cr6   Cr    Cr6+3 0.477650 0.741580 0.000020 0.984841
O25   O     O_3   0.666667 0.333333 0.499990 -0.278921
O26   O     O_3   0.333333 0.666667 0.999990 -0.278130
N1    N     N_R   0.068883 0.472621 0.763811 -0.219159
N2    N     N_R   0.497373 0.644154 0.751301 -0.205417
N3    N     N_R   0.357057 0.842635 0.751013 -0.202638
N4    N     N_R   0.424369 0.949659 0.272905 -0.220982
N5    N     N_R   0.643810 0.494976 0.251012 -0.203300
N6    N     N_R   0.849619 0.357814 0.252098 -0.202828
N7    N     N_R   0.065037 0.470723 0.724982 -0.190033
N8    N     N_R   0.509199 0.631202 0.713661 -0.171713
N9    N     N_R   0.368907 0.867046 0.713215 -0.171548
N10   N     N_R   0.420587 0.946057 0.234111 -0.227888
N11   N     N_R   0.630965 0.506015 0.213261 -0.171123
N12   N     N_R   0.875984 0.370173 0.214528 -0.181083
C13   C     C_R   0.929894 0.461284 0.588874 -0.009591
C14   C     C_R   0.535702 0.469783 0.588264 -0.010163
C15   C     C_R   0.528335 0.064008 0.587742 -0.007820
C16   C     C_R   0.458010 0.924287 0.090361 -0.011291
C17   C     C_R   0.470494 0.533912 0.087643 -0.011576
C18   C     C_R   0.065807 0.528796 0.088006 -0.004736
C19   C     C_R   0.937968 0.392454 0.612566 -0.141340
C20   C     C_R   0.603441 0.543308 0.612890 -0.142040
C21   C     C_R   0.456277 0.059163 0.613575 -0.146434
C22   C     C_R   0.387060 0.929230 0.113799 -0.134486
C23   C     C_R   0.550640 0.599472 0.110300 -0.148026
C24   C     C_R   0.074588 0.469250 0.116580 -0.141608
C25   C     C_R   0.982010 0.418407 0.648781 -0.129992
C26   C     C_R   0.572732 0.570720 0.646125 -0.129763
C27   C     C_R   0.429452 0.000352 0.646836 -0.143922
C28   C     C_R   0.406359 0.957564 0.152404 -0.129184
C29   C     C_R   0.577369 0.568116 0.143570 -0.126274
C30   C     C_R   0.017746 0.442496 0.150351 -0.147796
C31   C     C_R   0.017685 0.513611 0.662915 0.028908
C32   C     C_R   0.473006 0.524597 0.656510 0.030250
C33   C     C_R   0.475310 0.945915 0.655933 0.023335
C34   C     C_R   0.496960 0.981308 0.168994 0.021368
C35   C     C_R   0.524365 0.469825 0.155902 0.030912
C36   C     C_R   0.951867 0.476398 0.157205 0.021583
C37   C     C_R   0.020199 0.587269 0.638067 0.224573
C38   C     C_R   0.402138 0.453809 0.631218 0.226269
C39   C     C_R   0.544173 0.944655 0.629375 0.225586
C40   C     C_R   0.574242 0.990212 0.144478 0.227929
C41   C     C_R   0.448015 0.400170 0.132059 0.224922
C42   C     C_R   0.938612 0.533809 0.128458 0.228347
C43   C     C_R   0.978440 0.562154 0.600081 -0.021532
C44   C     C_R   0.432813 0.426817 0.596334 -0.024077
C45   C     C_R   0.569435 0.001892 0.594259 -0.022138
C46   C     C_R   0.555559 0.963440 0.104550 -0.026031
C47   C     C_R   0.421392 0.431328 0.097186 -0.024537
C48   C     C_R   0.993596 0.558063 0.092791 -0.022658
N13   N     N_R   0.018783 0.591110 0.725573 -0.136075
N14   N     N_R   0.371365 0.473733 0.716894 -0.132186
N15   N     N_R   0.533649 0.907337 0.716586 -0.137073
N16   N     N_R   0.592232 0.034118 0.230528 -0.106187
N17   N     N_R   0.471635 0.371313 0.217156 -0.132807
N18   N     N_R   0.905453 0.531555 0.216639 -0.139697
N19   N     N_R   0.023074 0.593373 0.764516 -0.210829
N20   N     N_R   0.359210 0.486831 0.754593 -0.201145
N21   N     N_R   0.521814 0.883072 0.754459 -0.206825
N22   N     N_R   0.596170 0.037383 0.269443 -0.206840
N23   N     N_R   0.484616 0.359855 0.254936 -0.207187
N24   N     N_R   0.879401 0.519253 0.254327 -0.205962
C49   C     C_R   0.046405 0.532670 0.784361 0.328080
C50   C     C_R   0.423290 0.571636 0.772697 0.330547
C51   C     C_R   0.433668 0.851856 0.772596 0.334169
C52   C     C_R   0.512184 0.995020 0.291301 0.331607
C53   C     C_R   0.570392 0.422705 0.272745 0.328674
C54   C     C_R   0.852465 0.432569 0.272955 0.336222
C55   C     C_R   0.039337 0.529434 0.705061 0.382108
C56   C     C_R   0.447446 0.545205 0.695789 0.382628
C57   C     C_R   0.457687 0.900902 0.695348 0.381730
C58   C     C_R   0.504248 0.988703 0.212072 0.368283
C59   C     C_R   0.544162 0.445335 0.195613 0.383275
C60   C     C_R   0.905340 0.457535 0.196199 0.383588
C61   C     C_R   0.046897 0.451510 0.846782 -0.122566
C62   C     C_R   0.506637 0.645664 0.835311 -0.117310
C63   C     C_R   0.333104 0.810772 0.833997 -0.109159
C64   C     C_R   0.436583 0.008168 0.353128 -0.118046
C65   C     C_R   0.645999 0.506034 0.335198 -0.115466
C66   C     C_R   0.806068 0.331407 0.334217 -0.108018
C67   C     C_R   0.063982 0.455460 0.886738 -0.134970
C68   C     C_R   0.506930 0.651844 0.875940 -0.128131
C69   C     C_R   0.325001 0.805330 0.874669 -0.129087
C70   C     C_R   0.447250 0.041869 0.391299 -0.137108
C71   C     C_R   0.652561 0.506427 0.375829 -0.126913
C72   C     C_R   0.800166 0.323324 0.374862 -0.130195
C73   C     C_R   0.073099 0.614087 0.889536 -0.144103
C74   C     C_R   0.333870 0.528657 0.878050 -0.136468
C75   C     C_R   0.496786 0.852017 0.879553 -0.131020
C76   C     C_R   0.611325 0.062980 0.393097 -0.146328
C77   C     C_R   0.528053 0.333866 0.378154 -0.136339
C78   C     C_R   0.853458 0.496662 0.379676 -0.131877
C79   C     C_R   0.055623 0.610038 0.849314 -0.122504
C80   C     C_R   0.333755 0.521789 0.837230 -0.109683
C81   C     C_R   0.505453 0.858779 0.838751 -0.115783
C82   C     C_R   0.601600 0.031504 0.354493 -0.123242
C83   C     C_R   0.520645 0.333770 0.337360 -0.110666
C84   C     C_R   0.860305 0.505172 0.338886 -0.116849
C85   C     C_R   0.047849 0.531038 0.827373 0.036720
C86   C     C_R   0.420172 0.580838 0.815523 0.037966
C87   C     C_R   0.423569 0.838036 0.815541 0.036673
C88   C     C_R   0.515771 0.008177 0.333772 0.037814
C89   C     C_R   0.580100 0.419859 0.315551 0.038194
C90   C     C_R   0.836965 0.422599 0.315763 0.036371
C91   C     C_R   0.084028 0.539799 0.907906 0.022321
C92   C     C_R   0.420507 0.593860 0.897764 0.016156
C93   C     C_R   0.406302 0.825296 0.897824 0.016054
C94   C     C_R   0.536793 0.074784 0.410708 0.021229
C95   C     C_R   0.593976 0.420353 0.397763 0.015589
C96   C     C_R   0.823760 0.405553 0.397949 0.015947
H1    H     H_    0.904671 0.315975 0.604180 0.157444
H2    H     H_    0.681890 0.578257 0.607139 0.156824
H3    H     H_    0.422522 0.104110 0.608791 0.153269
H4    H     H_    0.313188 0.903852 0.103283 0.159293
H5    H     H_    0.591699 0.677039 0.103095 0.139578
H6    H     H_    0.127954 0.444935 0.113250 0.150586
H7    H     H_    0.069511 0.395797 0.900298 0.131773
H8    H     H_    0.574743 0.703543 0.890144 0.132958
H9    H     H_    0.254798 0.784908 0.888147 0.124919
H10   H     H_    0.387891 0.048484 0.404554 0.131404
H11   H     H_    0.704960 0.574022 0.389954 0.133479
H12   H     H_    0.776680 0.252489 0.388368 0.124145
H13   H     H_    0.980661 0.361026 0.667054 0.172619
H14   H     H_    0.628567 0.625127 0.664930 0.174987
H15   H     H_    0.376576 0.002356 0.666829 0.168657
H16   H     H_    0.347322 0.954937 0.169979 0.172974
H17   H     H_    0.636941 0.622985 0.160919 0.179073
H18   H     H_    0.029178 0.398929 0.172234 0.162689
H19   H     H_    0.037786 0.388082 0.830800 0.141564
H20   H     H_    0.574720 0.691315 0.819428 0.142456
H21   H     H_    0.268579 0.794778 0.817107 0.148480
H22   H     H_    0.369119 0.989486 0.337883 0.143873
H23   H     H_    0.692081 0.573796 0.319202 0.142716
H24   H     H_    0.787555 0.266272 0.317335 0.154379
H25   H     H_    0.085498 0.678624 0.905548 0.117209
H26   H     H_    0.266041 0.483917 0.894156 0.135742
H27   H     H_    0.560676 0.867132 0.896701 0.127101
H28   H     H_    0.679823 0.084789 0.408078 0.117934
H29   H     H_    0.483145 0.266088 0.394295 0.137772
H30   H     H_    0.871182 0.561215 0.396811 0.126401
H31   H     H_    0.054458 0.671364 0.835108 0.139848
H32   H     H_    0.266109 0.471038 0.822665 0.146914
H33   H     H_    0.576343 0.880440 0.825462 0.140963
H34   H     H_    0.662754 0.029886 0.340313 0.140101
H35   H     H_    0.469207 0.266320 0.322878 0.144294
H36   H     H_    0.884760 0.576577 0.325555 0.140615
C97   C     C_3   0.989637 0.642658 0.571659 -0.230496
C98   C     C_3   0.052370 0.649744 0.535719 -0.298265
C99   C     C_3   0.060830 0.728353 0.506869 -0.439434
H37   H     H_    0.986776 0.709942 0.496191 0.158153
H38   H     H_    0.095847 0.801520 0.521067 0.162316
H39   H     H_    0.106875 0.732093 0.481368 0.152236
H40   H     H_    0.127387 0.668657 0.545395 0.180154
H41   H     H_    0.019918 0.578505 0.520192 0.186495
H42   H     H_    0.916441 0.630506 0.562874 0.170589
H43   H     H_    0.026353 0.716066 0.585420 0.199997
C100  C     C_3   0.356264 0.357264 0.567398 -0.233183
C101  C     C_3   0.357572 0.411477 0.529573 -0.294698
C102  C     C_3   0.284827 0.340568 0.499830 -0.432133
H44   H     H_    0.304744 0.284136 0.491731 0.161677
H45   H     H_    0.208834 0.303613 0.512122 0.161532
H46   H     H_    0.286907 0.381873 0.472975 0.157421
H47   H     H_    0.337496 0.468437 0.536600 0.180562
H48   H     H_    0.432003 0.448985 0.515914 0.190187
H49   H     H_    0.367601 0.294322 0.561157 0.166666
H50   H     H_    0.280652 0.323071 0.579659 0.199198
C103  C     C_3   0.634844 0.992247 0.563421 -0.230433
C104  C     C_3   0.577076 0.943138 0.526098 -0.298129
C105  C     C_3   0.644695 0.942119 0.494014 -0.440678
H51   H     H_    0.701534 0.018533 0.485944 0.157613
H52   H     H_    0.681307 0.900919 0.504084 0.162814
H53   H     H_    0.600817 0.905748 0.467591 0.151820
H54   H     H_    0.519527 0.866162 0.533090 0.177965
H55   H     H_    0.539732 0.982173 0.514518 0.175830
H56   H     H_    0.699677 0.065226 0.556787 0.167837
H57   H     H_    0.666243 0.946959 0.574064 0.198577
C106  C     C_3   0.639445 0.977725 0.077710 -0.229649
C107  C     C_3   0.664180 0.895223 0.083185 -0.274037
C108  C     C_3   0.727332 0.893341 0.049422 -0.427568
H58   H     H_    0.686799 0.878442 0.021398 0.162320
H59   H     H_    0.797063 0.964852 0.047122 0.157330
H60   H     H_    0.745264 0.834095 0.054688 0.154360
H61   H     H_    0.704788 0.905751 0.110881 0.215529
H62   H     H_    0.595471 0.823018 0.085035 0.192737
H63   H     H_    0.620950 0.982271 0.046691 0.150911
H64   H     H_    0.705959 0.049915 0.083412 0.182878
C109  C     C_3   0.345395 0.354970 0.069833 -0.230838
C110  C     C_3   0.393143 0.349166 0.031264 -0.294436
C111  C     C_3   0.315941 0.277950 0.002869 -0.431325
H65   H     H_    0.275247 0.202932 0.015988 0.160998
H66   H     H_    0.263104 0.303232 0.995491 0.160799
H67   H     H_    0.352634 0.274744 0.975458 0.156072
H68   H     H_    0.434175 0.422400 0.016771 0.189546
H69   H     H_    0.446374 0.323626 0.037562 0.178897
H70   H     H_    0.308457 0.280249 0.083011 0.198992
H71   H     H_    0.284771 0.370580 0.064556 0.168176
C112  C     C_3   0.967303 0.605582 0.059441 -0.243468
C113  C     C_3   0.869625 0.531046 0.040619 -0.295530
C114  C     C_3   0.843357 0.577656 0.006829 -0.444667
H72   H     H_    0.835595 0.640259 0.017502 0.168348
H73   H     H_    0.901241 0.604286 0.983651 0.152386
H74   H     H_    0.772359 0.522128 0.993944 0.157119
H75   H     H_    0.875816 0.468009 0.029263 0.166243
H76   H     H_    0.808900 0.502304 0.062589 0.218194
H77   H     H_    0.963033 0.669882 0.070277 0.194625
H78   H     H_    0.023713 0.635103 0.036005 0.158505
N25   N     N_R   0.064792 0.686757 0.651555 0.069189
O27   O     O_R   0.155914 0.731830 0.662972 -0.287562
O28   O     O_R   0.011064 0.727595 0.657170 -0.321410
N26   N     N_R   0.299492 0.411449 0.640566 0.068864
O29   O     O_R   0.260462 0.467513 0.643386 -0.297466
O30   O     O_R   0.248346 0.319415 0.651138 -0.320275
N27   N     N_R   0.586788 0.884233 0.637930 0.069300
O31   O     O_R   0.530317 0.790009 0.643446 -0.302593
O32   O     O_R   0.680357 0.924871 0.645283 -0.319871
N28   N     N_R   0.669977 0.021933 0.160138 0.072676
O33   O     O_R   0.686590 0.960837 0.180095 -0.322811
O34   O     O_R   0.738931 0.113391 0.156409 -0.301186
N29   N     N_R   0.399293 0.297997 0.142876 0.068787
O35   O     O_R   0.308100 0.254036 0.154859 -0.320878
O36   O     O_R   0.449233 0.252263 0.145231 -0.300503
N30   N     N_R   0.867616 0.564816 0.135092 0.068970
O37   O     O_R   0.895853 0.658010 0.136910 -0.328884
O38   O     O_R   0.776967 0.500276 0.144017 -0.314117

loop_
_geom_bond_atom_site_label_1
_geom_bond_atom_site_label_2
_geom_bond_distance
_ccdc_geom_bond_type
C97   H43   1.107069 S    
N21   C51   1.358165 A    
C22   H4    1.083455 S    
N27   O32   1.301141 A    
C48   C112  1.524009 S    
O20   C8    1.248461 A    
C98   C99   1.526059 S    
C35   C59   1.482925 S    
O18   Cr6   2.076818 S    
C102  H44   1.111065 S    
C24   C30   1.382121 A    
C61   C85   1.402231 A    
C112  C113  1.535210 S    
C77   C95   1.405522 A    
C79   H31   1.082832 S    
C28   H16   1.083407 S    
C41   C47   1.425459 A    
C65   H23   1.082981 S    
C43   C97   1.526164 S    
O21   C9    1.285323 A    
N4    N10   1.326487 A    
O16   C11   1.244390 A    
C68   C92   1.403562 A    
N25   O27   1.301147 A    
C101  H47   1.111939 S    
N11   C59   1.357640 A    
O8    Cr2   1.947545 S    
C47   C109  1.525398 S    
C103  H57   1.107115 S    
C44   C100  1.524714 S    
C40   N28   1.432166 S    
C82   H34   1.083126 S    
C65   C71   1.391465 A    
C108  H60   1.110559 S    
N16   N22   1.330564 A    
C26   H14   1.083286 S    
C104  C105  1.525958 S    
C78   C84   1.396791 A    
N29   O35   1.301226 A    
C24   H6    1.084081 S    
C12   C93   1.472233 S    
C41   N29   1.434138 S    
C83   C89   1.404235 A    
N1    N7    1.327298 A    
C76   C82   1.392487 A    
C104  H54   1.111860 S    
C66   H24   1.083003 S    
C20   H2    1.083800 S    
C78   C96   1.403784 A    
O9    Cr3   1.960402 S    
C76   C94   1.403506 A    
C112  H77   1.108854 S    
C114  H72   1.110942 S    
C15   C45   1.427476 A    
C17   C23   1.401581 A    
C100  H50   1.107027 S    
C36   C42   1.412513 A    
C74   H26   1.081819 S    
C71   C95   1.403915 A    
C73   C79   1.397351 A    
C10   C92   1.474804 S    
C72   C96   1.400154 A    
C22   C28   1.379620 A    
C19   C25   1.380404 A    
O21   Cr3   1.939690 S    
C101  C102  1.525883 S    
C64   C88   1.402943 A    
N15   N21   1.331467 A    
C80   C86   1.404235 A    
C110  H69   1.111961 S    
C23   C29   1.382491 A    
N14   N20   1.332308 A    
C106  H64   1.110783 S    
N17   C59   1.358683 A    
O13   Cr1   2.081928 S    
N13   N19   1.331499 A    
Cr4   O26   1.962140 S    
C73   H25   1.082780 S    
O3    C1    1.246531 A    
C70   C94   1.402051 A    
O1    Cr1   2.054184 S    
N3    N9    1.329469 A    
C54   C90   1.475007 S    
O19   Cr1   1.938062 S    
C81   C87   1.406230 A    
C16   C22   1.400123 A    
C100  C101  1.536406 S    
C30   C36   1.396260 A    
C6    C16   1.477595 S    
C28   C34   1.399546 A    
C113  H76   1.110155 S    
C61   H19   1.083084 S    
C3    C13   1.479312 S    
N16   C58   1.356541 A    
C34   C58   1.476640 S    
Cr6   O26   1.960940 S    
C102  H45   1.110861 S    
C78   H30   1.082803 S    
N6    C54   1.357001 A    
C83   H35   1.083061 S    
O13   C8    1.244111 A    
O8    C2    1.247321 A    
C42   N30   1.436573 S    
C107  C108  1.525528 S    
C46   C106  1.519806 S    
N13   C55   1.358731 A    
N1    C49   1.356202 A    
C33   C57   1.475212 S    
C13   C19   1.400813 A    
C81   H33   1.082647 S    
C72   H12   1.080050 S    
C14   C20   1.401134 A    
C63   C87   1.404637 A    
C39   C45   1.424104 A    
C74   C80   1.398504 A    
N25   O28   1.301266 A    
C73   C91   1.404004 A    
O22   C10   1.286425 A    
C79   C85   1.404372 A    
O12   Cr6   1.961903 S    
C99   H37   1.111045 S    
C84   H36   1.082662 S    
C101  H48   1.109502 S    
O4    Cr4   2.054100 S    
C23   H5    1.080966 S    
C16   C46   1.422501 A    
C19   H1    1.083559 S    
C103  C104  1.537747 S    
C100  H49   1.108227 S    
C32   C38   1.415299 A    
C106  C107  1.535236 S    
N29   O36   1.301129 A    
C75   H27   1.082743 S    
O20   Cr2   1.955958 S    
C45   C103  1.525713 S    
O5    C6    1.244911 A    
N12   C60   1.355943 A    
N5    N11   1.329135 A    
C74   C92   1.405311 A    
C33   C39   1.413800 A    
N6    N12   1.328797 A    
C13   C43   1.427360 A    
C18   C48   1.426450 A    
C112  H78   1.102902 S    
C114  H73   1.111125 S    
Cr1   O25   1.960751 S    
N28   O34   1.300676 A    
C20   C26   1.382270 A    
C99   H38   1.110864 S    
O22   Cr4   1.938070 S    
C84   C90   1.405926 A    
C109  C110  1.536787 S    
C75   C81   1.397361 A    
C5    C18   1.476104 S    
C108  H58   1.111057 S    
O14   Cr2   2.063177 S    
O2    Cr2   2.073484 S    
N9    C57   1.356693 A    
N18   C60   1.357167 A    
C105  H51   1.111053 S    
O15   Cr3   2.075351 S    
C62   H20   1.082952 S    
C32   C56   1.480634 S    
O16   Cr4   2.080341 S    
C80   H32   1.083120 S    
O12   C6    1.247733 A    
C7    C95   1.474801 S    
O7    Cr1   1.964124 S    
C21   C27   1.383170 A    
C107  H62   1.108180 S    
C110  H68   1.109441 S    
C111  H66   1.111084 S    
C62   C68   1.391074 A    
N22   C52   1.357498 A    
O2    C3    1.245714 A    
O15   C7    1.281973 A    
N17   N23   1.331966 A    
C64   C70   1.388586 A    
C69   C93   1.400554 A    
C98   H40   1.111966 S    
C76   H28   1.082748 S    
O4    C5    1.243173 A    
C63   C69   1.392123 A    
C77   H29   1.082537 S    
C105  H52   1.110783 S    
C52   C88   1.463383 S    
C67   C91   1.403410 A    
C38   N26   1.434316 S    
N3    C51   1.357343 A    
C26   C32   1.398330 A    
C113  H75   1.112080 S    
C102  H46   1.110401 S    
C65   C89   1.403118 A    
C75   C93   1.403839 A    
C4    C17   1.487957 S    
O14   C9    1.281993 A    
C109  H70   1.106926 S    
N27   O31   1.301119 A    
C42   C48   1.423842 A    
C27   C33   1.397327 A    
C71   H11   1.082823 S    
N26   O30   1.301151 A    
C40   C46   1.417359 A    
C97   H42   1.108226 S    
C97   C98   1.536854 S    
C104  H55   1.109162 S    
O5    Cr5   2.074068 S    
O11   C5    1.248086 A    
C50   C86   1.473198 S    
N7    C55   1.355581 A    
O23   Cr5   1.956218 S    
O9    C3    1.246478 A    
C31   C55   1.474034 S    
O19   C7    1.286517 A    
C21   H3    1.083779 S    
C69   H9    1.080013 S    
C37   N25   1.434930 S    
C62   C86   1.403425 A    
C9    C96   1.470010 S    
C14   C44   1.428121 A    
N10   C58   1.357220 A    
Cr3   O25   1.962264 S    
C66   C72   1.391245 A    
C77   C83   1.398250 A    
C1    C14   1.484182 S    
C53   C89   1.472963 S    
C31   C37   1.413591 A    
C29   C35   1.398240 A    
O23   C11   1.253324 A    
N20   C50   1.357696 A    
O3    Cr3   2.057913 S    
O17   Cr5   2.063302 S    
O24   C12   1.285455 A    
N23   C53   1.357260 A    
C114  H74   1.110419 S    
C103  H56   1.108318 S    
C49   C85   1.469168 S    
N28   O33   1.301093 A    
N30   O37   1.300729 A    
N5    C53   1.356412 A    
Cr2   O25   1.958840 S    
C108  H59   1.110804 S    
O10   C4    1.250625 A    
C63   H21   1.082876 S    
N2    N8    1.328739 A    
N24   C54   1.358454 A    
C98   H41   1.109460 S    
C37   C43   1.422365 A    
C29   H17   1.083208 S    
N4    C52   1.353547 A    
C67   H7    1.083218 S    
N15   C57   1.357512 A    
C38   C44   1.425495 A    
C68   H8    1.082815 S    
C27   H15   1.083544 S    
N14   C56   1.358715 A    
C113  C114  1.526317 S    
Cr5   O26   1.958771 S    
C35   C41   1.415816 A    
C107  H61   1.108890 S    
C25   C31   1.397604 A    
C111  H67   1.110425 S    
C11   C91   1.469977 S    
C18   C24   1.400502 A    
C66   C90   1.404356 A    
C61   C67   1.387409 A    
C110  C111  1.525844 S    
C64   H22   1.083032 S    
N19   C49   1.356790 A    
C25   H13   1.083342 S    
C30   H18   1.083747 S    
N2    C50   1.356356 A    
O6    C4    1.248278 A    
C106  H63   1.110678 S    
C34   C40   1.416554 A    
O7    C1    1.250676 A    
C105  H53   1.110548 S    
C8    C94   1.464468 S    
N30   O38   1.301299 A    
O17   C12   1.281518 A    
O6    Cr6   2.057407 S    
O11   Cr5   1.947607 S    
C39   N27   1.434829 S    
C111  H65   1.110852 S    
N8    C56   1.357141 A    
O18   C10   1.281710 A    
O24   Cr6   1.939424 S    
O10   Cr4   1.962563 S    
C82   C88   1.401931 A    
O1    C2    1.244048 A    
C36   C60   1.470467 S    
C2    C15   1.480912 S    
C109  H71   1.108172 S    
C70   H10   1.083231 S    
C51   C87   1.477082 S    
N18   N24   1.331557 A    
C15   C21   1.400876 A    
C99   H39   1.110429 S    
C17   C47   1.429325 A    
N26   O29   1.301135 A    
