data_mof_unit_12948.cif
_audit_creation_date              2012-12-11T15:48:36-0500
_audit_creation_method            fapswitch 2.2
_symmetry_space_group_name_H-M    P1
_symmetry_Int_Tables_number       1
_space_group_crystal_system       triclinic
_cell_length_a                    10.964297
_cell_length_b                    10.967276
_cell_length_c                    18.81488
_cell_angle_alpha                 90.467553
_cell_angle_beta                  90.306329
_cell_angle_gamma                 60.179368
_cell_volume                      1962.81257901

loop_
_atom_site_label
_atom_site_type_symbol
_atom_type_description
_atom_site_fract_x
_atom_site_fract_y
_atom_site_fract_z
_atom_type_partial_charge
C1    C     C_R   0.238015 0.646104 0.609957 0.539502
C2    C     C_3   0.751064 0.514903 0.796090 -0.288793
C3    C     C_3   0.694094 0.671541 0.814463 0.100412
C4    C     C_3   0.667880 0.643627 0.678458 0.024486
C5    C     C_3   0.761267 0.709882 0.689978 -0.256392
C6    C     C_3   0.734023 0.499345 0.716714 -0.237109
C7    C     C_R   0.682856 0.147804 0.821415 0.003423
C8    C     C_R   0.774882 0.178304 0.785053 -0.007044
C9    C     C_R   0.770155 0.187010 0.711043 0.015909
C10   C     C_R   0.583642 0.131885 0.707925 -0.176746
C11   C     C_R   0.580956 0.134166 0.781071 -0.158530
C12   C     C_R   0.652650 0.620131 0.602162 0.540279
C13   C     C_3   0.930390 0.103508 0.787113 -0.272532
C14   C     C_3   0.926681 0.109100 0.706598 -0.278180
C15   C     C_R   0.675433 0.162619 0.671536 0.008146
C16   C     C_R   0.176156 0.669474 0.833953 0.013840
C17   C     C_R   0.152198 0.575931 0.793204 0.019375
C18   C     C_R   0.160700 0.573207 0.719551 -0.004502
C19   C     C_R   0.198248 0.770853 0.724151 -0.182968
C20   C     C_R   0.200730 0.766335 0.797946 -0.186619
C21   C     C_3   0.223772 0.419615 0.796973 -0.277700
C22   C     C_3   0.232122 0.417125 0.716424 -0.269269
C23   C     C_R   0.630327 0.225515 0.601712 0.536852
C24   C     C_R   0.188450 0.667651 0.683497 0.013254
C25   C     C_R   0.675531 0.681674 0.174661 0.020848
C26   C     C_R   0.791116 0.582897 0.213385 0.049525
C27   C     C_R   0.789178 0.576230 0.285963 0.027720
C28   C     C_R   0.559330 0.781963 0.287401 -0.167547
C29   C     C_R   0.561742 0.787534 0.212705 -0.167757
C30   C     C_3   0.874104 0.427335 0.204079 -0.275186
C31   C     C_3   0.874973 0.418826 0.284176 -0.271688
C32   C     C_R   0.667901 0.667434 0.323938 0.017310
C33   C     C_R   0.647801 0.178852 0.171562 0.016089
C34   C     C_R   0.218216 0.651215 0.402682 0.550937
C35   C     C_R   0.518644 0.230151 0.205655 0.015729
C36   C     C_R   0.512672 0.237857 0.278599 0.047989
C37   C     C_R   0.758684 0.164984 0.285573 -0.170766
C38   C     C_R   0.764315 0.161117 0.211787 -0.162775
C39   C     C_3   0.410011 0.185810 0.201727 -0.271843
C40   C     C_3   0.406955 0.190168 0.282091 -0.267622
C41   C     C_R   0.633708 0.196033 0.319706 0.024853
C42   C     C_R   0.106412 0.696377 0.190951 0.021792
C43   C     C_R   0.090547 0.812131 0.229771 0.042419
C44   C     C_R   0.102720 0.808146 0.302097 0.020439
C45   C     C_R   0.643775 0.624434 0.393197 0.548089
C46   C     C_R   0.121700 0.579278 0.301946 -0.152106
C47   C     C_R   0.108706 0.584488 0.227780 -0.154062
C48   C     C_3   0.163584 0.894864 0.220222 -0.272661
C49   C     C_3   0.176023 0.893168 0.299894 -0.270835
C50   C     C_R   0.135925 0.684186 0.338143 0.016992
C51   C     C_R   0.702264 0.098851 0.894994 0.538182
C52   C     C_R   0.719558 0.685581 0.890033 0.550741
C53   C     C_R   0.118154 0.705867 0.905680 0.539554
C54   C     C_R   0.674638 0.109368 0.103184 0.550018
C55   C     C_R   0.698947 0.692324 0.099313 0.541671
C56   C     C_R   0.614947 0.231872 0.394115 0.546001
C57   C     C_R   0.084488 0.714316 0.115207 0.548135
C58   C     C_3   0.535707 0.754968 0.793751 0.105667
C59   C     C_3   0.522038 0.738971 0.713067 -0.189343
C60   C     C_3   0.775906 0.727317 0.770302 -0.196494
Cr1   Cr    Cr6+3 0.392960 0.397920 0.502240 1.005933
Cr2   Cr    Cr6+3 0.398340 0.708480 0.501250 0.999542
Cr3   Cr    Cr6+3 0.708670 0.393570 0.496460 1.004714
Cr4   Cr    Cr6+3 0.937650 0.938540 0.007610 1.005536
Cr5   Cr    Cr6+3 0.625330 0.937370 0.994520 1.033489
Cr6   Cr    Cr6+3 0.937940 0.625230 0.001190 1.005656
H1    H     H_    0.839182 0.425071 0.694226 0.147592
H2    H     H_    0.888279 0.668670 0.784921 0.123972
H3    H     H_    0.866878 0.641796 0.666195 0.126005
H4    H     H_    0.505846 0.115950 0.680035 0.141685
H5    H     H_    0.503062 0.114900 0.805338 0.200150
H6    H     H_    0.971390 0.997215 0.809029 0.175315
H7    H     H_    0.971620 0.167997 0.812054 0.126579
H8    H     H_    0.968974 0.174258 0.684624 0.128649
H9    H     H_    0.966277 0.005329 0.680230 0.146370
H10   H     H_    0.216010 0.849473 0.699417 0.134817
H11   H     H_    0.479659 0.709670 0.823235 0.105502
H12   H     H_    0.213547 0.845043 0.826819 0.126635
H13   H     H_    0.152801 0.382714 0.817401 0.138499
H14   H     H_    0.327682 0.374024 0.823803 0.140545
H15   H     H_    0.340792 0.370869 0.696113 0.177080
H16   H     H_    0.165939 0.379065 0.690344 0.127497
H17   H     H_    0.469126 0.860961 0.315911 0.113569
H18   H     H_    0.473245 0.869860 0.184790 0.113370
H19   H     H_    0.979783 0.390205 0.181006 0.133836
H20   H     H_    0.812085 0.384864 0.177650 0.139320
H21   H     H_    0.816237 0.368252 0.303714 0.172442
H22   H     H_    0.457487 0.688422 0.704301 0.110403
H23   H     H_    0.981135 0.378858 0.307824 0.122925
H24   H     H_    0.851922 0.141969 0.315807 0.120824
H25   H     H_    0.863863 0.130289 0.186835 0.135818
H26   H     H_    0.450528 0.078901 0.180010 0.164064
H27   H     H_    0.310727 0.267286 0.177022 0.125438
H28   H     H_    0.304850 0.271007 0.304029 0.133942
H29   H     H_    0.450493 0.085087 0.306796 0.135963
H30   H     H_    0.134753 0.487874 0.329809 0.120291
H31   H     H_    0.108159 0.498938 0.199392 0.121364
H32   H     H_    0.095359 0.001473 0.198658 0.133327
H33   H     H_    0.468370 0.843775 0.687029 0.150292
H34   H     H_    0.266419 0.833361 0.192827 0.138593
H35   H     H_    0.286801 0.833263 0.316983 0.171765
H36   H     H_    0.113243 0.998623 0.324884 0.124785
H37   H     H_    0.737770 0.839704 0.782911 0.168789
H38   H     H_    0.713849 0.814060 0.663571 0.122559
H39   H     H_    0.864635 0.450570 0.809774 0.143263
H40   H     H_    0.693623 0.472946 0.826846 0.111584
H41   H     H_    0.663829 0.454423 0.708723 0.138057
O1    O     O_R   0.507380 0.255700 0.581440 -0.535744
O2    O     O_R   0.524480 0.695810 0.424040 -0.508702
O3    O     O_R   0.736390 0.504290 0.414790 -0.523850
O4    O     O_R   0.691300 0.277290 0.422170 -0.511798
O5    O     O_3   0.499990 0.499990 0.499980 -0.247032
O6    O     O_R   0.089400 0.825690 0.930570 -0.529659
O7    O     O_R   0.818460 0.054440 0.929850 -0.504064
O8    O     O_R   0.606060 0.077150 0.915510 -0.515489
O9    O     O_R   0.646550 0.806680 0.917570 -0.445713
O10   O     O_R   0.837170 0.593410 0.915250 -0.544333
O11   O     O_R   0.065200 0.635530 0.931570 -0.499286
O12   O     O_R   0.280320 0.527350 0.578930 -0.503412
O13   O     O_R   0.068260 0.828890 0.091840 -0.521205
O14   O     O_R   0.798870 0.057410 0.079340 -0.512062
O15   O     O_R   0.584930 0.080350 0.076780 -0.524704
O16   O     O_R   0.626960 0.809650 0.067060 -0.509700
O17   O     O_R   0.816040 0.596610 0.076510 -0.522015
O18   O     O_R   0.045610 0.638500 0.081060 -0.508385
O19   O     O_3   0.833640 0.833710 0.001100 -0.256491
O20   O     O_R   0.260510 0.739590 0.584590 -0.534681
O21   O     O_R   0.532300 0.695080 0.573820 -0.512763
O22   O     O_R   0.744840 0.503500 0.576370 -0.525619
O23   O     O_R   0.699120 0.276560 0.571960 -0.500275
O24   O     O_R   0.498940 0.256500 0.419860 -0.518862
O25   O     O_R   0.272500 0.528080 0.429150 -0.504785
O26   O     O_R   0.252060 0.740380 0.423010 -0.526467
O27   O     O_3   0.475782 0.898266 0.811086 -0.714505
H42   H     H_    0.372258 0.939697 0.807922 0.304151

loop_
_geom_bond_atom_site_label_1
_geom_bond_atom_site_label_2
_ccdc_geom_bond_type
C44   C49   S    
C8    C13   S    
Cr1   O12   S    
C59   H33   S    
C32   C45   S    
C19   C20   A    
C9    C14   S    
C7    C8    A    
C58   O27   S    
C7    C11   A    
C26   C27   A    
C37   H24   S    
C18   C24   A    
C14   H8    S    
Cr2   O26   S    
C19   H10   S    
C10   C15   A    
C57   O18   A    
C30   C31   S    
C11   H5    S    
Cr4   O14   S    
C4    C59   S    
C1    O12   A    
Cr3   O23   S    
Cr3   O5    S    
Cr1   O1    S    
C16   C53   S    
C39   H27   S    
C5    H3    S    
Cr1   O25   S    
C59   H22   S    
C35   C36   A    
C8    C9    A    
C31   H23   S    
Cr6   O10   S    
C6    H41   S    
C30   H20   S    
C60   H37   S    
C43   C48   S    
C56   O4    A    
C58   H11   S    
C3    C60   S    
C15   C23   S    
C54   O15   A    
C5    H38   S    
C34   O25   A    
C18   C22   S    
C21   C22   S    
C28   H17   S    
C37   C41   A    
Cr5   O8    S    
C36   C41   A    
C2    C6    S    
C42   C57   S    
C53   O6    A    
C52   O9    A    
C25   C29   A    
C48   H34   S    
C55   O16   A    
C34   C50   S    
C51   O7    A    
Cr4   O7    S    
C12   O22   A    
C27   C31   S    
C22   H15   S    
C1    O20   A    
C28   C32   A    
C31   H21   S    
C29   H18   S    
C4    C6    S    
C49   H36   S    
C53   O11   A    
C16   C17   A    
C34   O26   A    
C25   C26   A    
C38   H25   S    
C2    H40   S    
C51   O8    A    
Cr6   O19   S    
C23   O23   A    
C35   C39   S    
C43   C44   A    
C41   C56   S    
C37   C38   A    
C36   C40   S    
C16   C20   A    
C21   H13   S    
C17   C18   A    
Cr2   O5    S    
Cr5   O15   S    
C30   H19   S    
C57   O13   A    
C10   H4    S    
C48   C49   S    
C54   O14   A    
C13   H7    S    
C26   C30   S    
Cr4   O19   S    
Cr6   O11   S    
Cr5   O9    S    
Cr6   O17   S    
C4    C12   S    
C42   C43   A    
C40   H29   S    
C22   H16   S    
C39   H26   S    
C39   C40   S    
C49   H35   S    
C44   C50   A    
C33   C54   S    
C46   C47   A    
C28   C29   A    
Cr4   O6    S    
C5    C60   S    
C27   C32   A    
C45   O3    A    
Cr5   O16   S    
C25   C55   S    
C40   H28   S    
C4    C5    S    
C47   H31   S    
C3    C52   S    
O27   H42   S    
C12   O21   A    
C13   H6    S    
C48   H32   S    
C46   C50   A    
C2    H39   S    
C33   C38   A    
Cr4   O13   S    
Cr6   O18   S    
C20   H12   S    
C14   H9    S    
Cr3   O3    S    
C2    C3    S    
C58   C59   S    
C7    C51   S    
C6    H1    S    
Cr5   O19   S    
Cr2   O21   S    
Cr2   O20   S    
Cr2   O2    S    
C23   O1    A    
C21   H14   S    
C33   C35   A    
C19   C24   A    
C45   O2    A    
C42   C47   A    
Cr3   O22   S    
Cr3   O4    S    
C17   C21   S    
C56   O24   A    
C10   C11   A    
Cr1   O24   S    
C3    C58   S    
C46   H30   S    
C60   H2    S    
C1    C24   S    
C55   O17   A    
C52   O10   A    
C13   C14   S    
Cr1   O5    S    
C9    C15   A    
