data_mof_unit_5645.cif
_audit_creation_date              2012-12-10T18:57:41-0500
_audit_creation_method            fapswitch 2.2
_symmetry_space_group_name_H-M    P1
_symmetry_Int_Tables_number       1
_space_group_crystal_system       triclinic
_cell_length_a                    10.925082
_cell_length_b                    10.893347
_cell_length_c                    9.603366
_cell_angle_alpha                 91.592014
_cell_angle_beta                  91.268994
_cell_angle_gamma                 92.046299
_cell_volume                      1141.42738602

loop_
_atom_site_label
_atom_site_type_symbol
_atom_type_description
_atom_site_fract_x
_atom_site_fract_y
_atom_site_fract_z
_atom_type_partial_charge
C1    C     C_R   0.499757 0.262954 0.498144 0.791434
C2    C     C_R   0.504204 0.130578 0.493258 -0.078079
C3    C     C_R   0.454036 0.061775 0.379233 -0.245728
C4    C     C_R   0.445412 0.933411 0.382866 -0.036526
C5    C     C_R   0.492864 0.871940 0.500279 -0.137204
C6    C     C_R   0.551712 0.943143 0.607718 0.049306
C7    C     C_3   0.532423 0.950315 0.762474 -0.250521
C8    C     C_3   0.538844 0.088798 0.755375 -0.469302
C9    C     C_R   0.594812 0.554447 0.077890 0.230568
C10   C     C_R   0.412628 0.433944 0.069518 0.032657
C11   C     C_R   0.414664 0.432298 0.920351 0.009965
C12   C     C_R   0.265823 0.501211 0.498546 0.848989
C13   C     C_R   0.595962 0.552202 0.930680 0.257379
C14   C     C_3   0.638525 0.682798 0.928228 -0.336819
C15   C     C_3   0.634658 0.686969 0.087481 -0.321614
C16   C     C_R   0.496033 0.737632 0.501100 0.792870
C17   C     C_R   0.734183 0.489667 0.501255 0.806669
C18   C     C_2   0.933705 0.444390 0.393572 -0.061728
C19   C     C_2   0.864759 0.461669 0.508182 -0.258641
C20   C     C_2   0.067371 0.435901 0.404518 -0.169531
C21   C     C_2   0.134460 0.507333 0.494628 -0.269481
C22   C     C_R   0.556642 0.069871 0.603448 0.106534
Cu1   Cu    Cu3+1 0.499990 0.499980 0.640670 0.971074
Cu2   Cu    Cu3+1 0.500010 0.500020 0.359330 0.961985
H1    H     H_    0.621698 0.131824 0.808591 0.196662
H2    H     H_    0.565852 0.735302 0.879951 0.149316
H3    H     H_    0.562556 0.746684 0.127755 0.169667
H4    H     H_    0.111862 0.374411 0.332493 0.191901
H5    H     H_    0.093273 0.572069 0.565876 0.163786
H6    H     H_    0.414031 0.107986 0.291590 0.148239
H7    H     H_    0.610967 0.918398 0.824548 0.133957
H8    H     H_    0.451856 0.133714 0.779592 0.208806
N1    N     N_R   0.500780 0.500930 0.147930 -0.240594
N2    N     N_R   0.500780 0.500890 0.852020 -0.245252
O1    O     O_R   0.500000 0.319640 0.618810 -0.590867
O2    O     O_R   0.500010 0.319680 0.381230 -0.620390
O3    O     O_R   0.321940 0.499980 0.618760 -0.569837
O4    O     O_R   0.321950 0.500020 0.381180 -0.580271
O5    O     O_R   0.499990 0.680320 0.618770 -0.586865
O6    O     O_R   0.500000 0.680360 0.381190 -0.580302
O7    O     O_R   0.678050 0.499980 0.618820 -0.571736
O8    O     O_R   0.678060 0.500020 0.381240 -0.578585
C23   C     C_1   0.881637 0.427841 0.254086 0.373840
N3    N     N_1   0.841073 0.413652 0.142208 -0.234337
C24   C     C_2   0.313144 0.364053 0.138122 0.377852
H9    H     H_    0.330974 0.311529 0.229102 0.097688
O9    O     O_2   0.207875 0.364799 0.092653 -0.547862
C25   C     C_1   0.328319 0.353096 0.841002 0.405428
N4    N     N_1   0.258591 0.289097 0.778866 -0.269578
C26   C     C_2   0.761536 0.700157 0.861392 0.449845
H10   H     H_    0.774136 0.770667 0.784938 0.051202
O10   O     O_2   0.847252 0.636291 0.891663 -0.501430
C27   C     C_1   0.752524 0.707749 0.163370 0.390038
N5    N     N_1   0.844916 0.724775 0.223299 -0.259384
C28   C     C_1   0.914232 0.436494 0.646123 0.315174
N6    N     N_1   0.953512 0.415591 0.755524 -0.168285
C29   C     C_1   0.377018 0.869273 0.270761 0.257280
N7    N     N_1   0.321896 0.818099 0.181188 -0.233392
C30   C     C_1   0.410981 0.901949 0.803423 0.310196
N8    N     N_1   0.315773 0.863839 0.835418 -0.236167

loop_
_geom_bond_atom_site_label_1
_geom_bond_atom_site_label_2
_ccdc_geom_bond_type
C4    C29   S    
C2    C22   A    
C3    H6    S    
C8    C22   S    
C23   N3    T    
C6    C7    S    
C13   C14   S    
Cu2   O8    S    
Cu2   O4    S    
Cu2   N1    S    
Cu1   O7    S    
C28   N6    T    
Cu1   N2    S    
C10   C24   S    
C14   C15   S    
C2    C3    A    
C11   C25   S    
C7    C8    S    
C14   C26   S    
C27   N5    T    
C14   H2    S    
C9    N1    A    
C8    H1    S    
C29   N7    T    
Cu2   O2    S    
C16   O6    A    
Cu1   O5    S    
C15   C27   S    
C7    C30   S    
C25   N4    T    
C17   C19   S    
C26   H10   S    
C10   N1    A    
Cu1   O1    S    
C24   O9    D    
C12   O4    A    
C5    C6    A    
C17   O7    A    
C7    H7    S    
C10   C11   A    
Cu1   Cu2   S    
C19   C28   S    
C3    C4    A    
C8    H8    S    
C20   H4    S    
C24   H9    S    
C30   N8    T    
C20   C21   D    
C1    O1    A    
C18   C20   S    
C1    C2    S    
C12   O3    A    
C18   C23   S    
C26   O10   D    
C9    C13   A    
C17   O8    A    
C18   C19   D    
C5    C16   S    
C13   N2    A    
C16   O5    A    
Cu2   O6    S    
Cu1   O3    S    
C21   H5    S    
C12   C21   S    
C11   N2    A    
C1    O2    A    
C4    C5    A    
C15   H3    S    
C9    C15   S    
C6    C22   A    
