data_mof_unit_42661.cif
_audit_creation_date              2012-12-11T14:24:49-0500
_audit_creation_method            fapswitch 2.2
_symmetry_space_group_name_H-M    P1
_symmetry_Int_Tables_number       1
_space_group_crystal_system       triclinic
_cell_length_a                    19.114168
_cell_length_b                    10.960855
_cell_length_c                    18.84557
_cell_angle_alpha                 89.62972
_cell_angle_beta                  90.440364
_cell_angle_gamma                 89.149445
_cell_volume                      3947.6535485

loop_
_atom_site_label
_atom_site_type_symbol
_atom_type_description
_atom_site_fract_x
_atom_site_fract_y
_atom_site_fract_z
_atom_type_partial_charge
C1    C     C_R   0.728820 0.372357 0.144365 0.546084
C2    C     C_R   0.233375 0.869902 0.063789 -0.003723
C3    C     C_R   0.621159 0.522691 0.434522 -0.093309
C4    C     C_R   0.937323 0.029060 0.514916 -0.156768
C5    C     C_R   0.089488 0.129090 0.452865 -0.143199
C6    C     C_R   0.454458 0.439688 0.491272 -0.145057
C7    C     C_R   0.594971 0.630147 0.461048 -0.152389
C8    C     C_R   0.934499 0.984324 0.446192 -0.115554
C9    C     C_R   0.122323 0.183957 0.508461 -0.122025
C10   C     C_R   0.442280 0.411732 0.420531 -0.106888
C11   C     C_R   0.630139 0.686622 0.514736 -0.111701
C12   C     C_R   0.875451 0.927038 0.421737 -0.073324
C13   C     C_R   0.253199 0.402719 0.929128 -0.008756
C14   C     C_R   0.179529 0.126065 0.540502 -0.078287
C15   C     C_R   0.375953 0.379956 0.398785 -0.069416
C16   C     C_R   0.692752 0.635633 0.539561 -0.068987
C17   C     C_R   0.748175 0.929324 0.429841 0.003222
C18   C     C_R   0.239829 0.927870 0.572537 -0.003082
C19   C     C_R   0.251884 0.414113 0.423095 0.016087
C20   C     C_R   0.748451 0.435609 0.570691 0.013517
C21   C     C_R   0.710188 0.330545 0.361210 0.543587
C22   C     C_R   0.286052 0.342299 0.638156 0.535678
C23   C     C_R   0.208184 0.827245 0.360594 0.573277
C24   C     C_R   0.742239 0.395549 0.068522 -0.005064
C25   C     C_R   0.769654 0.884756 0.647294 0.522892
C26   C     C_R   0.563931 0.149418 0.360571 0.536229
C27   C     C_R   0.464467 0.155931 0.645231 0.526377
C28   C     C_R   0.030529 0.657843 0.351675 0.521280
C29   C     C_R   0.937186 0.652350 0.639054 0.554406
C30   C     C_R   0.741576 0.971405 0.356846 0.519442
C31   C     C_R   0.257096 0.972585 0.643064 0.516105
C32   C     C_R   0.242150 0.469313 0.354909 0.524765
C33   C     C_R   0.758694 0.474581 0.642579 0.527994
C34   C     C_3   0.513779 0.273921 0.972454 -0.122848
C35   C     C_R   0.699815 0.844999 0.968210 0.018544
C36   C     C_3   0.458957 0.248056 0.030756 -0.131415
C37   C     C_3   0.019995 0.769208 0.971110 -0.124693
C38   C     C_3   0.963892 0.756817 0.029697 -0.131550
C39   C     C_3   0.567263 0.189011 0.011331 -0.118202
C40   C     C_3   0.432963 0.136947 0.988200 -0.101463
C41   C     C_3   0.067963 0.676336 0.011278 -0.114151
C42   C     C_3   0.930859 0.649775 0.988744 -0.104572
C43   C     C_3   0.511969 0.163307 0.068349 0.043482
C44   C     C_3   0.488355 0.162484 0.931135 0.052118
C45   C     C_3   0.011418 0.664091 0.068601 0.044515
C46   C     C_R   0.295928 0.832241 0.028328 0.022171
C47   C     C_3   0.987578 0.661934 0.931455 0.052591
C48   C     C_R   0.200970 0.341196 0.969231 0.017955
C49   C     C_R   0.802409 0.350399 0.032402 0.021025
C50   C     C_R   0.704329 0.845544 0.043577 0.025777
C51   C     C_R   0.296707 0.835676 0.953072 0.022957
C52   C     C_R   0.205460 0.342075 0.044629 0.026221
C53   C     C_R   0.270170 0.373335 0.854765 0.547180
C54   C     C_R   0.801295 0.347205 0.957035 0.027147
C55   C     C_R   0.803212 0.981353 0.036589 -0.158944
C56   C     C_R   0.181759 0.931469 0.951438 -0.150855
C57   C     C_R   0.304830 0.476448 0.037689 -0.162274
C58   C     C_R   0.686224 0.442649 0.955599 -0.155047
C59   C     C_R   0.802225 0.974598 0.964048 -0.153645
C60   C     C_R   0.176565 0.914674 0.023574 -0.162482
C61   C     C_R   0.303952 0.469548 0.965190 -0.153256
C62   C     C_R   0.684158 0.436304 0.028347 -0.154834
C63   C     C_R   0.643444 0.782744 0.936465 -0.089934
C64   C     C_R   0.217914 0.843214 0.138658 0.558184
C65   C     C_R   0.358008 0.792405 0.063689 -0.106260
C66   C     C_R   0.144986 0.277523 0.937698 -0.091375
C67   C     C_R   0.863145 0.306405 0.068154 -0.108915
C68   C     C_R   0.101657 0.204498 0.978465 -0.132576
C69   C     C_R   0.916406 0.246812 0.031291 -0.151166
C70   C     C_R   0.599046 0.711731 0.977148 -0.133072
C71   C     C_R   0.413249 0.740101 0.026176 -0.157308
C72   C     C_R   0.607861 0.703817 0.050147 -0.128612
C73   C     C_R   0.408668 0.728020 0.953067 -0.132001
C74   C     C_R   0.111039 0.196143 0.051404 -0.121375
C75   C     C_R   0.769892 0.874203 0.854399 0.536228
C76   C     C_R   0.911151 0.232376 0.958314 -0.133695
C77   C     C_R   0.660241 0.769152 0.083237 -0.077098
C78   C     C_R   0.351153 0.775471 0.916651 -0.081280
C79   C     C_R   0.162172 0.264572 0.084484 -0.072887
C80   C     C_R   0.854484 0.282304 0.921333 -0.082513
C81   C     C_R   0.533279 0.155996 0.143678 0.560589
C82   C     C_R   0.467186 0.155030 0.855961 0.550334
C83   C     C_R   0.032777 0.656211 0.143941 0.540657
C84   C     C_R   0.967058 0.654930 0.856062 0.557756
C85   C     C_R   0.753121 0.922038 0.077226 -0.007927
C86   C     C_3   0.486394 0.052419 0.026673 -0.098559
C87   C     C_R   0.243289 0.900554 0.916285 -0.005594
C88   C     C_R   0.253952 0.419197 0.078146 -0.006874
C89   C     C_R   0.746409 0.407843 0.919539 -0.007966
C90   C     C_R   0.490096 0.156035 0.572541 0.008151
C91   C     C_R   0.544742 0.141124 0.435901 -0.000213
C92   C     C_R   0.956898 0.652606 0.563599 0.002691
C93   C     C_R   0.993443 0.666304 0.419295 -0.007158
C94   C     C_R   0.469568 0.061408 0.525844 0.022237
C95   C     C_R   0.506771 0.040617 0.463735 0.040053
C96   C     C_R   0.941125 0.554100 0.516661 0.015567
C97   C     C_3   0.541220 0.078089 0.968988 -0.115811
C98   C     C_R   0.951528 0.569973 0.442810 0.027472
C99   C     C_R   0.563930 0.233431 0.481879 -0.168205
C100  C     C_R   0.541335 0.236511 0.551643 -0.152945
C101  C     C_R   0.016711 0.751713 0.468103 -0.154948
C102  C     C_R   0.995256 0.750152 0.537907 -0.128182
C103  C     C_R   0.414192 0.983743 0.540784 -0.077843
C104  C     C_R   0.501683 0.922266 0.432242 -0.090952
C105  C     C_R   0.920911 0.436886 0.539888 -0.110576
C106  C     C_R   0.926623 0.481432 0.395012 -0.078212
C107  C     C_R   0.910200 0.343290 0.491698 -0.140625
C108  C     C_3   0.978846 0.557475 0.028612 -0.103632
C109  C     C_R   0.908961 0.366704 0.419511 -0.102631
C110  C     C_R   0.409817 0.869690 0.509870 -0.109022
C111  C     C_R   0.452254 0.839911 0.454422 -0.134553
C112  C     C_R   0.758396 0.938687 0.576871 -0.006612
C113  C     C_R   0.207117 0.848632 0.437231 -0.000639
C114  C     C_R   0.276014 0.385099 0.566406 -0.001447
C115  C     C_R   0.716406 0.359145 0.435668 -0.001598
C116  C     C_R   0.817831 0.961899 0.533767 0.037609
C117  C     C_R   0.171143 0.953489 0.464861 0.041143
C118  C     C_R   0.333587 0.394174 0.519627 0.011584
C119  C     C_3   0.034901 0.569573 0.970665 -0.109159
C120  C     C_R   0.683021 0.465673 0.463062 0.036753
C121  C     C_R   0.814097 0.931708 0.462019 0.016893
C122  C     C_R   0.197915 0.003250 0.526357 0.028200
C123  C     C_R   0.320011 0.389371 0.446749 0.021624
C124  C     C_R   0.710707 0.514060 0.523850 0.021111
C125  C     C_R   0.687998 0.937033 0.472108 -0.156391
C126  C     C_R   0.253948 0.806779 0.554087 -0.170532
C127  C     C_R   0.196843 0.429468 0.471042 -0.159289
C128  C     C_R   0.765936 0.316522 0.550889 -0.159459
C129  C     C_R   0.742432 0.968970 0.149124 0.537878
C130  C     C_R   0.752184 0.905919 0.928189 -0.009362
C131  C     C_R   0.257030 0.964499 0.849231 0.545003
C132  C     C_R   0.242612 0.468298 0.149437 0.529690
C133  C     C_R   0.757591 0.465667 0.850067 0.542839
C134  C     C_R   0.692968 0.939031 0.545617 -0.183269
C135  C     C_R   0.243848 0.771007 0.483903 -0.169522
C136  C     C_R   0.208870 0.413687 0.542603 -0.176037
C137  C     C_R   0.754062 0.281129 0.481238 -0.163043
C138  C     C_R   0.879547 0.018345 0.558588 -0.093442
C139  C     C_R   0.112939 0.015524 0.431501 -0.089272
C140  C     C_R   0.402641 0.421304 0.541353 -0.102226
Cr1   Cr    Cr6+3 0.772820 0.169820 0.252640 0.985774
Cr2   Cr    Cr6+3 0.383280 0.011130 0.749340 1.002355
Cr3   Cr    Cr6+3 0.116720 0.511130 0.250660 0.998560
Cr4   Cr    Cr6+3 0.883280 0.511130 0.749340 0.991806
Cr5   Cr    Cr6+3 0.227180 0.169820 0.747360 1.000295
Cr6   Cr    Cr6+3 0.272820 0.669820 0.252640 1.004119
Cr7   Cr    Cr6+3 0.727180 0.669820 0.747360 0.997834
Cr8   Cr    Cr6+3 0.615040 0.323610 0.249150 0.986964
Cr9   Cr    Cr6+3 0.384960 0.323610 0.750850 0.996863
Cr10  Cr    Cr6+3 0.115040 0.823610 0.249150 0.984235
Cr11  Cr    Cr6+3 0.884960 0.823610 0.750850 1.004931
Cr12  Cr    Cr6+3 0.616720 0.011130 0.250660 0.995310
H1    H     H_    0.623099 0.208209 0.022329 0.127771
H2    H     H_    0.537252 0.886148 0.393263 0.146043
H3    H     H_    0.916295 0.410815 0.594431 0.168807
H4    H     H_    0.925305 0.497492 0.338279 0.130514
H5    H     H_    0.898181 0.253783 0.510920 0.120093
H6    H     H_    0.895813 0.295215 0.382621 0.140153
H7    H     H_    0.376748 0.800857 0.530225 0.128860
H8    H     H_    0.446114 0.752914 0.428580 0.114984
H9    H     H_    0.637192 0.943218 0.448143 0.134948
H10   H     H_    0.279542 0.744896 0.591484 0.129592
H11   H     H_    0.144869 0.457606 0.453488 0.150682
H12   H     H_    0.377356 0.114865 0.977417 0.129158
H13   H     H_    0.792107 0.254505 0.587753 0.113315
H14   H     H_    0.882426 0.062749 0.609572 0.133593
H15   H     H_    0.082672 0.976869 0.389335 0.144113
H16   H     H_    0.417832 0.439275 0.595166 0.167686
H17   H     H_    0.587587 0.481272 0.396134 0.140730
H18   H     H_    0.646503 0.938513 0.578106 0.125303
H19   H     H_    0.265519 0.684864 0.465947 0.141656
H20   H     H_    0.165785 0.422174 0.579362 0.139971
H21   H     H_    0.774143 0.194199 0.462913 0.142283
H22   H     H_    0.983281 0.074286 0.534512 0.122865
H23   H     H_    0.124876 0.683830 0.021908 0.119404
H24   H     H_    0.045623 0.174240 0.426499 0.114404
H25   H     H_    0.505188 0.468949 0.508817 0.122360
H26   H     H_    0.547083 0.667109 0.440024 0.101289
H27   H     H_    0.976349 0.995843 0.409973 0.097721
H28   H     H_    0.102694 0.270921 0.526570 0.119159
H29   H     H_    0.482772 0.418424 0.381576 0.127687
H30   H     H_    0.607113 0.766950 0.537552 0.124595
H31   H     H_    0.875574 0.891915 0.368108 0.126492
H32   H     H_    0.208744 0.177610 0.576683 0.164913
H33   H     H_    0.367206 0.362260 0.342938 0.130097
H34   H     H_    0.874100 0.638071 0.978148 0.126280
H35   H     H_    0.725172 0.686116 0.573908 0.167885
H36   H     H_    0.525375 0.364469 0.949000 0.104845
H37   H     H_    0.425298 0.316743 0.057478 0.116973
H38   H     H_    0.035964 0.855877 0.945826 0.103906
H39   H     H_    0.934773 0.832908 0.055156 0.114142
H40   H     H_    0.475242 0.962112 0.050356 0.141695
H41   H     H_    0.575106 0.009911 0.942268 0.123622
H42   H     H_    0.963050 0.472181 0.054916 0.139052
H43   H     H_    0.064021 0.493619 0.945241 0.126888
H44   H     H_    0.842665 0.037702 0.060684 0.157068
H45   H     H_    0.594391 0.304713 0.462739 0.113556
H46   H     H_    0.138184 0.974160 0.923435 0.136438
H47   H     H_    0.344908 0.531155 0.061963 0.155426
H48   H     H_    0.641203 0.480610 0.927610 0.137480
H49   H     H_    0.630782 0.790518 0.880803 0.141739
H50   H     H_    0.367093 0.803507 0.119591 0.154197
H51   H     H_    0.131896 0.285189 0.882149 0.143552
H52   H     H_    0.871790 0.319774 0.124145 0.137187
H53   H     H_    0.843469 0.020422 0.936057 0.152083
H54   H     H_    0.126889 0.936652 0.047958 0.140482
H55   H     H_    0.345824 0.513892 0.937431 0.154721
H56   H     H_    0.559556 0.306948 0.587071 0.126227
H57   H     H_    0.635018 0.460553 0.052853 0.147709
H58   H     H_    0.061974 0.151081 0.952945 0.091849
H59   H     H_    0.961328 0.210403 0.059826 0.110031
H60   H     H_    0.559196 0.659043 0.951508 0.093190
H61   H     H_    0.458934 0.706347 0.054435 0.108775
H62   H     H_    0.078620 0.136389 0.082576 0.103230
H63   H     H_    0.950237 0.181014 0.929788 0.099432
H64   H     H_    0.574600 0.645586 0.081344 0.099366
H65   H     H_    0.448978 0.680931 0.923889 0.100222
H66   H     H_    0.667146 0.756017 0.139777 0.132053
H67   H     H_    0.054133 0.817403 0.452902 0.124460
H68   H     H_    0.348688 0.760765 0.860007 0.131397
H69   H     H_    0.169045 0.252804 0.141139 0.135134
H70   H     H_    0.851248 0.264453 0.865055 0.127537
H71   H     H_    0.013189 0.821349 0.572934 0.151198
H72   H     H_    0.375147 0.013226 0.576293 0.156953
O1    O     O_R   0.788190 0.043000 0.172520 -0.524525
O2    O     O_R   0.454170 0.051610 0.669840 -0.525873
O3    O     O_R   0.045830 0.551610 0.330160 -0.522905
O4    O     O_R   0.954170 0.551610 0.669840 -0.536436
O5    O     O_R   0.681920 0.959720 0.327070 -0.529370
O6    O     O_R   0.318080 0.959720 0.672930 -0.527762
O7    O     O_R   0.181920 0.459720 0.327070 -0.505224
O8    O     O_R   0.818080 0.459720 0.672930 -0.541720
O9    O     O_3   0.668190 0.168190 0.250820 -0.283522
O10   O     O_3   0.331810 0.168190 0.749180 -0.263391
O11   O     O_3   0.168190 0.668190 0.250820 -0.282874
O12   O     O_R   0.211810 0.043000 0.827480 -0.519194
O13   O     O_3   0.831810 0.668190 0.749180 -0.263314
O14   O     O_R   0.766240 0.292300 0.176860 -0.504542
O15   O     O_R   0.233760 0.292300 0.823140 -0.505728
O16   O     O_R   0.266240 0.792300 0.176860 -0.508164
O17   O     O_R   0.733760 0.792300 0.823140 -0.509698
O18   O     O_R   0.670310 0.409160 0.168720 -0.523918
O19   O     O_R   0.329690 0.409160 0.831280 -0.521405
O20   O     O_R   0.170310 0.909160 0.168720 -0.518161
O21   O     O_R   0.829690 0.909160 0.831280 -0.527290
O22   O     O_R   0.556160 0.251900 0.173380 -0.502223
O23   O     O_R   0.288190 0.543000 0.172520 -0.533269
O24   O     O_R   0.443840 0.251900 0.826620 -0.501660
O25   O     O_R   0.056160 0.751900 0.173380 -0.516861
O26   O     O_R   0.943840 0.751900 0.826620 -0.497964
O27   O     O_R   0.545410 0.050140 0.168240 -0.512201
O28   O     O_R   0.454590 0.050140 0.831760 -0.515140
O29   O     O_R   0.045410 0.550140 0.168240 -0.520570
O30   O     O_R   0.954590 0.550140 0.831760 -0.513758
O31   O     O_R   0.681530 0.958350 0.176970 -0.504343
O32   O     O_R   0.318470 0.958350 0.823030 -0.507208
O33   O     O_R   0.181530 0.458350 0.176970 -0.505820
O34   O     O_R   0.711810 0.543000 0.827480 -0.517768
O35   O     O_R   0.818470 0.458350 0.823030 -0.509734
O36   O     O_R   0.788610 0.044480 0.334450 -0.536005
O37   O     O_R   0.211390 0.044480 0.665550 -0.532242
O38   O     O_R   0.288610 0.544480 0.334450 -0.535554
O39   O     O_R   0.711390 0.544480 0.665550 -0.525361
O40   O     O_R   0.766630 0.293670 0.326970 -0.500443
O41   O     O_R   0.233370 0.293670 0.673030 -0.519531
O42   O     O_R   0.266630 0.793670 0.326970 -0.477433
O43   O     O_R   0.733370 0.793670 0.673030 -0.520894
O44   O     O_R   0.670730 0.410640 0.330640 -0.535813
O45   O     O_R   0.556550 0.253260 0.323480 -0.527362
O46   O     O_R   0.329270 0.410640 0.669360 -0.531742
O47   O     O_R   0.170730 0.910640 0.330640 -0.530007
O48   O     O_R   0.829270 0.910640 0.669360 -0.536912
O49   O     O_R   0.443450 0.253260 0.676520 -0.526388
O50   O     O_R   0.056550 0.753260 0.323480 -0.538792
O51   O     O_R   0.943450 0.753260 0.676520 -0.496289
O52   O     O_R   0.545830 0.051610 0.330160 -0.525277

loop_
_geom_bond_atom_site_label_1
_geom_bond_atom_site_label_2
_ccdc_geom_bond_type
C125  C134  A    
C58   C62   A    
C66   C68   A    
C96   C105  A    
C59   C130  A    
C29   O51   A    
Cr1   O14   S    
C14   C122  A    
Cr7   O39   S    
C55   C59   A    
C77   H66   S    
C70   H60   S    
C72   C77   A    
C68   C74   A    
C31   O37   A    
Cr3   O33   S    
C117  C122  A    
C4    C8    A    
C68   H58   S    
C53   O15   A    
C100  H56   S    
Cr5   O41   S    
C57   H47   S    
C45   C83   S    
C2    C46   A    
C7    C11   A    
C105  C107  A    
C23   O47   A    
C5    C9    A    
C101  C102  A    
C15   C123  A    
C39   H1    S    
C103  C110  A    
C30   O36   A    
C32   O38   A    
C30   O5    A    
C82   O28   A    
Cr9   O46   S    
C38   C42   S    
C44   C82   S    
C10   C15   A    
C2    C60   A    
Cr11  O48   S    
Cr2   O6    S    
C12   H31   S    
C19   C32   S    
C87   C131  S    
Cr10  O11   S    
C6    C140  A    
C31   O6    A    
Cr5   O15   S    
C92   C96   A    
C64   O16   A    
Cr2   O32   S    
C27   C90   S    
Cr8   O9    S    
C44   C97   S    
C97   H41   S    
Cr6   O42   S    
Cr4   O35   S    
C48   C66   A    
C110  C111  A    
C38   C45   S    
C67   H52   S    
Cr3   O7    S    
C50   C85   A    
C85   C129  S    
Cr3   O11   S    
C120  C124  A    
C35   C63   A    
C62   H57   S    
C65   H50   S    
C115  C137  A    
C96   C98   A    
C24   C62   A    
C73   C78   A    
C5    C139  A    
C69   H59   S    
C135  H19   S    
C37   C47   S    
C33   O8    A    
C49   C67   A    
C40   C44   S    
C56   H46   S    
C21   O44   A    
C45   C108  S    
C92   C102  A    
C27   O49   A    
Cr9   O10   S    
C78   H68   S    
C59   H53   S    
C23   O42   A    
C47   C119  S    
C55   H44   S    
C41   H23   S    
C32   O7    A    
C4    H22   S    
Cr5   O10   S    
C83   O25   A    
Cr8   O18   S    
C17   C30   S    
C25   C112  S    
C108  C119  S    
C117  C139  A    
C11   H30   S    
C81   O27   A    
C118  C140  A    
C109  H6    S    
C81   O22   A    
C28   O3    A    
C90   C100  A    
C42   C47   S    
C107  H5    S    
C2    C64   S    
C102  H71   S    
C90   C94   A    
Cr11  O26   S    
C13   C53   S    
Cr7   O13   S    
Cr1   O1    S    
Cr11  O13   S    
C115  C120  A    
C71   H61   S    
C89   C133  S    
C116  C121  A    
C12   C121  A    
C25   O43   A    
C84   O26   A    
C34   C39   S    
C20   C128  A    
C136  H20   S    
C52   C88   A    
Cr2   O28   S    
C127  C136  A    
C46   C65   A    
Cr7   O43   S    
Cr12  O52   S    
C40   C86   S    
C71   C73   A    
C76   H63   S    
C93   C101  A    
C131  O32   A    
C3    H17   S    
C56   C87   A    
C39   C43   S    
Cr12  O9    S    
Cr12  O31   S    
C26   C91   S    
C65   C71   A    
C19   C123  A    
C4    C138  A    
Cr6   O23   S    
C129  O31   A    
C61   H55   S    
C36   H37   S    
C7    H26   S    
C28   C93   S    
C67   C69   A    
C104  C111  A    
Cr9   O49   S    
C55   C85   A    
C34   H36   S    
C9    C14   A    
C18   C122  A    
C6    C10   A    
C137  H21   S    
C37   C38   S    
C75   O17   A    
Cr2   O2    S    
C103  H72   S    
C23   C113  S    
C26   O45   A    
C15   H33   S    
C11   C16   A    
C101  H67   S    
C21   O40   A    
C28   O50   A    
C99   C100  A    
C63   C70   A    
Cr2   O10   S    
C8    C12   A    
C58   H48   S    
C99   H45   S    
C35   C50   A    
Cr8   O22   S    
C34   C44   S    
C132  O23   A    
C47   C84   S    
C41   C119  S    
C8    H27   S    
C139  H15   S    
C73   H65   S    
C35   C130  A    
C114  C118  A    
C9    H28   S    
C113  C135  A    
C54   C89   A    
C128  C137  A    
C113  C117  A    
C66   H51   S    
C17   C121  A    
C133  O34   A    
C72   H64   S    
C83   O29   A    
C126  C135  A    
C38   H39   S    
Cr9   O24   S    
C106  H4    S    
C74   C79   A    
C6    H25   S    
Cr5   O37   S    
C128  H13   S    
C43   C81   S    
C5    H24   S    
C86   C97   S    
C1    O18   A    
C76   C80   A    
C20   C33   S    
C51   C87   A    
C52   C79   A    
C50   C77   A    
C112  C116  A    
C36   C40   S    
C37   H38   S    
C95   C104  A    
Cr10  O25   S    
Cr11  O51   S    
Cr12  O5    S    
C133  O35   A    
C24   C49   A    
Cr6   O11   S    
C127  H11   S    
C63   H49   S    
C105  H3    S    
C43   C86   S    
C86   H40   S    
Cr8   O45   S    
Cr4   O8    S    
C40   H12   S    
C125  H9    S    
C53   O19   A    
Cr3   O3    S    
Cr9   O19   S    
C26   O52   A    
C16   H35   S    
C75   O21   A    
Cr10  O47   S    
C94   C103  A    
C13   C48   A    
C14   H32   S    
C75   C130  S    
C27   O2    A    
C57   C61   A    
C132  O33   A    
C64   O20   A    
C79   H69   S    
C131  O12   A    
C111  H8    S    
Cr6   O16   S    
C33   O39   A    
C22   C114  S    
C3    C7    A    
C21   C115  S    
C98   C106  A    
C57   C88   A    
C82   O24   A    
C138  H14   S    
C91   C99   A    
Cr8   O44   S    
Cr7   O34   S    
C16   C124  A    
C51   C78   A    
C1    O14   A    
C41   C45   S    
C1    C24   S    
C18   C126  A    
C60   H54   S    
C84   O30   A    
C42   H34   S    
C22   O41   A    
C17   C125  A    
C114  C136  A    
C107  C109  A    
Cr4   O30   S    
C46   C51   A    
Cr10  O20   S    
Cr1   O40   S    
Cr1   O36   S    
Cr10  O50   S    
Cr4   O13   S    
Cr6   O38   S    
C54   C80   A    
C119  H43   S    
C118  C123  A    
Cr12  O27   S    
C37   C41   S    
C94   C95   A    
C42   C108  S    
C58   C89   A    
C140  H16   S    
C20   C124  A    
C25   O48   A    
C39   C97   S    
C3    C120  A    
C116  C138  A    
C80   H70   S    
Cr11  O21   S    
C56   C60   A    
C48   C52   A    
C13   C61   A    
C69   C76   A    
C34   C36   S    
C91   C95   A    
Cr1   O9    S    
C22   O46   A    
Cr3   O29   S    
Cr5   O12   S    
C129  O1    A    
Cr7   O17   S    
C10   H29   S    
C88   C132  S    
Cr4   O4    S    
C36   C43   S    
C70   C72   A    
C18   C31   S    
C19   C127  A    
C29   O4    A    
C104  H2    S    
C126  H10   S    
C112  C134  A    
C108  H42   S    
C93   C98   A    
C29   C92   S    
C74   H62   S    
C110  H7    S    
C49   C54   A    
C134  H18   S    
C106  C109  A    
