data_mof_unit_60741.cif
_audit_creation_date              2013-03-05T16:28:44-0500
_audit_creation_method            fapswitch 2.2
_symmetry_space_group_name_H-M    P1
_symmetry_Int_Tables_number       1
_space_group_crystal_system       triclinic
_cell_length_a                    19.447966
_cell_length_b                    18.391395
_cell_length_c                    23.517413
_cell_angle_alpha                 89.999788
_cell_angle_beta                  91.614456
_cell_angle_gamma                 90.000532
_cell_volume                      8408.25689752

loop_
_atom_site_label
_atom_site_type_symbol
_atom_site_description
_atom_site_fract_x
_atom_site_fract_y
_atom_site_fract_z
_atom_type_partial_charge
O1    O     O_R   0.400190 0.561980 0.499990 -0.588748
O2    O     O_R   0.599810 0.438020 0.500010 -0.582790
O3    O     O_R   0.599810 0.561980 0.500010 -0.588791
O4    O     O_R   0.400190 0.438020 0.499990 -0.582797
C1    C     C_R   0.367774 0.499962 0.500101 0.802483
C2    C     C_R   0.632226 0.499963 0.499868 0.802524
O5    O     O_R   0.499980 0.561970 0.417880 -0.581260
O6    O     O_R   0.500020 0.438030 0.582120 -0.588029
O7    O     O_R   0.500020 0.561970 0.582120 -0.581782
O8    O     O_R   0.499980 0.438030 0.417880 -0.588543
C3    C     C_R   0.500078 0.500035 0.390999 0.815025
C4    C     C_R   0.499929 0.500035 0.609000 0.815863
Cu1   Cu    Cu3+1 0.500000 0.573360 0.500000 0.973636
Cu2   Cu    Cu3+1 0.500000 0.426640 0.500000 0.972670
C5    C     C_R   0.557452 0.522704 0.881850 0.545383
C6    C     C_R   0.442436 0.478844 0.118584 0.546327
N1    N     N_R   0.499377 0.501122 0.852085 -0.469417
N2    N     N_R   0.500286 0.501082 0.148211 -0.472274
C7    C     C_R   0.441430 0.479673 0.879386 0.541250
C8    C     C_R   0.557920 0.523456 0.121043 0.542432
C9    C     C_R   0.440509 0.478946 0.939015 -0.015861
C10   C     C_R   0.558968 0.523899 0.061420 -0.017290
C11   C     C_R   0.499683 0.501277 0.970205 -0.015097
C12   C     C_R   0.499869 0.501266 0.030226 -0.014913
C13   C     C_R   0.558684 0.523583 0.941524 -0.018419
C14   C     C_R   0.440967 0.478585 0.058911 -0.019849
C15   C     C_R   0.381976 0.456652 0.968056 -0.147999
C16   C     C_R   0.617494 0.546170 0.032385 -0.148111
C17   C     C_R   0.382236 0.456375 0.027387 -0.146985
C18   C     C_R   0.617388 0.545916 0.973056 -0.146190
O9    O     O_2   0.614017 0.542605 0.853766 -0.518796
O10   O     O_2   0.386489 0.457437 0.146841 -0.514643
O11   O     O_2   0.384714 0.459700 0.848893 -0.528418
O12   O     O_2   0.614071 0.544772 0.151684 -0.523726
H1    H     H_    0.335824 0.439240 0.945067 0.194757
H2    H     H_    0.663582 0.563760 0.055379 0.194740
H3    H     H_    0.336288 0.438767 0.048427 0.195619
H4    H     H_    0.663407 0.563325 0.952023 0.195888
C19   C     C_R   0.494100 0.566240 0.238895 -0.090820
C20   C     C_R   0.506166 0.566199 0.761097 -0.088006
H5    H     H_    0.488916 0.617132 0.216020 0.153651
H6    H     H_    0.511254 0.617193 0.783848 0.159628
C21   C     C_R   0.493933 0.566033 0.298179 -0.188667
C22   C     C_R   0.506404 0.565966 0.701821 -0.190688
H7    H     H_    0.488492 0.617284 0.320280 0.177575
H8    H     H_    0.512096 0.617184 0.679720 0.178036
C23   C     C_R   0.500425 0.500263 0.328369 -0.047503
C24   C     C_R   0.499565 0.500262 0.671629 -0.047870
C25   C     C_R   0.507380 0.434854 0.298116 -0.183838
C26   C     C_R   0.492214 0.434924 0.701863 -0.186983
H9    H     H_    0.513283 0.383466 0.320151 0.166644
H10   H     H_    0.486135 0.383564 0.679813 0.167554
C27   C     C_R   0.507164 0.435199 0.238830 -0.092635
C28   C     C_R   0.492319 0.435259 0.761143 -0.087684
H11   H     H_    0.512442 0.384530 0.215911 0.149093
H12   H     H_    0.487065 0.384493 0.783937 0.155896
C29   C     C_R   0.500526 0.500845 0.209112 0.344417
C30   C     C_R   0.499287 0.500862 0.791027 0.334692
C31   C     C_R   0.744090 0.433784 0.502604 -0.152997
C32   C     C_R   0.255645 0.565300 0.504190 -0.146830
C33   C     C_R   0.255905 0.433751 0.496946 -0.152943
C34   C     C_R   0.744331 0.565265 0.495538 -0.146239
H13   H     H_    0.717279 0.382338 0.505341 0.170471
H14   H     H_    0.282218 0.616877 0.507742 0.161362
H15   H     H_    0.282709 0.382333 0.493950 0.170809
H16   H     H_    0.717758 0.616882 0.492460 0.161312
C35   C     C_R   0.815674 0.433468 0.502235 -0.147142
C36   C     C_R   0.184042 0.564997 0.503746 -0.148047
C37   C     C_R   0.184304 0.433466 0.497031 -0.145659
C38   C     C_R   0.815919 0.564970 0.495613 -0.145921
H17   H     H_    0.842380 0.381816 0.503926 0.144917
H18   H     H_    0.156815 0.616152 0.506936 0.143605
H19   H     H_    0.157249 0.382083 0.493817 0.148140
H20   H     H_    0.842859 0.616402 0.493716 0.141468
C39   C     C_R   0.852242 0.499074 0.498942 0.094894
C40   C     C_R   0.147942 0.499098 0.500174 0.091987
C41   C     C_R   0.707785 0.499717 0.499387 -0.041221
C42   C     C_R   0.292211 0.499714 0.500398 -0.041016
C43   C     C_R   0.963547 0.546445 0.463545 -0.156916
C44   C     C_R   0.037138 0.450918 0.534946 -0.155839
C45   C     C_R   0.035155 0.546670 0.464064 -0.151835
C46   C     C_R   0.965529 0.451087 0.534802 -0.151265
H21   H     H_    0.935932 0.582898 0.434863 0.141268
H22   H     H_    0.065069 0.414209 0.563242 0.144607
H23   H     H_    0.061515 0.583438 0.436042 0.146848
H24   H     H_    0.939500 0.414664 0.563278 0.144617
C47   C     C_R   0.072377 0.498862 0.499713 0.088518
C48   C     C_R   0.928082 0.498806 0.499048 0.091917
C49   C     C_R   0.446559 0.721738 0.475065 0.119414
C50   C     C_R   0.529584 0.278211 0.544443 0.118037
C51   C     C_R   0.553445 0.721732 0.524935 0.118413
C52   C     C_R   0.470406 0.278224 0.455555 0.116715
C53   C     C_R   0.442619 0.797614 0.480634 -0.208578
C54   C     C_R   0.522768 0.202336 0.547639 -0.208025
C55   C     C_R   0.557403 0.797606 0.519355 -0.207884
C56   C     C_R   0.477236 0.202352 0.452337 -0.207822
H25   H     H_    0.394964 0.823847 0.468217 0.187803
H26   H     H_    0.537240 0.176092 0.587172 0.188398
H27   H     H_    0.605063 0.823829 0.531771 0.187995
H28   H     H_    0.462756 0.176123 0.412800 0.188632
C57   C     C_R   0.500016 0.838235 0.499990 0.184275
C58   C     C_R   0.500010 0.161718 0.499982 0.183790
N3    N     N_R   0.500000 0.683620 0.500000 -0.219317
N4    N     N_R   0.500000 0.316380 0.500000 -0.219448
C59   C     C_R   0.541047 0.961820 0.539916 0.219920
C60   C     C_R   0.452175 0.038134 0.465615 0.220279
C61   C     C_R   0.459005 0.961811 0.460037 0.220287
C62   C     C_R   0.547873 0.038142 0.534331 0.220662
C63   C     C_R   0.500019 0.078572 0.499974 -0.185394
C64   C     C_R   0.500024 0.921381 0.499981 -0.185618
C65   C     C_1   0.395269 0.686538 0.439426 0.320229
N5    N     N_1   0.354142 0.659061 0.410082 -0.274074
C66   C     C_1   0.572168 0.313292 0.587270 0.321433
N6    N     N_1   0.607217 0.340656 0.621643 -0.269371
C67   C     C_1   0.604715 0.686528 0.560592 0.320776
N7    N     N_1   0.645823 0.659047 0.589951 -0.269108
C68   C     C_1   0.427760 0.313310 0.412772 0.321637
N8    N     N_1   0.392656 0.340678 0.378440 -0.262965
N9    N     N_R   0.574053 0.926659 0.587873 0.146627
O13   O     O_R   0.640624 0.928946 0.595164 -0.283589
O14   O     O_R   0.537429 0.890693 0.623812 -0.327868
N10   N     N_R   0.394542 0.073296 0.437791 0.146372
O15   O     O_R   0.386473 0.071012 0.382678 -0.282556
O16   O     O_R   0.350660 0.109262 0.467661 -0.329792
N11   N     N_R   0.426009 0.926640 0.412081 0.146508
O17   O     O_R   0.359440 0.928933 0.404775 -0.284531
O18   O     O_R   0.462639 0.890654 0.376159 -0.327941
N12   N     N_R   0.605509 0.073314 0.562144 0.146257
O19   O     O_R   0.613597 0.071025 0.617256 -0.283517
O20   O     O_R   0.649368 0.109302 0.532267 -0.330292

loop_
_geom_bond_atom_site_label_1
_geom_bond_atom_site_label_2
_geom_bond_distance
_ccdc_geom_bond_type
C22   C24   1.405953 A    
C59   C64   1.424592 A    
C56   C58   1.407887 A    
C15   C17   1.395192 A    
C34   C41   1.403664 A    
C3    C23   1.473114 S    
C65   N5    1.157681 T    
C4    C24   1.473094 S    
O3    C2    1.303266 A    
N12   O19   1.301857 A    
C31   C41   1.404152 A    
C23   C25   1.406076 A    
O5    C3    1.302760 A    
C32   C42   1.404353 A    
C26   C28   1.394075 A    
O1    C1    1.303258 A    
C7    C9    1.402998 A    
C12   C14   1.408853 A    
C44   C47   1.402035 A    
C55   H27   1.077836 S    
C5    C13   1.403008 A    
C60   C61   1.416391 A    
C54   H26   1.077862 S    
C67   N7    1.157679 T    
C19   C29   1.399168 A    
C52   C56   1.403945 A    
C62   C63   1.424592 A    
C34   C38   1.392202 A    
C37   C40   1.401967 A    
C50   C66   1.438596 S    
O7    Cu1   1.942564 S    
C6    O10   1.349496 S    
C31   C35   1.392447 A    
C46   C48   1.404686 A    
C25   H9    1.082384 S    
C38   H20   1.082842 S    
C26   H10   1.082426 S    
C11   C12   1.411420 A    
C37   H19   1.083222 S    
Cu1   N3    2.027835 S    
C35   H17   1.082862 S    
O3    Cu1   1.952348 S    
C44   H22   1.083218 S    
N1    C30   1.435877 S    
C8    O12   1.349477 S    
C20   H6    1.082874 S    
C9    C15   1.405069 A    
C10   C16   1.404754 A    
Cu1   Cu2   2.698384 S    
C49   N3    1.371561 A    
C49   C53   1.403900 A    
O2    C2    1.302057 A    
C43   C48   1.404585 A    
C22   H8    1.083028 S    
C50   C54   1.403939 A    
C27   H11   1.082838 S    
C6    C14   1.402863 A    
C59   C62   1.416392 A    
C28   H12   1.082872 S    
C20   C30   1.400926 A    
C34   H16   1.082309 S    
C61   N11   1.435757 S    
C44   C46   1.392550 A    
O8    Cu2   1.942568 S    
C53   C57   1.408089 A    
C43   C45   1.392353 A    
C27   C29   1.399154 A    
C2    C41   1.469842 S    
C19   C21   1.394304 A    
C15   H1    1.083100 S    
C57   C64   1.529175 S    
C46   H24   1.082823 S    
C36   H18   1.083240 S    
C52   C68   1.438598 S    
N2    C29   1.432119 S    
Cu2   N4    2.027835 S    
C20   C22   1.394175 A    
C33   C42   1.404866 A    
O6    C4    1.303878 A    
C60   N10   1.435749 S    
C62   N12   1.435758 S    
C21   H7    1.083011 S    
C40   C47   1.469313 S    
C50   N4    1.371988 A    
C45   C47   1.402062 A    
N9    O14   1.301188 A    
C8    C10   1.402927 A    
C9    C11   1.408387 A    
C7    O11   1.349542 S    
N11   O17   1.301857 A    
C61   C64   1.424592 A    
C10   C12   1.408887 A    
O1    Cu1   1.952344 S    
N10   O16   1.301184 A    
C53   H25   1.077842 S    
C66   N6    1.157701 T    
C28   C30   1.400935 A    
C33   C37   1.392552 A    
C13   C18   1.405089 A    
C5    N1    1.370646 A    
O6    Cu2   1.942565 S    
C51   N3    1.371553 A    
O4    C1    1.302041 A    
N12   O20   1.301181 A    
N9    O13   1.301857 A    
C5    O9    1.349542 S    
C36   C40   1.401963 A    
C19   H5    1.082838 S    
C49   C65   1.438562 S    
C31   H13   1.083095 S    
C32   H14   1.082304 S    
C32   C36   1.392293 A    
C16   C18   1.395218 A    
N10   O15   1.301853 A    
C68   N8    1.157696 T    
C43   H21   1.082821 S    
C25   C27   1.394163 A    
C56   H28   1.077854 S    
C24   C26   1.405591 A    
N1    C7    1.370622 A    
C51   C67   1.438564 S    
N2    C8    1.369030 A    
C11   C13   1.408365 A    
O4    Cu2   1.952348 S    
O2    Cu2   1.952344 S    
O7    C4    1.302756 A    
O8    C3    1.303889 A    
C52   N4    1.371975 A    
C51   C55   1.403898 A    
C33   H15   1.083071 S    
C39   C48   1.474881 S    
O5    Cu1   1.942570 S    
C35   C39   1.403815 A    
C16   H2    1.083110 S    
C14   C17   1.404756 A    
C6    N2    1.369055 A    
C17   H3    1.083110 S    
C38   C39   1.403838 A    
N11   O18   1.301185 A    
C59   N9    1.435747 S    
C58   C63   1.529176 S    
C18   H4    1.083098 S    
C1    C42   1.469764 S    
C21   C23   1.406452 A    
C45   H23   1.083235 S    
C55   C57   1.408090 A    
C54   C58   1.407876 A    
C60   C63   1.424586 A    
