data_mof_unit_31866.cif
_audit_creation_date              2013-03-05T16:12:40-0500
_audit_creation_method            fapswitch 2.2
_symmetry_space_group_name_H-M    P1
_symmetry_Int_Tables_number       1
_space_group_crystal_system       triclinic
_cell_length_a                    24.196904
_cell_length_b                    7.158307
_cell_length_c                    22.17513
_cell_angle_alpha                 90.131678
_cell_angle_beta                  99.626672
_cell_angle_gamma                 89.888633
_cell_volume                      3786.82758828

loop_
_atom_site_label
_atom_site_type_symbol
_atom_site_description
_atom_site_fract_x
_atom_site_fract_y
_atom_site_fract_z
_atom_type_partial_charge
O1    O     O_R   0.801940 0.607920 0.199180 -0.578675
O2    O     O_R   0.198060 0.392080 0.800820 -0.578674
O3    O     O_R   0.698060 0.107920 0.300820 -0.591924
O4    O     O_R   0.301940 0.892080 0.699180 -0.592049
O5    O     O_R   0.687840 0.274940 0.181980 -0.585361
O6    O     O_R   0.312160 0.725060 0.818020 -0.585341
O7    O     O_R   0.812160 0.774940 0.318020 -0.581923
O8    O     O_R   0.187840 0.225060 0.681980 -0.581841
C1    C     C_R   0.668520 0.446952 0.165653 0.920298
C2    C     C_R   0.331480 0.553048 0.834347 0.920287
C3    C     C_R   0.831869 0.946871 0.333830 0.947911
C4    C     C_R   0.168131 0.053129 0.666170 0.948022
O9    O     O_R   0.800890 0.278000 0.191820 -0.556626
O10   O     O_R   0.199110 0.722000 0.808180 -0.556647
O11   O     O_R   0.699110 0.778000 0.308180 -0.564134
O12   O     O_R   0.300890 0.222000 0.691820 -0.564117
O13   O     O_R   0.811910 0.110860 0.310720 -0.585165
O14   O     O_R   0.188090 0.889140 0.689280 -0.585189
O15   O     O_R   0.688090 0.610860 0.189280 -0.600806
O16   O     O_R   0.311910 0.389140 0.810720 -0.600808
C5    C     C_R   0.818084 0.446383 0.178162 0.974139
C6    C     C_R   0.181916 0.553616 0.821838 0.974167
C7    C     C_R   0.682594 0.947229 0.322537 0.995937
C8    C     C_R   0.317394 0.052767 0.677449 0.996135
O17   O     O_3   0.753490 0.442410 0.289000 -0.259964
O18   O     O_3   0.246510 0.557590 0.711000 -0.260028
O19   O     O_3   0.746510 0.942410 0.211000 -0.257951
O20   O     O_3   0.253490 0.057590 0.789000 -0.257944
V1    V     V_3+5 0.749350 0.166330 0.242770 1.256627
V2    V     V_3+5 0.250650 0.833670 0.757230 1.256557
V3    V     V_3+5 0.750650 0.666330 0.257230 1.254252
V4    V     V_3+5 0.249350 0.333670 0.742770 1.254202
C9    C     C_R   0.404243 0.163775 0.552220 -0.161719
C10   C     C_R   0.595638 0.835902 0.447634 -0.161763
C11   C     C_R   0.095633 0.662505 0.947927 -0.159026
C12   C     C_R   0.904372 0.337510 0.052074 -0.158999
H1    H     H_    0.407548 0.271161 0.518609 0.211211
H2    H     H_    0.592304 0.728361 0.481187 0.211126
H3    H     H_    0.092715 0.770093 0.981768 0.203101
H4    H     H_    0.907294 0.229921 0.018234 0.203125
C13   C     C_R   0.362550 0.179344 0.589280 0.366268
C14   C     C_R   0.637346 0.820446 0.410595 0.366475
C15   C     C_R   0.135534 0.681332 0.909056 0.373070
C16   C     C_R   0.864473 0.318666 0.090946 0.373067
C17   C     C_R   0.358353 0.040420 0.633862 -0.336203
C18   C     C_R   0.641605 0.959535 0.366092 -0.336537
C19   C     C_R   0.139699 0.543546 0.864036 -0.346349
C20   C     C_R   0.860303 0.456454 0.135965 -0.346347
C21   C     C_R   0.394875 0.885675 0.637644 -0.215439
C22   C     C_R   0.605100 0.114317 0.362339 -0.214655
C23   C     C_R   0.103203 0.389210 0.859938 -0.196466
C24   C     C_R   0.896795 0.610801 0.140062 -0.196471
H5    H     H_    0.391824 0.777575 0.671017 0.189229
H6    H     H_    0.608187 0.222525 0.329013 0.189434
H7    H     H_    0.105728 0.282931 0.825679 0.202905
H8    H     H_    0.894268 0.717080 0.174320 0.202922
C25   C     C_R   0.435164 0.866305 0.598917 0.404165
C26   C     C_R   0.564787 0.133581 0.401044 0.404135
C27   C     C_R   0.063645 0.368194 0.899467 0.384520
C28   C     C_R   0.936352 0.631830 0.100532 0.384522
C29   C     C_R   0.440312 0.009203 0.556252 -0.117323
C30   C     C_R   0.559597 0.990543 0.443650 -0.117520
C31   C     C_R   0.059468 0.508644 0.943524 -0.112801
C32   C     C_R   0.940532 0.491382 0.056476 -0.112815
C33   C     C_1   0.482429 0.002489 0.516558 0.168760
C34   C     C_1   0.517475 0.997206 0.483338 0.168845
C35   C     C_1   0.017502 0.502276 0.983370 0.170191
C36   C     C_1   0.982499 0.497759 0.016631 0.170199
C37   C     C_R   0.920487 0.105320 0.382312 -0.091474
C38   C     C_R   0.079512 0.894680 0.617688 -0.091505
C39   C     C_R   0.579103 0.317101 0.106467 -0.120731
C40   C     C_R   0.420897 0.682900 0.893534 -0.120716
C41   C     C_R   0.882051 0.958690 0.382650 -0.189585
C42   C     C_R   0.117948 0.041310 0.617350 -0.189614
C43   C     C_R   0.619638 0.458905 0.115191 -0.154290
C44   C     C_R   0.380362 0.541095 0.884809 -0.154280
C45   C     C_R   0.891448 0.826254 0.429934 -0.109738
C46   C     C_R   0.108551 0.173748 0.570066 -0.109647
C47   C     C_R   0.612507 0.616251 0.076689 -0.130143
C48   C     C_R   0.387493 0.383748 0.923311 -0.130128
C49   C     C_R   0.938864 0.837985 0.476775 -0.021359
C50   C     C_R   0.061136 0.162015 0.523226 -0.021402
C51   C     C_R   0.566176 0.632080 0.028886 -0.015266
C52   C     C_R   0.433823 0.367919 0.971114 -0.015270
C53   C     C_R   0.976619 0.989644 0.476314 0.033342
C54   C     C_R   0.023380 0.010356 0.523686 0.033349
C55   C     C_R   0.524310 0.491719 0.022571 0.042246
C56   C     C_R   0.475689 0.508282 0.977430 0.042247
C57   C     C_R   0.967472 0.121615 0.428586 0.161193
C58   C     C_R   0.032528 0.878385 0.571414 0.161201
C59   C     C_R   0.531083 0.334255 0.061373 0.163267
C60   C     C_R   0.468916 0.665746 0.938628 0.163268
C61   C     C_R   0.948833 0.706131 0.525120 0.322981
C62   C     C_R   0.051166 0.293868 0.474880 0.322982
C63   C     C_R   0.559787 0.786338 0.988131 0.312961
C64   C     C_R   0.440213 0.213660 0.011869 0.312960
C65   C     C_R   0.995141 0.729431 0.571936 -0.257074
C66   C     C_R   0.004859 0.270568 0.428064 -0.257058
C67   C     C_R   0.510666 0.802989 0.944616 -0.285513
C68   C     C_R   0.489334 0.197011 0.055384 -0.285526
H9    H     H_    0.913761 0.207698 0.345834 0.128175
H10   H     H_    0.086239 0.792301 0.654166 0.128177
H11   H     H_    0.583973 0.196096 0.136225 0.120889
H12   H     H_    0.416027 0.803905 0.863775 0.120897
H13   H     H_    0.860354 0.718607 0.430647 0.206616
H14   H     H_    0.139645 0.281396 0.569354 0.206687
H15   H     H_    0.643259 0.726689 0.084846 0.181578
H16   H     H_    0.356740 0.273310 0.915153 0.181584
H17   H     H_    0.002739 0.627341 0.608440 0.174843
H18   H     H_    0.997261 0.372658 0.391560 0.174841
H19   H     H_    0.505803 0.921578 0.913852 0.175934
H20   H     H_    0.494197 0.078421 0.086148 0.175930
N1    N     N_R   0.323364 0.331513 0.578605 0.248860
O21   O     O_R   0.269777 0.298792 0.571598 -0.370545
O22   O     O_R   0.340294 0.495891 0.564693 -0.363110
N2    N     N_R   0.676485 0.668161 0.421199 0.248870
O23   O     O_R   0.730096 0.700833 0.428559 -0.370331
O24   O     O_R   0.659413 0.503356 0.434536 -0.363554
N3    N     N_R   0.172419 0.838569 0.917468 0.241657
O25   O     O_R   0.207585 0.855939 0.968352 -0.318274
O26   O     O_R   0.162039 0.982329 0.881607 -0.372257
N4    N     N_R   0.827595 0.161404 0.082537 0.241649
O27   O     O_R   0.792471 0.143909 0.031624 -0.318286
O28   O     O_R   0.837964 0.017711 0.118431 -0.372256
N5    N     N_R   0.470062 0.701524 0.603874 0.245530
O29   O     O_R   0.478289 0.605198 0.654305 -0.376129
O30   O     O_R   0.489070 0.635597 0.556568 -0.357167
N6    N     N_R   0.529906 0.298401 0.396122 0.245617
O31   O     O_R   0.521715 0.394889 0.345724 -0.376019
O32   O     O_R   0.510876 0.364191 0.443433 -0.357240
N7    N     N_R   0.028611 0.204117 0.894030 0.245125
O33   O     O_R   0.019607 0.110175 0.843011 -0.363891
O34   O     O_R   0.010202 0.136443 0.941338 -0.363930
N8    N     N_R   0.971381 0.795918 0.105968 0.245124
O35   O     O_R   0.980382 0.889865 0.156986 -0.363889
O36   O     O_R   0.989790 0.863594 0.058660 -0.363931
N9    N     N_R   0.912939 0.547460 0.527754 0.243605
O37   O     O_R   0.902128 0.490898 0.580277 -0.329832
O38   O     O_R   0.899243 0.440499 0.480133 -0.409941
N10   N     N_R   0.087062 0.452536 0.472245 0.243616
O39   O     O_R   0.097874 0.509090 0.419721 -0.329793
O40   O     O_R   0.100758 0.559501 0.519865 -0.409916
N11   N     N_R   0.603456 0.922553 0.988063 0.239523
O41   O     O_R   0.590518 0.095058 0.973561 -0.381453
O42   O     O_R   0.654967 0.868172 0.989191 -0.321773
N12   N     N_R   0.396545 0.077440 0.011935 0.239524
O43   O     O_R   0.409485 0.904934 0.026436 -0.381454
O44   O     O_R   0.345033 0.131814 0.010807 -0.321758

loop_
_geom_bond_atom_site_label_1
_geom_bond_atom_site_label_2
_geom_bond_distance
_ccdc_geom_bond_type
O17   V3    1.748961 S    
C51   C55   1.418177 A    
C55   C56   1.416443 A    
C21   H5    1.083064 S    
O1    C5    1.328000 A    
C66   H18   1.084223 S    
C4    C42   1.487920 S    
O19   V1    1.746236 S    
O13   V1    1.989250 S    
O3    C7    1.326504 A    
C10   C14   1.407727 A    
C10   C30   1.401653 A    
C40   C44   1.403325 A    
O15   V3    1.989042 S    
N6    O31   1.301638 A    
C53   C54   1.417097 A    
O18   V4    1.748961 S    
N9    O38   1.300539 A    
C27   N7    1.442806 S    
C22   H6    1.083065 S    
C50   C62   1.419728 A    
C8    C17   1.497974 S    
C32   C36   1.454107 S    
O9    V1    1.987471 S    
N10   O40   1.300542 A    
C49   C61   1.419729 A    
N12   O43   1.301133 A    
C55   C59   1.412204 A    
C52   C64   1.420284 A    
O4    C8    1.326492 A    
C63   C67   1.405137 A    
C62   C66   1.404270 A    
N11   O41   1.301127 A    
O1    V3    1.975332 S    
C21   C25   1.409259 A    
N2    O23   1.301657 A    
O2    V4    1.975332 S    
C14   C18   1.419425 A    
O3    V1    1.977603 S    
C24   C28   1.410304 A    
C2    C44   1.488580 S    
C1    O15   1.338561 A    
C56   C60   1.412204 A    
C2    O16   1.338559 A    
C38   C42   1.404598 A    
C37   C41   1.404598 A    
O14   V2    1.989252 S    
C45   C49   1.415506 A    
C59   C68   1.400616 A    
C11   C15   1.404532 A    
C58   C65   1.400979 A    
O5    V1    1.991509 S    
C48   C52   1.412747 A    
C5    C20   1.498231 S    
O11   C7    1.329452 A    
C6    C19   1.498220 S    
C67   H19   1.084104 S    
O12   C8    1.329466 A    
C7    C18   1.497969 S    
C38   C58   1.403157 A    
O10   V2    1.987472 S    
C37   C57   1.403157 A    
O7    C3    1.345149 A    
N12   O44   1.301326 A    
N3    O26   1.300160 A    
C31   C35   1.454107 S    
C39   C43   1.403326 A    
O7    V3    1.991349 S    
C30   C34   1.454399 S    
O9    C5    1.327940 A    
C35   C36   1.213071 T    
C22   C26   1.409293 A    
C44   C48   1.407753 A    
C12   H4    1.084483 S    
N10   O39   1.301306 A    
C3    C41   1.487919 S    
C53   C57   1.409611 A    
C19   C23   1.408956 A    
C40   H12   1.084374 S    
C50   C54   1.421370 A    
C9    H1    1.084262 S    
O8    V4    1.991348 S    
C11   H3    1.084481 S    
O5    C1    1.344975 A    
C65   H17   1.084224 S    
C46   C50   1.415506 A    
C61   C65   1.404271 A    
C17   C21   1.409568 A    
O8    C4    1.345151 A    
C51   C63   1.420283 A    
C48   H16   1.080748 S    
C47   H15   1.080750 S    
C25   C29   1.414678 A    
C26   C30   1.414728 A    
C14   N2    1.436379 S    
O6    V2    1.991505 S    
C68   H20   1.084105 S    
C54   C58   1.409612 A    
N5    O29   1.301639 A    
C12   C16   1.404536 A    
C23   C27   1.410304 A    
N4    O28   1.300178 A    
N7    O33   1.301635 A    
C28   N8    1.442807 S    
N1    O21   1.301503 A    
O16   V4    1.989044 S    
N11   O42   1.301321 A    
C39   H11   1.084374 S    
C3    O13   1.338527 A    
C13   C17   1.419544 A    
C10   H2    1.084273 S    
C63   N11   1.439387 S    
C52   C56   1.418177 A    
C13   N1    1.436565 S    
N7    O34   1.301186 A    
N6    O32   1.301133 A    
O6    C2    1.344975 A    
N8    O36   1.301187 A    
N3    O25   1.300523 A    
C38   H10   1.084491 S    
O11   V3    1.983428 S    
N8    O35   1.301634 A    
C37   H9    1.084490 S    
O12   V4    1.983430 S    
C64   N12   1.439389 S    
N9    O37   1.301302 A    
C18   C22   1.409536 A    
C27   C31   1.415475 A    
C46   H14   1.079993 S    
C57   C66   1.400978 A    
C28   C32   1.415471 A    
C9    C13   1.407830 A    
O10   C6    1.327940 A    
C45   H13   1.079994 S    
O20   V2    1.746236 S    
C16   C20   1.417171 A    
C26   N6    1.442979 S    
C25   N5    1.442976 S    
C47   C51   1.412746 A    
C43   C47   1.407753 A    
C40   C60   1.405867 A    
C64   C68   1.405138 A    
C16   N4    1.430229 S    
O2    C6    1.327993 A    
N2    O24   1.301612 A    
C23   H7    1.082750 S    
O4    V2    1.977602 S    
C61   N9    1.438390 S    
C29   C33   1.454404 S    
C20   C24   1.408960 A    
C39   C59   1.405868 A    
C9    C29   1.401638 A    
C33   C34   1.213210 T    
C42   C46   1.404938 A    
C4    O14   1.338528 A    
N5    O30   1.301133 A    
C41   C45   1.404939 A    
C62   N10   1.438389 S    
C11   C31   1.401076 A    
C1    C43   1.488577 S    
N4    O27   1.300569 A    
C12   C32   1.401072 A    
C15   C19   1.417155 A    
C49   C53   1.421371 A    
C24   H8    1.082749 S    
C60   C67   1.400619 A    
C15   N3    1.430216 S    
N1    O22   1.301287 A    
