data_mof_unit_29165.cif
_audit_creation_date              2012-12-11T20:49:00-0500
_audit_creation_method            fapswitch 2.2
_symmetry_space_group_name_H-M    P1
_symmetry_Int_Tables_number       1
_space_group_crystal_system       triclinic
_cell_length_a                    8.256777
_cell_length_b                    18.889185
_cell_length_c                    18.981101
_cell_angle_alpha                 100.859816
_cell_angle_beta                  94.569567
_cell_angle_gamma                 91.19312
_cell_volume                      2896.16404334

loop_
_atom_site_label
_atom_site_type_symbol
_atom_type_description
_atom_site_fract_x
_atom_site_fract_y
_atom_site_fract_z
_atom_type_partial_charge
Ba1   Ba    Ba6+2 0.153490 0.533960 0.468530 1.740086
Ba2   Ba    Ba6+2 0.656680 0.466030 0.531410 1.768088
C1    C     C_3   0.322390 0.701442 0.204054 -0.309396
C2    C     C_R   0.095361 0.905839 0.564453 0.075884
C3    C     C_R   0.255154 0.927137 0.592143 -0.049802
C4    C     C_3   0.906546 0.724547 0.314441 0.410230
C5    C     C_R   0.321808 0.994239 0.586430 -0.060753
C6    C     C_R   0.226631 0.044142 0.557398 0.079034
C7    C     C_R   0.066258 0.023384 0.529001 0.049485
C8    C     C_R   0.287705 0.114488 0.557293 -0.086459
C9    C     C_R   0.187922 0.166367 0.533334 -0.021498
C10   C     C_R   0.033295 0.143288 0.498027 0.023077
C11   C     C_R   0.973016 0.071829 0.496591 -0.006808
C12   C     C_3   0.383198 0.690361 0.278967 0.334502
C13   C     C_R   0.236669 0.240391 0.543127 0.048560
C14   C     C_R   0.129936 0.288874 0.516674 -0.158808
C15   C     C_R   0.987778 0.265157 0.472102 0.027615
C16   C     C_3   0.895560 0.789955 0.278665 -0.318007
C17   C     C_R   0.940828 0.190390 0.461703 -0.050923
C18   C     C_R   0.844892 0.930489 0.498177 0.000705
C19   C     C_R   0.785258 0.858162 0.495130 0.022412
C20   C     C_R   0.882891 0.809675 0.529174 -0.027013
C21   C     C_R   0.032252 0.836710 0.567090 -0.008390
C22   C     C_R   0.807274 0.159865 0.414301 -0.027728
C23   C     C_3   0.391923 0.707102 0.678662 0.168490
C24   C     C_R   0.731646 0.095526 0.425009 -0.007642
C25   C     C_R   0.817404 0.049572 0.464070 0.017313
C26   C     C_R   0.752069 0.979533 0.465783 0.020327
C27   C     C_R   0.574625 0.074773 0.394964 -0.054934
C28   C     C_3   0.809051 0.383803 0.313378 0.263237
C29   C     C_R   0.505189 0.009420 0.401522 -0.071503
C30   C     C_R   0.595535 0.958636 0.433117 -0.004536
C31   C     C_R   0.629838 0.834794 0.457867 -0.074723
C32   C     C_R   0.533574 0.887373 0.429239 -0.057144
C33   C     C_R   0.583369 0.759720 0.449076 0.017786
C34   C     C_3   0.372572 0.778251 0.733647 -0.226847
C35   C     C_R   0.694573 0.711615 0.473638 -0.185090
C36   C     C_R   0.833264 0.735055 0.520795 0.045979
C37   C     C_2   0.587041 0.526753 0.302635 -0.270258
C38   C     C_3   0.671574 0.575468 0.262134 -0.049168
C39   C     C_2   0.623076 0.560745 0.182511 -0.122023
C40   C     C_3   0.772830 0.368468 0.231414 -0.313298
C41   C     C_2   0.486418 0.520733 0.155600 -0.076937
C42   C     C_2   0.398929 0.482428 0.204504 -0.090433
C43   C     C_1   0.455742 0.487305 0.272784 0.020810
C44   C     C_R   0.311267 0.517134 0.940286 0.468676
C45   C     C_3   0.935886 0.277659 0.670327 0.520874
C46   C     C_R   0.420506 0.519411 0.080067 0.474677
C47   C     C_R   0.377137 0.536239 0.815995 -0.017877
C48   C     C_R   0.333286 0.526480 0.741082 0.033550
C49   C     C_R   0.079179 0.465712 0.756191 0.020111
C50   C     C_R   0.115864 0.479624 0.830889 -0.133954
C51   C     C_R   0.267125 0.512041 0.861584 -0.106202
C52   C     C_3   0.973583 0.627320 0.694617 0.304666
C53   C     C_R   0.188605 0.488330 0.712034 -0.212571
C54   C     C_3   0.904578 0.643447 0.767380 -0.294234
C55   C     C_3   0.390992 0.294225 0.309294 0.210375
C56   C     C_3   0.899483 0.199842 0.677396 -0.150862
C57   C     C_3   0.347338 0.234465 0.242057 -0.333873
C58   C     C_2   0.915065 0.337166 0.192880 1.010219
C59   C     C_2   0.361462 0.270594 0.378741 0.875235
C60   C     C_2   0.391467 0.255658 0.173022 0.959160
C61   C     C_2   0.460503 0.721250 0.611634 0.813004
C62   C     C_2   0.534884 0.813615 0.766979 0.962732
C63   C     C_2   0.267910 0.766903 0.792321 0.875244
C64   C     C_2   0.009973 0.172242 0.731805 0.923913
C65   C     C_2   0.345508 0.320384 0.753478 0.798229
C66   C     C_2   0.576152 0.247791 0.832427 0.951925
C67   C     C_3   0.400594 0.249847 0.713758 0.247309
C68   C     C_2   0.526421 0.132655 0.746243 0.851365
C69   C     C_2   0.801211 0.172945 0.339735 0.880694
C70   C     C_2   0.376024 0.870608 0.386607 0.866664
C71   C     C_2   0.540999 0.565718 0.845631 0.908829
C72   C     C_3   0.459242 0.205438 0.772664 -0.278334
C73   C     C_R   0.001596 0.953248 0.530747 0.049360
H1    H     H_    0.370776 0.632019 0.279586 0.025941
H2    H     H_    0.512472 0.709498 0.289129 -0.040098
H3    H     H_    0.406162 0.676492 0.164472 0.078250
H4    H     H_    0.270775 0.681650 0.662848 0.011875
H5    H     H_    0.307439 0.816083 0.704028 -0.021728
H6    H     H_    0.318071 0.759596 0.202075 0.152206
H7    H     H_    0.800964 0.779500 0.232585 0.115398
H8    H     H_    0.863679 0.284303 0.620251 0.047149
H9    H     H_    0.902960 0.163815 0.624410 0.016319
H10   H     H_    0.294981 0.219448 0.681616 -0.022142
H11   H     H_    0.348115 0.192799 0.797790 0.048356
H12   H     H_    0.741500 0.419003 0.212719 0.046390
H13   H     H_    0.988468 0.738136 0.364720 0.098917
H14   H     H_    0.447895 0.006576 0.605052 0.134262
H15   H     H_    0.163855 0.345702 0.526600 0.079751
H16   H     H_    0.412107 0.129054 0.576566 0.136134
H17   H     H_    0.105964 0.803136 0.595792 0.096047
H18   H     H_    0.502976 0.109301 0.366965 0.145488
H19   H     H_    0.782716 0.712936 0.329299 -0.150713
H20   H     H_    0.689086 0.589904 0.149016 0.109803
H21   H     H_    0.284937 0.453515 0.184653 0.187872
H22   H     H_    0.862565 0.837694 0.318038 0.086763
H23   H     H_    0.906938 0.578937 0.662784 0.064889
H24   H     H_    0.013712 0.801303 0.258476 0.127433
H25   H     H_    0.702736 0.408481 0.338713 -0.047745
H26   H     H_    0.913043 0.422708 0.328218 0.108165
H27   H     H_    0.665854 0.331159 0.216741 0.050209
H28   H     H_    0.806450 0.238386 0.159065 0.299640
H29   H     H_    0.101696 0.614800 0.703626 -0.078994
H30   H     H_    0.263237 0.168839 0.337411 0.293909
H31   H     H_    0.532349 0.169753 0.146188 0.290692
H32   H     H_    0.407002 0.183812 0.247810 0.071359
H33   H     H_    0.572626 0.631741 0.573760 0.271837
H34   H     H_    0.980480 0.684906 0.805351 0.146450
H35   H     H_    0.501829 0.904100 0.725494 0.274031
H36   H     H_    0.234920 0.716922 0.875477 0.308510
H37   H     H_    0.066386 0.286620 0.664258 -0.522212
H38   H     H_    0.159795 0.093813 0.751495 0.323778
H39   H     H_    0.775229 0.196792 0.692874 0.149197
H40   H     H_    0.240438 0.361494 0.843441 0.331214
H41   H     H_    0.420799 0.247271 0.910027 0.319389
H42   H     H_    0.600360 0.038734 0.771437 0.344488
H43   H     H_    0.330742 0.891028 0.616423 0.111691
H44   H     H_    0.927971 0.182435 0.255307 0.326862
H45   H     H_    0.898445 0.593816 0.790474 0.052396
H46   H     H_    0.380953 0.998684 0.378626 0.105146
H47   H     H_    0.257477 0.864214 0.288654 0.308797
H48   H     H_    0.664387 0.654418 0.461066 0.069650
H49   H     H_    0.688630 0.653729 0.879496 0.320140
H50   H     H_    0.030350 0.461423 0.864690 0.141354
H51   H     H_    0.620302 0.535376 0.360154 0.061349
H52   H     H_    0.157633 0.478592 0.654446 0.036026
H53   H     H_    0.781211 0.663839 0.760818 0.206467
H54   H     H_    0.519386 0.312080 0.310854 -0.016360
H55   H     H_    0.199601 0.675885 0.188082 0.150799
H56   H     H_    0.214076 0.222435 0.236494 0.127813
N1    N     N_R   0.411537 0.571569 0.977531 -0.215266
N2    N     N_R   0.465435 0.572526 0.045612 -0.241177
N3    N     N_R   0.314788 0.466228 0.043994 -0.175516
N4    N     N_R   0.261805 0.464967 0.975353 -0.203472
O1    O     O_2   0.117290 0.676350 0.548250 -0.466979
O2    O     O_2   0.738060 0.446632 0.744747 -0.393521
O3    O     O_3   0.887050 0.325603 0.730455 -0.488351
O4    O     O_3   0.869060 0.586940 0.542720 -0.515884
O5    O     O_3   0.438990 0.460930 0.412890 -0.459681
O6    O     O_2   0.623700 0.539890 0.674570 -0.477082
O7    O     O_3   0.495819 0.661378 0.709318 -0.628985
O8    O     O_2   0.568602 0.245515 0.532858 -0.462010
O9    O     O_3   0.524068 0.261861 0.669039 -0.587254
O10   O     O_3   0.356990 0.628630 0.417250 -0.446610
O11   O     O_2   0.248610 0.753277 0.467793 -0.429465
O12   O     O_3   0.284698 0.349501 0.304390 -0.589981
O13   O     O_3   0.964312 0.688877 0.663002 -0.620504
O14   O     O_3   0.289729 0.728926 0.330646 -0.580004
O15   O     O_2   0.186600 0.460070 0.325400 -0.418511
O16   O     O_3   0.942970 0.591450 0.378940 -0.492978
O17   O     O_2   0.995324 0.526208 0.245460 -0.459267
O18   O     O_2   0.035490 0.375349 0.192534 -0.516358
O19   O     O_R   0.910898 0.265893 0.155476 -0.692195
O20   O     O_2   0.383867 0.315974 0.433468 -0.562040
O21   O     O_R   0.298895 0.202502 0.384131 -0.775630
O22   O     O_2   0.334866 0.309333 0.155055 -0.507701
O23   O     O_3   0.969071 0.666693 0.267208 -0.586579
O24   O     O_R   0.492734 0.213746 0.127595 -0.697914
O25   O     O_2   0.492389 0.782280 0.603165 -0.657231
O26   O     O_R   0.485561 0.663371 0.557530 -0.711392
O27   O     O_2   0.624293 0.782927 0.804930 -0.495654
O28   O     O_R   0.584476 0.881676 0.756052 -0.694598
O29   O     O_2   0.145911 0.801872 0.801991 -0.565720
O30   O     O_R   0.311523 0.717849 0.836488 -0.699898
O31   O     O_2   0.016147 0.200786 0.795369 -0.482233
O32   O     O_R   0.097653 0.110628 0.709818 -0.776579
O33   O     O_2   0.415762 0.376852 0.749778 -0.578480
O34   O     O_2   0.693010 0.323600 0.451730 -0.440006
O35   O     O_R   0.227549 0.319176 0.801960 -0.722656
O36   O     O_2   0.709481 0.267605 0.818941 -0.474558
O37   O     O_R   0.533935 0.265246 0.903421 -0.653520
O38   O     O_2   0.557637 0.114167 0.684025 -0.653467
O39   O     O_R   0.553766 0.085873 0.794576 -0.708804
O40   O     O_2   0.672053 0.178507 0.305911 -0.672720
O41   O     O_R   0.946391 0.176601 0.307229 -0.757461
O42   O     O_2   0.249881 0.875246 0.416458 -0.617917
O43   O     O_R   0.371912 0.863507 0.311891 -0.762200
O44   O     O_2   0.639340 0.526470 0.868859 -0.570388
O45   O     O_3   0.941240 0.413050 0.457220 -0.501390
O46   O     O_R   0.578762 0.639066 0.852289 -0.680277
O47   O     O_3   0.453310 0.371360 0.582690 -0.405209
O48   O     O_3   0.841515 0.319157 0.336975 -0.622304
O49   O     O_3   0.371310 0.539060 0.587050 -0.453456
O50   O     O_3   0.867330 0.408540 0.621000 -0.512913
P1    P     P_3+3 0.945300 0.665790 0.568510 0.971711
P2    P     P_3+3 0.360080 0.438780 0.334620 1.054474
P3    P     P_3+3 0.895113 0.586087 0.287046 0.964859
P4    P     P_3+3 0.865000 0.334200 0.431430 1.025258
P5    P     P_3+3 0.893290 0.413804 0.713902 1.083140
P6    P     P_3+3 0.373622 0.719725 0.416058 1.039130
P7    P     P_3+3 0.446995 0.568725 0.678451 0.973631
P8    P     P_3+3 0.441794 0.278250 0.584331 1.056732

loop_
_geom_bond_atom_site_label_1
_geom_bond_atom_site_label_2
_ccdc_geom_bond_type
H42   O39   S    
C65   O33   D    
C27   H18   S    
C14   H15   S    
C63   O30   S    
Ba2   O34   S    
C1    H55   S    
C54   H45   S    
C28   O48   S    
Ba1   O10   S    
C23   O7    S    
Ba2   P4    S    
C70   O43   S    
O17   P3    D    
O50   P5    S    
Ba1   P1    S    
C42   C43   D    
C67   O9    S    
C10   C11   A    
C57   H56   S    
C24   C25   A    
C64   O32   S    
Ba2   O4    S    
C70   O42   D    
C55   H54   S    
C33   C35   A    
C22   C24   A    
O45   P4    S    
C62   O28   S    
C44   N1    A    
Ba1   O45   S    
C55   C57   S    
C19   C31   A    
C66   C72   S    
C13   C14   A    
C20   C36   A    
C28   H25   S    
C4    H13   S    
C69   O41   S    
C45   O3    S    
C12   O14   S    
Ba1   Ba2   S    
Ba2   O47   S    
C12   H2    S    
C7    C11   A    
C58   O18   D    
C23   C61   S    
C2    C73   A    
C43   P2    S    
C45   H37   S    
C31   C33   A    
C44   N4    A    
C35   H48   S    
C9    C13   A    
C56   C64   S    
C59   O20   D    
C69   O40   D    
C14   C15   A    
C4    H19   S    
C68   C72   S    
O49   P7    S    
Ba1   O16   S    
H36   O30   S    
C16   H22   S    
O34   P4    D    
O4    P1    S    
C48   P7    S    
C41   C46   S    
Ba1   O4    S    
C37   C43   D    
C37   H51   S    
C19   C20   A    
O10   P6    S    
C39   C41   D    
O3    P5    S    
O6    P7    D    
Ba2   O45   S    
C61   O25   D    
H40   O35   S    
O48   P4    S    
C4    O23   S    
Ba1   O49   S    
Ba1   P2    S    
C65   O35   S    
C67   C72   S    
O16   P3    S    
C4    C16   S    
C52   C54   S    
O14   P6    S    
C64   O31   D    
C52   H23   S    
C49   C50   A    
C46   N2    A    
C26   C30   A    
C29   H46   S    
C62   O27   D    
C34   H5    S    
C40   C58   S    
C37   C38   S    
C3    C5    A    
C2    C21   A    
C34   C63   S    
C6    C7    A    
O9    P8    S    
C18   C26   A    
C15   P4    S    
C36   P1    S    
C57   H32   S    
C18   C73   A    
C65   C67   S    
C30   C32   A    
C41   C42   S    
C1    H6    S    
C35   C36   A    
C42   H21   S    
C56   H9    S    
H44   O41   S    
H41   O37   S    
C71   O46   S    
H28   O19   S    
C29   C30   A    
C9    C10   A    
O7    P7    S    
C44   C51   S    
C31   C32   A    
C60   O22   D    
Ba1   O15   S    
O47   P8    S    
Ba2   O49   S    
C72   H11   S    
C68   O39   S    
Ba1   O5    S    
C60   O24   S    
C38   C39   S    
C53   H52   S    
C8    H16   S    
C16   H7    S    
C45   H8    S    
C55   O12   S    
C47   C71   S    
O11   P6    D    
C63   O29   D    
C16   H24   S    
C15   C17   A    
Ba1   O1    S    
C59   O21   S    
C32   C70   S    
C54   H34   S    
O15   P2    D    
C5    H14   S    
C67   H10   S    
C50   C51   A    
C52   O13   S    
C46   N3    A    
H47   O43   S    
C57   C60   S    
C33   P6    S    
O1    P1    D    
C23   H4    S    
O5    P2    S    
C20   C21   A    
C28   C40   S    
C71   O44   D    
C2    C3    A    
O23   P3    S    
H38   O32   S    
C50   H50   S    
C55   C59   S    
N3    N4    A    
C38   P3    S    
C1    C12   S    
H33   O26   S    
C52   H29   S    
C48   C53   A    
C3    H43   S    
O12   P2    S    
C17   C22   A    
Ba2   O50   S    
Ba2   O5    S    
H49   O46   S    
C27   C29   A    
C61   O26   S    
C40   H27   S    
H35   O28   S    
C49   P5    S    
C66   O37   S    
C39   H20   S    
C47   C51   A    
C10   C17   A    
C66   O36   D    
C28   H26   S    
N1    N2    A    
C49   C53   A    
C54   H53   S    
C68   O38   D    
C58   O19   S    
C5    C6    A    
C8    C9    A    
C23   C34   S    
O2    P5    D    
C13   P8    S    
H30   O21   S    
C18   C19   A    
C24   C27   A    
C6    C8    A    
C47   C48   A    
C25   C26   A    
C56   H39   S    
Ba2   O6    S    
C21   H17   S    
C11   C25   A    
C40   H12   S    
C7    C73   A    
C34   C62   S    
C1    H3    S    
O13   P1    S    
H31   O24   S    
C22   C69   S    
C12   H1    S    
C45   C56   S    
O8    P8    D    
