data_mof_unit_7873.cif
_audit_creation_date              2012-12-10T20:35:49-0500
_audit_creation_method            fapswitch 2.2
_symmetry_space_group_name_H-M    P1
_symmetry_Int_Tables_number       1
_space_group_crystal_system       triclinic
_cell_length_a                    15.736348
_cell_length_b                    10.620778
_cell_length_c                    9.896951
_cell_angle_alpha                 90.080014
_cell_angle_beta                  89.42349
_cell_angle_gamma                 90.743466
_cell_volume                      1653.87547036

loop_
_atom_site_label
_atom_site_type_symbol
_atom_type_description
_atom_site_fract_x
_atom_site_fract_y
_atom_site_fract_z
_atom_type_partial_charge
C1    C     C_R   0.492429 0.260225 0.499787 0.917964
C2    C     C_3   0.951145 0.437896 0.624771 0.284474
C3    C     C_3   0.917443 0.509317 0.498383 0.059800
C4    C     C_3   0.950596 0.648004 0.495624 -0.351620
C5    C     C_3   0.050231 0.654362 0.494556 0.469795
C6    C     C_1   0.825824 0.506308 0.497800 -0.035038
C7    C     C_1   0.174772 0.508040 0.499950 -0.078257
C8    C     C_1   0.249874 0.503783 0.501372 -0.188184
C9    C     C_R   0.468491 0.063949 0.621883 -0.084893
C10   C     C_R   0.469770 0.129339 0.499945 -0.231700
C11   C     C_R   0.450503 0.062556 0.379443 0.435850
C12   C     C_R   0.338466 0.500071 0.500609 0.885240
C13   C     C_R   0.457813 0.932495 0.380312 -0.217590
C14   C     C_R   0.475919 0.870477 0.501485 -0.185508
C15   C     C_R   0.468222 0.935500 0.623170 0.033264
C16   C     C_3   0.516845 0.929699 0.752865 -0.174408
C17   C     C_3   0.519701 0.073778 0.749066 0.304960
C18   C     C_R   0.442413 0.427908 0.072057 0.202485
C19   C     C_R   0.561880 0.562435 0.068887 0.447842
C20   C     C_R   0.562336 0.559432 0.925869 -0.137833
C21   C     C_R   0.442344 0.428239 0.929765 0.214313
C22   C     C_3   0.348119 0.438601 0.925323 -0.524625
C23   C     C_R   0.495827 0.740118 0.500312 0.894378
C24   C     C_3   0.348005 0.438566 0.078732 -0.516003
C25   C     C_R   0.661630 0.500421 0.499349 0.915801
C26   C     C_3   0.049007 0.449333 0.628281 -0.504103
C27   C     C_3   0.049539 0.432540 0.371763 0.534561
C28   C     C_3   0.950247 0.441962 0.369532 -0.555091
C29   C     C_1   0.750515 0.503351 0.498086 -0.141217
C30   C     C_3   0.083135 0.512880 0.496814 0.116467
H1    H     H_    0.934167 0.336437 0.612778 0.145897
H2    H     H_    0.070507 0.503386 0.717191 0.216739
H3    H     H_    0.926063 0.694495 0.403259 0.210054
H4    H     H_    0.452845 0.881543 0.285813 0.181695
H5    H     H_    0.580305 0.885941 0.739690 0.167723
H6    H     H_    0.485673 0.122043 0.832851 0.145767
H7    H     H_    0.076582 0.354332 0.642217 0.181535
H8    H     H_    0.610872 0.611122 0.870068 0.175834
H9    H     H_    0.327150 0.529232 0.881405 0.216501
H10   H     H_    0.317612 0.353105 0.881401 0.209385
H11   H     H_    0.326927 0.529199 0.123405 0.212003
H12   H     H_    0.317041 0.353293 0.123049 0.217829
H13   H     H_    0.920297 0.346792 0.360475 0.183111
H14   H     H_    0.928263 0.494729 0.279494 0.199877
H15   H     H_    0.921281 0.701367 0.579350 0.132950
N1    N     N_R   0.499430 0.499140 0.142800 -0.170896
N2    N     N_R   0.499430 0.499180 0.857150 -0.149111
O1    O     O_R   0.500010 0.316790 0.614690 -0.576873
O2    O     O_R   0.500000 0.316760 0.385350 -0.597705
O3    O     O_R   0.377150 0.500020 0.614720 -0.622455
O4    O     O_R   0.377140 0.499990 0.385380 -0.628010
O5    O     O_R   0.500000 0.683240 0.614650 -0.624819
O6    O     O_R   0.499990 0.683210 0.385310 -0.656341
O7    O     O_R   0.622860 0.500010 0.614620 -0.600609
O8    O     O_R   0.622850 0.499980 0.385280 -0.606760
Zn1   Zn    Zn3+2 0.500010 0.500020 0.653130 0.959629
Zn2   Zn    Zn3+2 0.499990 0.499980 0.346870 0.956521
O9    O     O_3   0.915648 0.475637 0.749797 -0.756975
H16   H     H_    0.884188 0.554995 0.738853 0.340650
O10   O     O_3   0.430478 0.119734 0.259252 -0.761521
H17   H     H_    0.394248 0.192768 0.281037 0.337998
C31   C     C_3   0.466006 0.873086 0.873529 -0.386018
C32   C     C_3   0.370840 0.905739 0.878883 -0.329588
C33   C     C_3   0.327838 0.849576 0.004255 -0.873629
H18   H     H_    0.334313 0.745580 0.004835 0.248835
H19   H     H_    0.356669 0.889533 0.097010 0.281305
H20   H     H_    0.259247 0.872633 0.004622 0.256001
H21   H     H_    0.362380 0.009324 0.880941 0.217390
H22   H     H_    0.338424 0.867207 0.788206 0.226878
H23   H     H_    0.471117 0.769236 0.868247 0.224048
H24   H     H_    0.496928 0.904345 0.968593 0.224696
O11   O     O_3   0.602359 0.123227 0.728212 -0.727804
H25   H     H_    0.627654 0.082800 0.646899 0.331715
O12   O     O_3   0.624343 0.633754 0.129096 -0.766153
H26   H     H_    0.604740 0.655556 0.220473 0.379695
C34   C     C_3   0.086923 0.476941 0.232369 -0.324736
C35   C     C_3   0.074752 0.378198 0.120077 -0.299962
C36   C     C_3   0.101046 0.431416 0.982934 -0.912983
H27   H     H_    0.059145 0.510702 0.956120 0.286946
H28   H     H_    0.167925 0.465684 0.984710 0.267845
H29   H     H_    0.095189 0.356488 0.905174 0.264910
H30   H     H_    0.114225 0.294495 0.140817 0.260365
H31   H     H_    0.007064 0.347468 0.115560 0.239561
H32   H     H_    0.056085 0.564587 0.198537 0.224401
H33   H     H_    0.156130 0.497094 0.240162 0.192476
O13   O     O_3   0.075013 0.305886 0.388130 -0.777765
H34   H     H_    0.034203 0.259901 0.447570 0.323005
C37   C     C_3   0.088722 0.740405 0.610989 -0.416457
C38   C     C_3   0.036862 0.761612 0.742168 -0.398276
C39   C     C_3   0.093237 0.812151 0.855237 -0.873482
H35   H     H_    0.141842 0.741610 0.881803 0.261428
H36   H     H_    0.125473 0.901102 0.823416 0.263988
H37   H     H_    0.053811 0.831181 0.946501 0.268050
H38   H     H_    0.986662 0.832009 0.723606 0.229130
H39   H     H_    0.005924 0.674360 0.778641 0.252009
H40   H     H_    0.152525 0.705978 0.638394 0.194327
H41   H     H_    0.101134 0.836182 0.569046 0.226203
O14   O     O_3   0.075104 0.711987 0.371817 -0.814659
H42   H     H_    0.138164 0.716755 0.367945 0.325560

loop_
_geom_bond_atom_site_label_1
_geom_bond_atom_site_label_2
_ccdc_geom_bond_type
C37   H40   S    
C26   H2    S    
C18   C21   A    
C24   H12   S    
C19   C20   A    
C3    C6    S    
C34   H32   S    
C23   O5    A    
C19   N1    A    
C7    C8    T    
C26   H7    S    
C35   C36   S    
C18   C24   S    
C3    C28   S    
C16   H5    S    
C36   H28   S    
C5    O14   S    
C35   H31   S    
C15   C16   S    
O2    Zn2   S    
C31   H23   S    
C38   H38   S    
C4    H3    S    
C5    C37   S    
C32   H22   S    
C16   C17   S    
O4    Zn2   S    
C17   H6    S    
C9    C10   A    
C37   H41   S    
C7    C30   S    
C13   C14   A    
C27   C30   S    
C24   H11   S    
C16   C31   S    
C18   N1    A    
C23   O6    A    
C4    H15   S    
C25   C29   S    
O7    Zn1   S    
O12   H26   S    
C33   H20   S    
C34   C35   S    
O6    Zn2   S    
O13   H34   S    
C4    C5    S    
O9    H16   S    
C28   H14   S    
O3    Zn1   S    
C3    C4    S    
C2    H1    S    
C33   H19   S    
C14   C23   S    
C38   H39   S    
C27   O13   S    
C31   C32   S    
C20   H8    S    
C39   H36   S    
C8    C12   S    
C22   H10   S    
C2    C26   S    
C25   O7    A    
C9    C17   S    
C26   C30   S    
O8    Zn2   S    
N1    Zn2   S    
C22   C24   S    
C27   C34   S    
C12   O4    A    
C39   H37   S    
C5    C30   S    
O1    Zn1   S    
C32   H21   S    
C36   H27   S    
C19   O12   S    
C1    C10   S    
C25   O8    A    
O11   H25   S    
C12   O3    A    
C2    O9    S    
C1    O1    A    
C28   H13   S    
C33   H18   S    
C2    C3    S    
C9    C15   A    
C13   H4    S    
C11   C13   A    
C36   H29   S    
C39   H35   S    
C35   H30   S    
C22   H9    S    
C31   H24   S    
C20   N2    A    
C10   C11   A    
C32   C33   S    
O5    Zn1   S    
C6    C29   T    
C37   C38   S    
C17   O11   S    
O14   H42   S    
C27   C28   S    
C14   C15   A    
O10   H17   S    
C38   C39   S    
C21   C22   S    
C1    O2    A    
C34   H33   S    
C11   O10   S    
N2    Zn1   S    
C21   N2    A    
