data_mof_unit_18524.cif
_audit_creation_date              2012-10-26T21:06:09-0400
_audit_creation_method            fapswitch 2.2
_symmetry_space_group_name_H-M    P1
_symmetry_Int_Tables_number       1
_space_group_crystal_system       triclinic
_cell_length_a                    13.444135
_cell_length_b                    18.169627
_cell_length_c                    19.418224
_cell_angle_alpha                 90.287138
_cell_angle_beta                  90.082042
_cell_angle_gamma                 72.043503
_cell_volume                      4512.28222283

loop_
_atom_site_label
_atom_site_type_symbol
_atom_type_description
_atom_site_fract_x
_atom_site_fract_y
_atom_site_fract_z
_atom_type_partial_charge
C1    C     C_R   0.499072 0.500367 0.632302 0.584932
C2    C     C_R   0.816437 0.431569 0.502375 0.008654
C3    C     C_R   0.487618 0.567760 0.255259 -0.136590
C4    C     C_R   0.700804 0.458289 0.499321 0.556620
C5    C     C_R   0.489980 0.566744 0.183551 -0.119609
C6    C     C_R   0.508985 0.496626 0.147368 0.040392
C7    C     C_R   0.525485 0.427585 0.184218 -0.120168
C8    C     C_R   0.522120 0.428684 0.255874 -0.132480
C9    C     C_R   0.503186 0.498766 0.291955 0.013001
C10   C     C_R   0.464955 0.447220 0.034942 -0.129542
C11   C     C_R   0.465759 0.445772 0.962770 0.216126
C12   C     C_R   0.981482 0.462210 0.494830 0.020943
C13   C     C_R   0.508619 0.495891 0.927039 0.062031
C14   C     C_R   0.555773 0.543636 0.963120 0.258610
C15   C     C_R   0.556134 0.543417 0.034999 -0.123551
C16   C     C_R   0.500665 0.499721 0.367519 0.537472
C17   C     C_R   0.510619 0.495468 0.071383 -0.060251
C18   C     C_R   0.441350 0.564252 0.817417 0.306359
C19   C     C_R   0.441288 0.566508 0.745039 0.243932
C20   C     C_R   0.499515 0.500624 0.707636 -0.020363
C21   C     C_R   0.559223 0.434334 0.742414 -0.199645
C22   C     C_R   0.562395 0.433387 0.813907 -0.172908
C23   C     C_R   0.875089 0.478444 0.476286 -0.065092
C24   C     C_R   0.504463 0.498184 0.851568 0.055037
C25   C     C_R   0.449096 0.290829 0.550733 0.052707
C26   C     C_R   0.447490 0.213541 0.551567 0.225345
C27   C     C_R   0.500939 0.161641 0.499692 0.044438
C28   C     C_R   0.299229 0.541554 0.499351 0.576613
C29   C     C_R   0.552235 0.189952 0.447953 -0.170484
C30   C     C_R   0.550781 0.267435 0.449002 0.004215
C31   C     C_R   0.473838 0.045186 0.438707 0.250959
C32   C     C_R   0.478188 0.966346 0.437910 0.225640
C33   C     C_R   0.501458 0.921317 0.498793 -0.009180
C34   C     C_R   0.032872 0.518311 0.480910 -0.017555
C35   C     C_R   0.524545 0.956741 0.559403 0.202579
C36   C     C_R   0.528168 0.033355 0.557889 -0.130175
C37   C     C_R   0.501589 0.078818 0.498502 -0.033986
C38   C     C_R   0.579859 0.780185 0.532857 -0.109326
C39   C     C_R   0.576827 0.703678 0.533674 0.034266
C40   C     C_R   0.026194 0.645840 0.437667 -0.106524
C41   C     C_R   0.424403 0.738040 0.465019 0.011947
C42   C     C_R   0.422289 0.815789 0.465162 -0.140340
C43   C     C_R   0.501061 0.838267 0.499072 0.051838
C44   C     C_R   0.184827 0.565021 0.490660 0.009229
C45   C     C_R   0.979295 0.587047 0.445156 0.021566
C46   C     C_R   0.867561 0.362158 0.537829 0.265181
C47   C     C_R   0.975851 0.342636 0.548826 -0.139478
C48   C     C_R   0.031324 0.391598 0.528387 -0.154877
C49   C     C_3   0.109738 0.759902 0.501114 -0.008122
C50   C     C_3   0.158564 0.825001 0.500426 -0.386886
C51   C     C_3   0.464222 0.322434 0.939099 -0.014488
C52   C     C_3   0.432665 0.275302 0.883003 -0.366549
C53   C     C_3   0.703910 0.557467 0.917224 -0.018778
C54   C     C_3   0.746422 0.608328 0.871275 -0.364951
C55   C     C_3   0.281406 0.620251 0.864662 -0.002689
C56   C     C_R   0.880250 0.596088 0.416793 0.259206
C57   C     C_3   0.217687 0.686801 0.909608 -0.373075
C58   C     C_3   0.416298 0.689885 0.708089 0.018512
C59   C     C_3   0.354047 0.748653 0.656277 -0.371918
C60   C     C_3   0.785325 0.645685 0.318279 -0.014940
C61   C     C_3   0.783503 0.707239 0.265159 -0.378470
C62   C     C_3   0.290063 0.218690 0.598714 -0.016083
C63   C     C_3   0.238792 0.175387 0.646902 -0.374619
C64   C     C_3   0.336609 0.123428 0.379489 0.009008
C65   C     C_3   0.305825 0.175646 0.317021 -0.373751
C66   C     C_3   0.544347 0.906290 0.337673 0.005723
C67   C     C_R   0.829425 0.541548 0.432466 -0.120289
C68   C     C_3   0.516634 0.871807 0.271567 -0.374286
C69   C     C_3   0.461322 0.939867 0.664691 -0.011953
C70   C     C_3   0.487767 0.895435 0.731921 -0.376057
C71   C     C_3   0.858386 0.239956 0.569351 -0.014325
C72   C     C_3   0.777374 0.198044 0.578668 -0.357470
C73   C     C_R   0.135736 0.508735 0.502518 -0.177372
C74   C     C_R   0.126341 0.637350 0.464119 0.233691
Cu1   Cu    Cu3+1 0.500030 0.426630 0.500000 0.951539
Cu2   Cu    Cu3+1 0.499970 0.573370 0.500000 0.950584
H1    H     H_    0.425851 0.412406 0.062474 0.116242
H2    H     H_    0.170974 0.840569 0.446586 0.155017
H3    H     H_    0.106000 0.876724 0.526884 0.092864
H4    H     H_    0.234089 0.807085 0.528175 0.137955
H5    H     H_    0.475377 0.620984 0.156444 0.106990
H6    H     H_    0.542022 0.372571 0.157657 0.095774
H7    H     H_    0.535326 0.374547 0.282976 0.117356
H8    H     H_    0.438245 0.306142 0.989529 0.126602
H9    H     H_    0.551270 0.307050 0.938617 0.111685
H10   H     H_    0.458372 0.289977 0.831935 0.163858
H11   H     H_    0.469935 0.212609 0.892578 0.090236
H12   H     H_    0.610437 0.382185 0.840032 0.118296
H13   H     H_    0.346404 0.287905 0.882653 0.158410
H14   H     H_    0.718531 0.500340 0.891020 0.119158
H15   H     H_    0.746983 0.549166 0.967060 0.121452
H16   H     H_    0.734762 0.665507 0.896233 0.157544
H17   H     H_    0.831303 0.580296 0.862330 0.093357
H18   H     H_    0.705218 0.616921 0.820905 0.155091
H19   H     H_    0.592399 0.580668 0.062151 0.119592
H20   H     H_    0.285584 0.565069 0.891095 0.151643
H21   H     H_    0.240163 0.622810 0.814524 0.160548
H22   H     H_    0.210715 0.742854 0.884289 0.157749
H23   H     H_    0.591633 0.288157 0.409306 0.127092
H24   H     H_    0.138184 0.681967 0.917663 0.091407
H25   H     H_    0.256358 0.685108 0.960429 0.166141
H26   H     H_    0.499593 0.670073 0.691017 0.128217
H27   H     H_    0.411133 0.718675 0.759213 0.171117
H28   H     H_    0.273218 0.776096 0.675445 0.137345
H29   H     H_    0.391945 0.793965 0.647544 0.096844
H30   H     H_    0.350450 0.719251 0.606559 0.199826
H31   H     H_    0.604763 0.383605 0.714113 0.151985
H32   H     H_    0.703368 0.647215 0.328610 0.142303
H33   H     H_    0.829695 0.588369 0.295666 0.120519
H34   H     H_    0.985386 0.698781 0.411055 0.162551
H35   H     H_    0.864694 0.703774 0.250611 0.153041
H36   H     H_    0.740812 0.698299 0.218439 0.093522
H37   H     H_    0.743986 0.765537 0.286834 0.153753
H38   H     H_    0.409850 0.330358 0.591051 0.127930
H39   H     H_    0.263089 0.212391 0.545291 0.113691
H40   H     H_    0.264152 0.280892 0.613693 0.120571
H41   H     H_    0.263184 0.180952 0.700852 0.157173
H42   H     H_    0.152449 0.199603 0.643457 0.081740
H43   H     H_    0.262355 0.113154 0.632409 0.139911
H44   H     H_    0.594660 0.152030 0.407446 0.137200
H45   H     H_    0.358509 0.857997 0.439453 0.141817
H46   H     H_    0.310413 0.159721 0.426434 0.112849
H47   H     H_    0.295488 0.078833 0.376578 0.156249
H48   H     H_    0.219806 0.203568 0.316456 0.090387
H49   H     H_    0.344882 0.221319 0.319062 0.157915
H50   H     H_    0.329457 0.141149 0.269052 0.158422
H51   H     H_    0.604673 0.860052 0.365669 0.133664
H52   H     H_    0.577274 0.953453 0.323615 0.159294
H53   H     H_    0.453366 0.915850 0.243997 0.165999
H54   H     H_    0.586033 0.852698 0.237391 0.084738
H55   H     H_    0.489812 0.821298 0.283701 0.150942
H56   H     H_    0.181034 0.457141 0.528399 0.125405
H57   H     H_    0.392012 0.928113 0.641271 0.121936
H58   H     H_    0.441155 0.002721 0.676985 0.142934
H59   H     H_    0.552360 0.910282 0.758420 0.156949
H60   H     H_    0.418131 0.910844 0.766076 0.094053
H61   H     H_    0.512649 0.832184 0.721743 0.150406
H62   H     H_    0.551369 0.057550 0.604034 0.170382
H63   H     H_    0.644181 0.793385 0.558070 0.148730
H64   H     H_    0.636992 0.660151 0.560951 0.128230
H65   H     H_    0.364497 0.721401 0.437708 0.168781
H66   H     H_    0.912427 0.225455 0.614133 0.122753
H67   H     H_    0.753394 0.549468 0.410139 0.133831
H68   H     H_    0.901896 0.218631 0.520681 0.115287
H69   H     H_    0.724078 0.208864 0.533720 0.164936
H70   H     H_    0.816868 0.134817 0.582872 0.085005
H71   H     H_    0.730992 0.218803 0.626143 0.161668
H72   H     H_    0.113397 0.371970 0.540378 0.093594
H73   H     H_    0.018055 0.291144 0.576620 0.088564
H74   H     H_    0.472576 0.622647 0.281882 0.123531
H75   H     H_    0.106862 0.741267 0.555507 0.135837
H76   H     H_    0.028629 0.784277 0.481244 0.122488
N1    N     N_R   0.500010 0.316380 0.499980 -0.246929
N2    N     N_R   0.499860 0.683650 0.499960 -0.234697
O1    O     O_R   0.500040 0.438010 0.599820 -0.507986
O2    O     O_3   0.415424 0.401902 0.926284 -0.564959
O3    O     O_3   0.596164 0.594029 0.928123 -0.533796
O4    O     O_3   0.381979 0.627443 0.854826 -0.538985
O5    O     O_3   0.373166 0.628317 0.710892 -0.557657
O6    O     O_3   0.830958 0.662650 0.379604 -0.577454
O7    O     O_3   0.399604 0.187344 0.604976 -0.586877
O8    O     O_3   0.446012 0.088371 0.379364 -0.555861
O9    O     O_3   0.453092 0.935135 0.377774 -0.563822
O10   O     O_3   0.548277 0.915538 0.620081 -0.569569
O11   O     O_3   0.807122 0.320557 0.567620 -0.539063
O12   O     O_R   0.499990 0.561930 0.599810 -0.484316
O13   O     O_R   0.651020 0.407800 0.499990 -0.443886
O14   O     O_R   0.650970 0.531720 0.499980 -0.529149
O15   O     O_R   0.500010 0.438070 0.400190 -0.513456
O16   O     O_R   0.499960 0.561990 0.400180 -0.510677
O17   O     O_R   0.349030 0.468280 0.500020 -0.520778
O18   O     O_R   0.348980 0.592200 0.500010 -0.453556
O19   O     O_3   0.169323 0.697427 0.459695 -0.555100

loop_
_geom_bond_atom_site_label_1
_geom_bond_atom_site_label_2
_ccdc_geom_bond_type
C66   C68   S    
C69   H58   S    
C46   O11   S    
C27   C29   A    
C8    H7    S    
C41   C42   A    
C35   C36   A    
C69   O10   S    
C12   C48   A    
C67   H67   S    
C50   H3    S    
C51   H9    S    
C49   O19   S    
C7    C8    A    
C56   C67   A    
C53   C54   S    
C2    C46   A    
C62   H40   S    
C12   C23   A    
C26   C27   A    
C29   C30   A    
C18   C24   A    
C59   H28   S    
C36   C37   A    
C9    C16   S    
C58   O5    S    
C15   H19   S    
C38   C39   A    
C63   H41   S    
C72   H70   S    
C62   O7    S    
C10   C17   A    
C72   H69   S    
C32   O9    S    
C63   H43   S    
C66   H51   S    
Cu2   O18   S    
C18   C19   A    
C65   H48   S    
C23   C67   A    
C1    O1    A    
C54   H17   S    
C60   H33   S    
C46   C47   A    
C16   O15   A    
C28   O18   A    
C55   O4    S    
C47   H73   S    
C45   C56   A    
C66   H52   S    
C8    C9    A    
C1    C20   S    
Cu1   O15   S    
C38   H63   S    
Cu2   O12   S    
C58   H26   S    
C22   H12   S    
C60   H32   S    
C31   O8    S    
C13   C14   A    
C70   H60   S    
C52   H13   S    
C68   H53   S    
C50   H2    S    
C10   H1    S    
C30   N1    A    
C40   C45   A    
C29   H44   S    
C51   O2    S    
C59   H30   S    
C49   H75   S    
C39   N2    A    
C25   N1    A    
C51   C52   S    
C33   C43   S    
C47   C48   A    
C74   O19   S    
C64   O8    S    
C63   H42   S    
C40   H34   S    
C14   O3    S    
C58   C59   S    
C57   H24   S    
C30   H23   S    
C28   C44   S    
C4    O14   A    
C13   C24   S    
C60   C61   S    
C65   H49   S    
C68   H55   S    
C2    C4    S    
Cu1   Cu2   S    
C54   H16   S    
C62   C63   S    
C18   O4    S    
C16   O16   A    
C5    H5    S    
Cu1   N1    S    
C28   O17   A    
C31   C32   A    
C55   H21   S    
C34   C45   A    
C59   H29   S    
C44   C74   A    
C3    C9    A    
C21   H31   S    
C11   O2    S    
C71   H66   S    
C53   H15   S    
C55   C57   S    
Cu1   O17   S    
C70   H59   S    
C22   C24   A    
C42   C43   A    
C12   C34   A    
C72   H71   S    
C73   H56   S    
C2    C23   A    
C41   N2    A    
C15   C17   A    
C6    C17   S    
C39   H64   S    
C3    H74   S    
C69   H57   S    
C49   H76   S    
C52   H11   S    
C60   O6    S    
C55   H20   S    
C3    C5    A    
C50   H4    S    
Cu1   O1    S    
C6    C7    A    
C64   H47   S    
C57   H25   S    
C41   H65   S    
C26   O7    S    
C53   O3    S    
C35   O10   S    
C4    O13   A    
Cu2   O16   S    
C19   O5    S    
C32   C33   A    
C19   C20   A    
C52   H10   S    
C25   C26   A    
C62   H39   S    
C56   O6    S    
C25   H38   S    
C65   H50   S    
C61   H37   S    
C11   C13   A    
C5    C6    A    
C1    O12   A    
C27   C37   S    
C64   H46   S    
C57   H22   S    
C48   H72   S    
C64   C65   S    
Cu2   N2    S    
C33   C35   A    
C40   C74   A    
C66   O9    S    
Cu2   O14   S    
C44   C73   A    
C69   C70   S    
C54   H18   S    
C10   C11   A    
C34   C73   A    
C31   C37   A    
C38   C43   A    
C7    H6    S    
C71   C72   S    
C20   C21   A    
C70   H61   S    
C49   C50   S    
C71   O11   S    
C53   H14   S    
C14   C15   A    
C68   H54   S    
Cu1   O13   S    
C58   H27   S    
C21   C22   A    
C61   H36   S    
C36   H62   S    
C51   H8    S    
C42   H45   S    
C71   H68   S    
C61   H35   S    
