data_mof_unit_40792.cif
_audit_creation_date              2012-10-26T20:43:04-0400
_audit_creation_method            fapswitch 2.2
_symmetry_space_group_name_H-M    P1
_symmetry_Int_Tables_number       1
_space_group_crystal_system       triclinic
_cell_length_a                    10.809903
_cell_length_b                    9.644651
_cell_length_c                    15.037776
_cell_angle_alpha                 89.332802
_cell_angle_beta                  90.158682
_cell_angle_gamma                 89.373573
_cell_volume                      1567.59799442

loop_
_atom_site_label
_atom_site_type_symbol
_atom_type_description
_atom_site_fract_x
_atom_site_fract_y
_atom_site_fract_z
_atom_type_partial_charge
C1    C     C_R   0.262464 0.500471 0.500549 0.537320
C2    C     C_R   0.128404 0.500769 0.501167 0.027768
C3    C     C_R   0.430619 0.076271 0.439537 0.118769
C4    C     C_R   0.569833 0.923472 0.560048 0.130004
C5    C     C_R   0.567797 0.071571 0.561319 0.097610
C6    C     C_R   0.431736 0.928022 0.438724 0.107608
C7    C     C_R   0.502998 0.500752 0.329597 0.502970
C8    C     C_R   0.498146 0.499782 0.670628 0.504003
C9    C     C_R   0.610926 0.465980 0.812499 -0.003174
C10   C     C_R   0.397169 0.540052 0.186678 0.039808
C11   C     C_R   0.500455 0.502047 0.767514 -0.053327
C12   C     C_R   0.737519 0.499529 0.499795 0.524337
C13   C     C_R   0.505906 0.504263 0.233082 -0.050602
C14   C     C_R   0.394597 0.548376 0.813608 0.005403
C15   C     C_R   0.616944 0.473614 0.188228 -0.012520
C16   C     C_R   0.399874 0.560311 0.906959 0.003291
C17   C     C_R   0.618671 0.480666 0.094296 -0.018189
C18   C     C_R   0.508766 0.518852 0.953155 -0.030555
C19   C     C_R   0.509675 0.518826 0.047160 -0.029412
C20   C     C_R   0.617405 0.480980 0.905938 0.038193
C21   C     C_R   0.402154 0.559973 0.093852 0.074071
C22   C     C_R   0.303430 0.624906 0.954660 -0.082729
C23   C     C_R   0.305499 0.629105 0.047820 0.293613
C24   C     C_R   0.728682 0.461640 0.046427 -0.083571
C25   C     C_2   0.716268 0.409639 0.759874 0.309721
C26   C     C_2   0.276829 0.538587 0.234968 0.297059
C27   C     C_2   0.277560 0.575851 0.763223 0.214042
C28   C     C_2   0.728309 0.432373 0.241333 0.234679
C29   C     C_3   0.108454 0.722771 0.073693 0.021266
C30   C     C_3   0.038491 0.795112 0.148849 -0.221889
C31   C     C_3   0.898883 0.796398 0.134129 -0.470090
C32   C     C_3   0.901129 0.593780 0.913395 0.006496
C33   C     C_3   0.875297 0.676476 0.827603 -0.246852
C34   C     C_R   0.730171 0.468352 0.953847 0.292444
C35   C     C_3   0.943084 0.814426 0.827230 -0.429851
C36   C     C_2   0.348221 0.151599 0.376860 0.334907
C37   C     C_2   0.653459 0.847865 0.621874 0.319641
C38   C     C_2   0.636167 0.141311 0.632473 0.305003
C39   C     C_2   0.360089 0.857240 0.369186 0.285725
C40   C     C_R   0.065319 0.377215 0.518666 -0.066662
C41   C     C_R   0.934616 0.622826 0.482275 -0.103421
C42   C     C_R   0.937373 0.376383 0.517677 -0.108969
C43   C     C_R   0.062509 0.623728 0.483482 -0.135222
C44   C     C_R   0.871540 0.499274 0.499678 0.013221
Cu1   Cu    Cu3+1 0.500000 0.640660 0.500000 0.948587
Cu2   Cu    Cu3+1 0.500000 0.359340 0.500000 0.986660
H1    H     H_    0.231064 0.680878 0.919507 0.129936
H2    H     H_    0.750695 0.487621 0.301615 0.112116
H3    H     H_    0.075054 0.614288 0.068470 0.167283
H4    H     H_    0.089924 0.780669 0.010659 0.113966
H5    H     H_    0.059255 0.741384 0.213059 0.198342
H6    H     H_    0.070687 0.903853 0.153839 0.209314
H7    H     H_    0.875103 0.851552 0.071025 0.160559
H8    H     H_    0.852942 0.851235 0.189752 0.181047
H9    H     H_    0.863733 0.688815 0.132534 0.140927
H10   H     H_    0.002302 0.574922 0.918588 0.191116
H11   H     H_    0.874266 0.656890 0.971809 0.084924
H12   H     H_    0.816707 0.447295 0.079656 0.179602
H13   H     H_    0.906201 0.615262 0.769423 0.211933
H14   H     H_    0.774462 0.697727 0.821214 0.147984
H15   H     H_    0.912950 0.878393 0.884356 0.162517
H16   H     H_    0.921788 0.872238 0.764665 0.209114
H17   H     H_    0.044624 0.796548 0.831263 0.160280
H18   H     H_    0.383466 0.188797 0.313647 0.148726
H19   H     H_    0.619136 0.808667 0.684864 0.121653
H20   H     H_    0.702257 0.220754 0.617323 0.139853
H21   H     H_    0.289381 0.784168 0.386487 0.113842
H22   H     H_    0.114562 0.281363 0.533661 0.179699
H23   H     H_    0.885421 0.718633 0.467096 0.179031
H24   H     H_    0.890395 0.279998 0.531560 0.136308
H25   H     H_    0.109319 0.720244 0.469887 0.125698
H26   H     H_    0.740163 0.456825 0.696465 0.067712
H27   H     H_    0.269888 0.576965 0.302158 0.102903
H28   H     H_    0.279496 0.626884 0.698630 0.133157
N1    N     N_R   0.500000 0.852070 0.500000 -0.287983
N2    N     N_R   0.500000 0.147930 0.500000 -0.290118
O1    O     O_R   0.319640 0.618740 0.499990 -0.550777
O2    O     O_2   0.185838 0.485973 0.201677 -0.494174
O3    O     O_2   0.178448 0.535426 0.791608 -0.521872
O4    O     O_2   0.791653 0.332139 0.220998 -0.475801
O5    O     O_3   0.235768 0.726376 0.094267 -0.533743
O6    O     O_3   0.843589 0.462599 0.911337 -0.507869
O7    O     O_2   0.237973 0.162987 0.392726 -0.510275
O8    O     O_2   0.763771 0.838841 0.605713 -0.544138
O9    O     O_2   0.619190 0.108229 0.710082 -0.486224
O10   O     O_2   0.378584 0.882931 0.290666 -0.504755
O11   O     O_R   0.680360 0.381260 0.500010 -0.539012
O12   O     O_R   0.680360 0.618740 0.500010 -0.474852
O13   O     O_R   0.319640 0.381260 0.499990 -0.468714
O14   O     O_R   0.499970 0.618800 0.370260 -0.497422
O15   O     O_R   0.500030 0.381200 0.629740 -0.482986
O16   O     O_R   0.500030 0.618800 0.629740 -0.547931
O17   O     O_R   0.499970 0.381200 0.370260 -0.516157
O18   O     O_2   0.773370 0.306364 0.784864 -0.401919

loop_
_geom_bond_atom_site_label_1
_geom_bond_atom_site_label_2
_ccdc_geom_bond_type
C30   H5    S    
C1    O1    A    
C3    C6    A    
Cu2   N2    S    
C9    C25   S    
C6    N1    A    
Cu2   O13   S    
C29   H3    S    
Cu1   Cu2   S    
C26   O2    D    
C19   C21   A    
C18   C19   A    
C27   O3    D    
C30   C31   S    
C11   C14   A    
C36   O7    D    
C42   H24   S    
C26   H27   S    
C1    C2    S    
Cu1   O16   S    
C4    N1    A    
C33   C35   S    
C38   H20   S    
C37   H19   S    
C1    O13   A    
C37   O8    D    
C8    O16   A    
C14   C27   S    
C27   H28   S    
C20   C34   A    
C10   C26   S    
C40   C42   A    
C22   H1    S    
C25   O18   D    
C33   H13   S    
C5    C38   S    
C41   C43   A    
C42   C44   A    
C32   H11   S    
C29   H4    S    
C10   C21   A    
C7    O17   A    
C17   C24   A    
C12   O12   A    
C38   O9    D    
Cu1   O12   S    
C43   H25   S    
C25   H26   S    
Cu2   O15   S    
C7    O14   A    
C24   C34   A    
C29   O5    S    
C29   C30   S    
C3    N2    A    
C9    C20   A    
C2    C43   A    
C35   H15   S    
C8    O15   A    
C31   H7    S    
Cu1   O14   S    
C9    C11   A    
C16   C18   A    
C33   H14   S    
C13   C15   A    
C41   C44   A    
C14   C16   A    
C41   H23   S    
Cu2   O11   S    
C15   C17   A    
C30   H6    S    
C28   H2    S    
C16   C22   A    
C23   O5    S    
C12   O11   A    
C6    C39   S    
C39   H21   S    
C4    C5    A    
C10   C13   A    
C35   H17   S    
C32   O6    S    
Cu1   N1    S    
C32   C33   S    
C5    N2    A    
C21   C23   A    
C12   C44   S    
C15   C28   S    
Cu2   O17   S    
C3    C36   S    
C8    C11   S    
C17   C19   A    
C35   H16   S    
C18   C20   A    
C31   H8    S    
C28   O4    D    
C2    C40   A    
C7    C13   S    
C4    C37   S    
C24   H12   S    
C40   H22   S    
C22   C23   A    
Cu1   O1    S    
C34   O6    S    
C39   O10   D    
C31   H9    S    
C36   H18   S    
C32   H10   S    
