data_mof_unit_42559.cif
_audit_creation_date              2013-03-05T15:42:31-0500
_audit_creation_method            fapswitch 2.2
_symmetry_space_group_name_H-M    P1
_symmetry_Int_Tables_number       1
_space_group_crystal_system       triclinic
_cell_length_a                    7.065211
_cell_length_b                    14.65612
_cell_length_c                    16.382838
_cell_angle_alpha                 90.464507
_cell_angle_beta                  90.255972
_cell_angle_gamma                 90.602383
_cell_volume                      1696.25252972

loop_
_atom_site_label
_atom_site_type_symbol
_atom_site_description
_atom_site_fract_x
_atom_site_fract_y
_atom_site_fract_z
_atom_type_partial_charge
O1    O     O_R   0.494490 0.416160 0.413410 -0.553427
O2    O     O_R   0.823830 0.407240 0.585990 -0.525024
O3    O     O_R   0.994160 0.583840 0.586590 -0.541525
C1    C     C_R   0.655095 0.382989 0.611479 0.898160
O4    O     O_R   0.824200 0.405280 0.414020 -0.543429
O5    O     O_R   0.994530 0.581860 0.413390 -0.562921
C2    C     C_R   0.653764 0.384118 0.385972 0.838431
O6    O     O_R   0.494110 0.418140 0.586610 -0.536647
O7    O     O_3   0.660810 0.557940 0.500000 -0.287156
V1    V     V_3+5 0.935650 0.489250 0.500000 1.205258
O8    O     O_R   0.324250 0.592760 0.414010 -0.544113
C3    C     C_R   0.157338 0.612607 0.384668 0.772980
O9    O     O_R   0.323880 0.594720 0.585980 -0.545577
C4    C     C_R   0.156883 0.616973 0.614557 0.875617
V2    V     V_3+5 0.435660 0.510750 0.500000 1.199694
O10   O     O_3   0.160630 0.442060 0.500000 -0.256589
C5    C     C_3   0.981229 0.666743 0.744222 -0.011772
H1    H     H_    0.032260 0.614314 0.786932 0.143236
C6    C     C_3   0.946595 0.745611 0.806176 0.323318
H2    H     H_    0.820109 0.784322 0.786410 0.062568
C7    C     C_3   0.123564 0.793068 0.648215 0.416131
C8    C     C_3   0.322591 0.681501 0.745943 0.225810
C9    C     C_3   0.151153 0.689199 0.683247 -0.255258
H3    H     H_    0.306889 0.614545 0.776122 0.160910
C10   C     C_3   0.122412 0.811390 0.807453 -0.200539
C11   C     C_3   0.132319 0.863578 0.723898 0.207876
C12   C     C_3   0.307017 0.752254 0.817043 -0.023530
H4    H     H_    0.435044 0.796428 0.816823 0.114717
C13   C     C_2   0.018189 0.683954 0.258751 0.014440
C14   C     C_2   0.163569 0.674906 0.312584 0.233246
C15   C     C_2   0.044634 0.735663 0.180389 0.400178
C16   C     C_2   0.105697 0.824083 0.181354 0.295835
C17   C     C_2   0.775251 0.201955 0.777251 -0.063827
C18   C     C_2   0.613181 0.174379 0.812540 -0.199484
H5    H     H_    0.908001 0.175437 0.800244 0.142885
H6    H     H_    0.477607 0.196796 0.789414 0.110467
C19   C     C_2   0.788336 0.262389 0.704726 0.186760
C20   C     C_2   0.644460 0.316612 0.679448 -0.171491
H7    H     H_    0.511277 0.315410 0.711922 0.082149
C21   C     C_2   0.622267 0.167727 0.249838 0.073936
C22   C     C_2   0.631596 0.186532 0.168848 0.286000
C23   C     C_2   0.678651 0.234281 0.315743 -0.026401
C24   C     C_2   0.633322 0.323066 0.314099 -0.137768
H8    H     H_    0.740225 0.207087 0.371222 0.102058
H9    H     H_    0.549194 0.348279 0.263625 0.114803
O11   O     O_R   0.770850 0.076180 0.907410 -0.556331
O12   O     O_R   0.440600 0.088970 0.079950 -0.564350
O13   O     O_R   0.270430 0.912340 0.080550 -0.532744
C25   C     C_R   0.610892 0.110906 0.107521 0.782700
O14   O     O_R   0.441120 0.087010 0.907980 -0.551757
O15   O     O_R   0.270950 0.910370 0.907350 -0.547952
C26   C     C_R   0.609569 0.108658 0.880615 0.865924
O16   O     O_R   0.770320 0.078150 0.080620 -0.560252
O17   O     O_3   0.604200 0.936340 0.994000 -0.273219
V3    V     V_3+5 0.329300 0.004970 0.993950 1.197344
O18   O     O_R   0.941240 0.899420 0.907920 -0.550297
C27   C     C_R   0.109611 0.878901 0.878948 0.965561
O19   O     O_R   0.940720 0.901380 0.079890 -0.569265
C28   C     C_R   0.107762 0.879500 0.106638 0.866655
V4    V     V_3+5 0.829310 0.983370 0.993880 1.192209
O20   O     O_3   0.104280 0.052120 0.993920 -0.287735
I1    I     I_    0.825419 0.539114 0.749330 -0.408338
I2    I     I_    0.313540 0.849060 0.550522 -0.482297
I3    I     I_    0.368170 0.962022 0.728973 -0.330755
I4    I     I_    0.748097 0.618897 0.271230 -0.416564
O21   O     O_3   0.338623 0.710457 0.289342 -0.616670
C29   C     C_3   0.412113 0.770523 0.349785 0.306515
H10   H     H_    0.494833 0.733538 0.396419 0.060375
H11   H     H_    0.300319 0.811879 0.379109 0.075140
H12   H     H_    0.511747 0.818685 0.320081 0.119934
O22   O     O_3   0.984607 0.697604 0.106374 -0.652087
C30   C     C_3   0.048104 0.606717 0.098456 0.209687
H13   H     H_    0.202301 0.601006 0.112376 0.076874
H14   H     H_    0.024031 0.583679 0.034579 0.124680
H15   H     H_    0.965490 0.558847 0.136710 0.066653
O23   O     O_3   0.150327 0.867628 0.254208 -0.669066
C31   C     C_3   0.996561 0.921655 0.278650 0.139626
H16   H     H_    0.863333 0.880649 0.282288 0.047310
H17   H     H_    0.978245 0.980692 0.237230 0.080706
H18   H     H_    0.026695 0.949284 0.340625 0.129973
I5    I     I_    0.056440 0.253006 0.645590 -0.322754
I6    I     I_    0.534548 0.037108 0.291783 -0.470981
O24   O     O_3   0.706033 0.271056 0.145935 -0.653570
C32   C     C_3   0.646133 0.295592 0.066877 0.177359
H19   H     H_    0.490006 0.287968 0.059423 0.023084
H20   H     H_    0.721769 0.255399 0.019592 0.024875
H21   H     H_    0.682368 0.368544 0.057292 0.089851
O25   O     O_3   0.928440 0.709883 0.885837 -0.628245
C33   C     C_3   0.742258 0.706079 0.910955 0.247537
H22   H     H_    0.660622 0.662210 0.868116 0.117377
H23   H     H_    0.682916 0.775700 0.916024 0.093306
H24   H     H_    0.737643 0.674475 0.972173 0.133391
O26   O     O_3   0.936025 0.798700 0.616204 -0.655303
C34   C     C_3   0.912270 0.779931 0.531523 0.277082
H25   H     H_    0.769090 0.751610 0.519657 0.040270
H26   H     H_    0.013800 0.729936 0.507075 -0.000353
H27   H     H_    0.921028 0.844446 0.496613 0.102220
I7    I     I_    0.907642 0.963907 0.714604 -0.293804
O27   O     O_3   0.505642 0.664186 0.719117 -0.641520
C35   C     C_3   0.577239 0.725202 0.663678 0.232082
H28   H     H_    0.582678 0.796242 0.686822 0.105313
H29   H     H_    0.516584 0.715139 0.603462 0.087879
H30   H     H_    0.716877 0.699605 0.651717 0.159485
I8    I     I_    0.309830 0.684170 0.936191 -0.483752

loop_
_geom_bond_atom_site_label_1
_geom_bond_atom_site_label_2
_geom_bond_distance
_ccdc_geom_bond_type
O13   V3    2.013346 S    
C7    C11   1.608201 S    
O26   C34   1.421000 S    
C6    H2    1.111945 S    
C32   H21   1.109355 S    
C1    O6    1.317818 A    
O12   C25   1.318941 A    
O17   V4    1.726742 S    
C31   H16   1.113529 S    
C5    C9    1.598524 S    
C10   C27   1.530739 S    
C19   C20   1.361941 D    
C32   H20   1.111579 S    
O5    C3    1.320984 A    
C20   H7    1.083075 S    
O19   V4    2.021513 S    
V2    O10   2.179033 S    
C22   O24   1.395604 S    
O11   C26   1.314547 A    
C12   I8    2.199538 S    
O18   C27   1.319497 A    
C11   I3    2.193521 S    
C17   H5    1.086046 S    
O8    V2    2.021460 S    
O24   C32   1.411323 S    
O14   C26   1.310415 A    
O1    V2    2.023006 S    
C2    C24   1.478732 S    
C33   H23   1.109853 S    
O7    V1    2.196634 S    
C13   I4    2.135596 S    
O15   V3    2.013944 S    
O11   V4    2.016306 S    
C15   O22   1.393126 S    
O21   C29   1.413070 S    
O9    C4    1.314607 A    
C19   I5    2.136647 S    
C23   H8    1.086368 S    
C30   H15   1.107905 S    
C22   C25   1.495526 S    
O16   V4    2.026856 S    
C17   C18   1.344886 D    
C31   H17   1.112180 S    
C29   H10   1.108355 S    
C21   I6    2.126338 S    
C32   H19   1.113618 S    
C30   H14   1.108835 S    
C6    O25   1.415995 S    
O4    C2    1.319944 A    
C34   H27   1.110321 S    
O19   C28   1.301275 A    
C35   H30   1.077391 S    
C17   C19   1.490343 S    
O18   V4    2.030950 S    
V4    O20   2.179049 S    
C29   H11   1.109406 S    
C4    C9    1.539659 S    
O2    C1    1.311431 A    
O5    V1    2.013277 S    
C13   C14   1.359069 D    
C5    I1    2.162826 S    
O27   C35   1.374127 S    
C35   H29   1.082188 S    
C5    H1    1.105586 S    
O23   C31   1.408695 S    
C33   H24   1.108597 S    
C34   H26   1.104867 S    
C24   H9    1.085720 S    
C14   O21   1.392842 S    
O3    C4    1.321907 A    
C11   I7    2.180756 S    
O15   C27   1.307402 A    
C21   C22   1.359099 D    
C1    C20   1.486203 S    
O6    V2    2.015915 S    
C8    C12   1.558263 S    
O9    V2    2.030930 S    
C8    H3    1.107153 S    
C23   C24   1.343786 D    
O2    V1    2.017638 S    
O13   C28   1.315777 A    
O12   V3    2.015116 S    
C31   H18   1.108962 S    
O17   V3    2.196599 S    
C8    O27   1.392959 S    
C3    C14   1.499108 S    
O1    C2    1.304273 A    
C15   C16   1.361459 D    
C30   H13   1.116195 S    
C16   O23   1.382518 S    
O8    C3    1.307967 A    
C10   C12   1.581509 S    
C18   C26   1.479659 S    
O14   V3    2.017672 S    
C29   H12   1.108504 S    
C7    C9    1.644461 S    
C10   C11   1.574928 S    
O22   C30   1.415187 S    
C13   C15   1.507421 S    
O3    V1    2.013950 S    
V1    O10   1.740135 S    
C7    O26   1.426274 S    
C25   O16   1.306079 A    
V3    O20   1.740155 S    
C21   C23   1.498941 S    
C35   H28   1.105400 S    
C5    C6    1.554127 S    
C18   H6    1.083684 S    
O7    V2    1.727900 S    
C34   H25   1.105226 S    
C6    C10   1.564340 S    
C7    I2    2.248082 S    
O4    V1    2.015029 S    
O25   C33   1.380731 S    
C12   H4    1.106848 S    
C8    C9    1.590118 S    
C16   C28   1.474526 S    
C33   H22   1.104481 S    
