data_mof_unit_64611.cif
_audit_creation_date              2012-10-26T17:21:01-0400
_audit_creation_method            fapswitch 2.2
_symmetry_space_group_name_H-M    P1
_symmetry_Int_Tables_number       1
_space_group_crystal_system       triclinic
_cell_length_a                    18.877789
_cell_length_b                    18.767505
_cell_length_c                    18.792138
_cell_angle_alpha                 109.433803
_cell_angle_beta                  109.40078
_cell_angle_gamma                 109.35044
_cell_volume                      5139.62253301

loop_
_atom_site_label
_atom_site_type_symbol
_atom_type_description
_atom_site_fract_x
_atom_site_fract_y
_atom_site_fract_z
_atom_type_partial_charge
C1    C     C_R   0.119018 0.118927 0.500095 0.555951
C2    C     C_R   0.318544 0.321440 0.575354 -0.146860
C3    C     C_R   0.253802 0.260035 0.576792 -0.130989
C4    C     C_R   0.121913 0.003162 0.618930 0.542238
C5    C     C_R   0.185333 0.185366 0.499097 0.018384
C6    C     C_R   0.741386 0.919435 0.243495 0.006734
C7    C     C_R   0.676549 0.919377 0.179227 0.007391
C8    C     C_R   0.684794 0.999584 0.186463 -0.061659
C9    C     C_R   0.756604 0.079760 0.258086 -0.001794
C10   C     C_R   0.822530 0.079728 0.320995 0.000713
C11   C     C_R   0.813996 0.999611 0.314080 -0.058325
C12   C     C_R   0.261504 0.088238 0.761833 0.027951
C13   C     C_R   0.812798 0.734576 0.485615 -0.004044
C14   C     C_R   0.748711 0.670761 0.486494 -0.001735
C15   C     C_R   0.684334 0.685457 0.499265 -0.054144
C16   C     C_R   0.880802 0.880946 0.499670 0.613088
C17   C     C_R   0.682239 0.762650 0.510013 0.000146
C18   C     C_R   0.746203 0.826762 0.508978 0.008179
C19   C     C_R   0.812391 0.813226 0.498204 -0.059539
C20   C     C_R   0.501987 0.881291 0.883107 0.593794
C21   C     C_R   0.381616 0.002489 0.883494 0.520895
C22   C     C_R   0.499984 0.118854 0.118884 0.557313
C23   C     C_R   0.193118 0.007960 0.686680 0.007928
C24   C     C_R   0.618451 0.999879 0.118919 0.619592
C25   C     C_R   0.499647 0.618518 0.618922 0.556157
C26   C     C_R   0.381288 0.379558 0.498540 0.585972
C27   C     C_R   0.498029 0.379200 0.381359 0.619205
C28   C     C_R   0.881096 0.999811 0.381202 0.612224
C29   C     C_R   0.618267 0.619062 0.500265 0.600995
C30   C     C_R   0.583528 0.820228 0.824981 0.044176
C31   C     C_R   0.580196 0.754791 0.758335 -0.104220
C32   C     C_R   0.500860 0.686108 0.686189 0.001597
C33   C     C_R   0.423446 0.681531 0.679475 -0.139895
C34   C     C_R   0.189711 0.929784 0.677920 -0.122345
C35   C     C_R   0.425245 0.744793 0.745832 -0.154947
C36   C     C_R   0.504466 0.814450 0.818293 0.007259
C37   C     C_R   0.503930 0.259173 0.182486 -0.129750
C38   C     C_R   0.500395 0.320446 0.245455 -0.131261
C39   C     C_R   0.495953 0.309781 0.314536 0.013486
C40   C     C_R   0.272654 0.169405 0.769760 -0.095154
C41   C     C_R   0.493260 0.235230 0.319716 0.044445
C42   C     C_R   0.495068 0.173415 0.254611 -0.093309
C43   C     C_R   0.500400 0.185282 0.186600 0.018407
C44   C     C_R   0.337741 0.247109 0.846081 -0.108519
C45   C     C_R   0.250210 0.929151 0.743729 -0.137489
C46   C     C_R   0.393084 0.245749 0.915633 -0.108074
C47   C     C_R   0.385631 0.166873 0.908193 -0.093193
C48   C     C_R   0.321891 0.087367 0.830446 0.032131
C49   C     C_2   0.733233 0.835226 0.236177 0.641781
C50   C     C_2   0.599622 0.835019 0.105155 0.640824
C51   C     C_2   0.762479 0.163948 0.268004 0.639021
C52   C     C_2   0.900891 0.163731 0.393628 0.636473
C53   C     C_2   0.879236 0.717390 0.470295 0.637219
C54   C     C_2   0.748593 0.587896 0.473057 0.630839
C55   C     C_2   0.613359 0.776585 0.523107 0.632841
C56   C     C_R   0.316147 0.006885 0.819674 0.010991
C57   C     C_2   0.742869 0.907421 0.518425 0.646677
C58   C     C_2   0.670076 0.891084 0.900540 0.607780
C59   C     C_2   0.486070 0.217580 0.389369 0.595448
C60   C     C_2   0.236128 0.216163 0.329971 0.595483
C61   C     C_R   0.180952 0.172837 0.419799 -0.094786
C62   C     C_R   0.244551 0.234620 0.416730 0.051191
C63   C     C_R   0.314373 0.310023 0.496133 0.017952
Cu1   Cu    Cu3+1 0.999980 0.061790 0.561790 1.052406
Cu2   Cu    Cu3+1 0.000020 0.938210 0.438210 1.060481
Cu3   Cu    Cu3+1 0.438200 0.938230 0.000040 1.030941
Cu4   Cu    Cu3+1 0.561800 0.061850 0.000040 1.049117
Cu5   Cu    Cu3+1 0.438190 0.500100 0.438300 1.066164
Cu6   Cu    Cu3+1 0.561810 0.500080 0.561880 1.074023
H1    H     H_    0.491983 0.115336 0.256380 0.180100
H2    H     H_    0.832035 0.281679 0.284082 0.353125
H3    H     H_    0.949914 0.282888 0.493679 0.348942
H4    H     H_    0.004474 0.751574 0.515487 0.333597
H5    H     H_    0.683524 0.456899 0.402854 0.346872
H6    H     H_    0.553219 0.783130 0.593892 0.344737
H7    H     H_    0.738613 0.986842 0.468447 0.349847
H8    H     H_    0.743216 0.976492 0.029488 0.348641
H9    H     H_    0.232723 0.174154 0.716975 0.128360
H10   H     H_    0.639665 0.757080 0.762432 0.181757
H11   H     H_    0.361762 0.628272 0.623732 0.139338
H12   H     H_    0.345034 0.308648 0.851362 0.126439
H13   H     H_    0.364615 0.740391 0.739813 0.134297
H14   H     H_    0.507864 0.268644 0.129829 0.123189
H15   H     H_    0.503135 0.377491 0.241408 0.160968
H16   H     H_    0.507496 0.156692 0.458061 0.353881
H17   H     H_    0.442616 0.306136 0.975326 0.128204
H18   H     H_    0.429736 0.169014 0.964113 0.125921
H19   H     H_    0.156701 0.153228 0.200093 0.353614
H20   H     H_    0.246311 0.867571 0.734753 0.135093
H21   H     H_    0.127555 0.114280 0.360156 0.179556
H22   H     H_    0.371223 0.379075 0.636171 0.131182
H23   H     H_    0.139281 0.868501 0.620168 0.156193
H24   H     H_    0.257890 0.270060 0.638550 0.121015
H25   H     H_    0.730535 0.759764 0.291713 0.346043
H26   H     H_    0.524839 0.755904 0.975209 0.339527
O1    O     O_R   0.090150 0.142360 0.552170 -0.508062
O2    O     O_R   0.552200 0.590240 0.642450 -0.517059
O3    O     O_R   0.357640 0.409920 0.447920 -0.494305
O4    O     O_R   0.090180 0.037990 0.447810 -0.519205
O5    O     O_R   0.462030 0.409900 0.552280 -0.492672
O6    O     O_R   0.447800 0.409940 0.357730 -0.487585
O7    O     O_R   0.552190 0.409920 0.462090 -0.478337
O8    O     O_R   0.537970 0.590270 0.447900 -0.492741
O9    O     O_R   0.642360 0.590260 0.552260 -0.489369
O10   O     O_R   0.090170 0.052200 0.642360 -0.521458
O11   O     O_R   0.090200 0.947840 0.538010 -0.506073
O12   O     O_R   0.552230 0.962090 0.909900 -0.480266
O13   O     O_R   0.909820 0.962010 0.552190 -0.485149
O14   O     O_R   0.909850 0.857640 0.447830 -0.478183
O15   O     O_R   0.909800 0.052160 0.461990 -0.480028
O16   O     O_R   0.909830 0.947800 0.357640 -0.490345
O17   O     O_R   0.447850 0.857690 0.909890 -0.507673
O18   O     O_2   0.723088 0.780149 0.170350 -0.472758
O19   O     O_R   0.736913 0.819125 0.304380 -0.638986
O20   O     O_2   0.555227 0.783270 0.119278 -0.470283
O21   O     O_R   0.578387 0.814910 0.019694 -0.644460
O22   O     O_2   0.703367 0.177535 0.267738 -0.495205
O23   O     O_R   0.357630 0.947820 0.909860 -0.511970
O24   O     O_R   0.835628 0.227381 0.277763 -0.650546
O25   O     O_2   0.972811 0.175623 0.406571 -0.499448
O26   O     O_R   0.892101 0.228923 0.446829 -0.649129
O27   O     O_2   0.857139 0.655166 0.402449 -0.476020
O28   O     O_R   0.966500 0.771573 0.533657 -0.680792
O29   O     O_2   0.812683 0.589552 0.520292 -0.463428
O30   O     O_R   0.675374 0.508388 0.405947 -0.699571
O31   O     O_2   0.567619 0.792532 0.474606 -0.460035
O32   O     O_R   0.601417 0.771771 0.591199 -0.684591
O33   O     O_2   0.742156 0.953158 0.581873 -0.465672
O34   O     O_R   0.462000 0.052220 0.909860 -0.523143
O35   O     O_R   0.740450 0.930681 0.454667 -0.631277
O36   O     O_2   0.732837 0.913758 0.890180 -0.485505
O37   O     O_R   0.681049 0.930143 0.983822 -0.639993
O38   O     O_2   0.451761 0.246663 0.426762 -0.478703
O39   O     O_R   0.516609 0.164836 0.410482 -0.679446
O40   O     O_2   0.299935 0.246127 0.322889 -0.480124
O41   O     O_R   0.154372 0.161741 0.255292 -0.682477
O42   O     O_R   0.447770 0.037990 0.090190 -0.515209
O43   O     O_R   0.552150 0.142390 0.090190 -0.501044
O44   O     O_R   0.538000 0.947860 0.090220 -0.484614
O45   O     O_R   0.642370 0.052260 0.090230 -0.471329
O46   O     O_R   0.447810 0.590260 0.538090 -0.508150

loop_
_geom_bond_atom_site_label_1
_geom_bond_atom_site_label_2
_ccdc_geom_bond_type
C49   O18   D    
C37   C43   A    
H3    O26   S    
C41   C42   A    
C35   C36   A    
C9    C51   S    
Cu5   O8    S    
C12   C48   A    
C10   C52   S    
C1    O4    A    
C57   O33   D    
H25   O19   S    
Cu1   O10   S    
C39   C41   A    
Cu6   O7    S    
C24   O45   A    
C12   C23   A    
C62   C63   A    
C1    C5    S    
C18   C19   A    
C53   O27   D    
C1    O1    A    
C30   C31   A    
H5    O30   S    
C42   H1    S    
C29   O8    A    
C58   O36   D    
C60   C62   S    
C50   O20   D    
Cu4   O43   S    
Cu2   O16   S    
C8    C24   S    
C20   O17   A    
H7    O35   S    
Cu3   O44   S    
C22   C43   S    
C45   C56   A    
C58   O37   S    
Cu5   Cu6   S    
H4    O28   S    
C51   O24   S    
C15   C29   S    
C45   H20   S    
C9    C10   A    
C60   O41   S    
C50   O21   S    
C61   C62   A    
H16   O39   S    
C20   O12   A    
C25   C32   S    
C49   O19   S    
C24   O44   A    
C13   C14   A    
Cu4   O34   S    
C35   H13   S    
C44   C46   A    
C16   O14   A    
Cu1   O13   S    
C13   C53   S    
C28   O16   A    
C54   O30   S    
C13   C19   A    
C57   O35   S    
C7    C8    A    
Cu5   O6    S    
H19   O41   S    
C21   O23   A    
C44   H12   S    
C53   O28   S    
C27   C39   S    
C6    C11   A    
C4    C23   S    
C8    C9    A    
C28   O15   A    
Cu2   O4    S    
C4    O11   A    
C59   O38   D    
C29   O9    A    
H8    O37   S    
C47   H18   S    
C12   C40   A    
C26   C63   S    
C37   C38   A    
C52   O26   S    
C18   C57   S    
Cu1   O15   S    
C47   C48   A    
C22   O42   A    
C55   O31   D    
C61   H21   S    
H26   O21   S    
C23   C34   A    
Cu2   O14   S    
C17   C18   A    
C5    C61   A    
Cu5   O46   S    
C3    H24   S    
C34   C45   A    
C31   H10   S    
Cu4   O45   S    
C60   O40   D    
C21   O34   A    
C26   O3    A    
C52   O25   D    
C25   O2    A    
C14   C54   S    
C55   O32   S    
C51   O22   D    
C40   H9    S    
C42   C43   A    
Cu2   O11   S    
C2    C63   A    
Cu6   O9    S    
C48   C56   A    
C54   O29   D    
C46   C47   A    
C59   O39   S    
C38   H15   S    
C31   C32   A    
C25   O46   A    
C7    C50   S    
C3    C5    A    
C21   C56   S    
C33   H11   S    
C15   C17   A    
C6    C7    A    
C30   C36   A    
C4    O10   A    
C22   O43   A    
C27   O7    A    
H2    O24   S    
Cu1   Cu2   S    
C2    C3    A    
C32   C33   A    
Cu4   O12   S    
C38   C39   A    
Cu3   O42   S    
C11   C28   S    
C16   C19   S    
C17   C55   S    
C30   C58   S    
C33   C35   A    
C27   O6    A    
Cu3   Cu4   S    
Cu1   O1    S    
H6    O32   S    
C6    C49   S    
C2    H22   S    
Cu5   O3    S    
C10   C11   A    
C16   O13   A    
C20   C36   S    
Cu6   O5    S    
C40   C44   A    
Cu3   O23   S    
C41   C59   S    
C14   C15   A    
C37   H14   S    
Cu3   O17   S    
C26   O5    A    
C46   H17   S    
C34   H23   S    
Cu6   O2    S    
