data_mof_unit_8522.cif
_audit_creation_date              2012-12-10T19:47:25-0500
_audit_creation_method            fapswitch 2.2
_symmetry_space_group_name_H-M    P1
_symmetry_Int_Tables_number       1
_space_group_crystal_system       triclinic
_cell_length_a                    10.886767
_cell_length_b                    10.877456
_cell_length_c                    12.686838
_cell_angle_alpha                 91.558088
_cell_angle_beta                  91.329593
_cell_angle_gamma                 90.491454
_cell_volume                      1501.35596738

loop_
_atom_site_label
_atom_site_type_symbol
_atom_type_description
_atom_site_fract_x
_atom_site_fract_y
_atom_site_fract_z
_atom_type_partial_charge
C1    C     C_R   0.261896 0.503330 0.501894 0.791882
C2    C     C_R   0.738148 0.502428 0.497893 0.786145
C3    C     C_R   0.510214 0.871732 0.495530 -0.106956
C4    C     C_R   0.514474 0.128499 0.503929 -0.113949
C5    C     C_R   0.490393 0.937270 0.402467 0.046406
C6    C     C_R   0.543731 0.063430 0.596315 0.004678
C7    C     C_R   0.146712 0.489199 0.886185 -0.134381
C8    C     C_R   0.787166 0.602393 0.147707 -0.133191
C9    C     C_R   0.100836 0.463811 0.784170 -0.163907
C10   C     C_R   0.824276 0.599870 0.253751 -0.082738
C11   C     C_R   0.120152 0.547326 0.703575 0.132940
C12   C     C_R   0.881135 0.494838 0.293514 0.126494
C13   C     C_R   0.183149 0.658272 0.727052 -0.081724
C14   C     C_R   0.900708 0.393016 0.225566 -0.159900
C15   C     C_R   0.228271 0.683813 0.829378 -0.144344
C16   C     C_R   0.864864 0.396822 0.119260 -0.161270
C17   C     C_R   0.210053 0.599234 0.908846 -0.119725
C18   C     C_R   0.808695 0.501597 0.080241 -0.120817
C19   C     C_R   0.935345 0.521117 0.592245 -0.241220
C20   C     C_R   0.064719 0.497483 0.406985 -0.236868
C21   C     C_R   0.871695 0.507497 0.495204 -0.086144
C22   C     C_R   0.128353 0.508923 0.504068 -0.091415
C23   C     C_R   0.505433 0.261991 0.501764 0.792428
C24   C     C_R   0.502752 0.738174 0.498085 0.790006
C25   C     C_R   0.937577 0.498551 0.400783 -0.009122
C26   C     C_R   0.062577 0.524336 0.598044 -0.008526
C27   C     C_2   0.470430 0.458727 0.031671 -0.269184
C28   C     C_2   0.524713 0.539460 0.968050 -0.279200
C29   C     C_1   0.521406 0.526793 0.852621 0.223973
C30   C     C_1   0.476267 0.472111 0.147321 0.218871
C31   C     C_R   0.721082 0.256312 0.802942 -0.130353
C32   C     C_R   0.320858 0.804021 0.163214 -0.145850
C33   C     C_R   0.683775 0.201680 0.706367 -0.131059
C34   C     C_R   0.348610 0.839889 0.267547 -0.188194
C35   C     C_R   0.580050 0.123413 0.699517 0.016289
C36   C     C_R   0.467630 0.880498 0.296631 0.065058
C37   C     C_R   0.516756 0.096820 0.792869 0.480194
C38   C     C_R   0.559648 0.885995 0.220292 0.479980
C39   C     C_R   0.557034 0.150262 0.889452 -0.204882
C40   C     C_R   0.530440 0.847736 0.115604 -0.254198
C41   C     C_R   0.657389 0.231017 0.894168 -0.220644
C42   C     C_R   0.411458 0.809079 0.087399 -0.179808
C43   C     C_R   0.540548 0.935617 0.590311 -0.183987
C44   C     C_R   0.491645 0.064282 0.408308 -0.213091
Cu1   Cu    Cu3+1 0.492140 0.492110 0.395880 0.978558
Cu2   Cu    Cu3+1 0.507860 0.507890 0.604120 0.975298
H1    H     H_    0.686672 0.272573 0.969031 0.155029
H2    H     H_    0.390250 0.782607 0.006447 0.154247
H3    H     H_    0.195940 0.725236 0.666502 0.105720
H4    H     H_    0.947114 0.312446 0.254351 0.120687
H5    H     H_    0.276166 0.769720 0.846886 0.146337
H6    H     H_    0.882856 0.319707 0.066535 0.126077
H7    H     H_    0.885910 0.531571 0.665158 0.164415
H8    H     H_    0.114170 0.489253 0.333913 0.168299
H9    H     H_    0.573637 0.618197 0.002661 0.157643
H10   H     H_    0.420926 0.379945 0.996973 0.155223
H11   H     H_    0.800016 0.317625 0.807181 0.127983
H12   H     H_    0.228621 0.774004 0.140889 0.135558
H13   H     H_    0.735499 0.220672 0.636619 0.129112
H14   H     H_    0.276818 0.838967 0.325248 0.132170
H15   H     H_    0.510722 0.128229 0.961264 0.138841
H16   H     H_    0.599135 0.848075 0.055497 0.131193
H17   H     H_    0.563467 0.885637 0.660769 0.187837
H18   H     H_    0.472416 0.113039 0.336369 0.156639
H19   H     H_    0.244070 0.618757 0.988234 0.133089
H20   H     H_    0.782906 0.504906 0.997502 0.129136
H21   H     H_    0.131686 0.424382 0.947960 0.130091
H22   H     H_    0.743661 0.683272 0.117463 0.125217
H23   H     H_    0.048237 0.380382 0.768163 0.122331
H24   H     H_    0.811226 0.680409 0.304237 0.144010
N1    N     N_1   0.480320 0.480250 0.239400 -0.157201
N2    N     N_1   0.519680 0.519750 0.760600 -0.154414
O1    O     O_R   0.313000 0.493330 0.412070 -0.585428
O2    O     O_R   0.687000 0.506670 0.587930 -0.589280
O3    O     O_R   0.326280 0.506660 0.587930 -0.568997
O4    O     O_R   0.673720 0.493340 0.412070 -0.572137
O5    O     O_R   0.493370 0.312980 0.412070 -0.583769
O6    O     O_R   0.506630 0.687020 0.587930 -0.584753
O7    O     O_R   0.506650 0.326310 0.587930 -0.576000
O8    O     O_R   0.493350 0.673690 0.412070 -0.568593
O9    O     O_3   0.425428 0.007623 0.793266 -0.645008
C45   C     C_3   0.312349 0.055867 0.757230 0.046985
H25   H     H_    0.260507 0.979029 0.716812 0.169024
H26   H     H_    0.322231 0.129011 0.697853 0.133121
C46   C     C_3   0.238208 0.104183 0.850602 -0.355582
H27   H     H_    0.245127 0.039169 0.916591 0.230049
H28   H     H_    0.276719 0.194610 0.878514 0.204271
C47   C     C_3   0.102956 0.118975 0.819525 -0.932258
H29   H     H_    0.093734 0.172048 0.746325 0.252912
H30   H     H_    0.054524 0.168242 0.883902 0.254674
H31   H     H_    0.058929 0.027250 0.805744 0.260899
O10   O     O_3   0.678545 0.919147 0.252790 -0.631787
C48   C     C_3   0.731956 0.007652 0.187333 0.039395
H32   H     H_    0.765102 0.085465 0.239338 0.174547
H33   H     H_    0.666973 0.048275 0.128799 0.121727
C49   C     C_3   0.842467 0.951586 0.131530 -0.333290
H34   H     H_    0.904085 0.907923 0.190471 0.227605
H35   H     H_    0.810700 0.879764 0.073272 0.201197
C50   C     C_3   0.915373 0.048152 0.073800 -0.942457
H36   H     H_    0.953856 0.118350 0.130797 0.249532
H37   H     H_    0.992719 0.003406 0.032552 0.263933
H38   H     H_    0.855739 0.093237 0.014382 0.261646

loop_
_geom_bond_atom_site_label_1
_geom_bond_atom_site_label_2
_ccdc_geom_bond_type
C5    C36   S    
C48   H32   S    
Cu1   N1    S    
C32   H12   S    
C30   N1    T    
C43   H17   S    
C39   C41   A    
C46   H27   S    
C44   H18   S    
C3    C43   A    
Cu1   O4    S    
C28   C29   S    
C19   C21   A    
C9    H23   S    
Cu2   O7    S    
C20   C25   A    
C49   C50   S    
C38   O10   S    
C40   H16   S    
C6    C35   S    
Cu1   O1    S    
C19   C26   A    
C48   H33   S    
C24   O8    A    
C7    C17   A    
C49   H35   S    
C31   C33   A    
C15   H5    S    
Cu2   N2    S    
C2    O2    A    
C29   N2    T    
C19   H7    S    
C40   C42   A    
C1    C22   S    
C33   H13   S    
C27   C30   S    
C34   H14   S    
C37   O9    S    
C3    C24   S    
Cu2   O3    S    
C28   H9    S    
O9    C45   S    
C46   H28   S    
C39   H15   S    
C1    O3    A    
C20   H8    S    
Cu2   O6    S    
C4    C23   S    
C27   H10   S    
C4    C44   A    
C11   C26   S    
Cu1   Cu2   S    
C8    C18   A    
C32   C34   A    
C50   H36   S    
C47   H31   S    
C49   H34   S    
C2    C21   S    
C41   H1    S    
C42   H2    S    
C23   O5    A    
C9    C11   A    
C10   C12   A    
C13   H3    S    
C10   H24   S    
C4    C6    A    
C50   H37   S    
C5    C44   A    
C20   C22   A    
C8    H22   S    
C48   C49   S    
C45   H26   S    
C6    C43   A    
C13   C15   A    
C14   C16   A    
Cu2   O2    S    
C2    O4    A    
C46   C47   S    
C24   O6    A    
C15   C17   A    
C21   C25   A    
C31   C41   A    
C35   C37   A    
C8    C10   A    
C16   H6    S    
C47   H30   S    
C3    C5    A    
C18   H20   S    
C45   C46   S    
C17   H19   S    
C12   C25   S    
C1    O1    A    
C31   H11   S    
C36   C38   A    
C12   C14   A    
C37   C39   A    
C38   C40   A    
C11   C13   A    
C14   H4    S    
O10   C48   S    
C33   C35   A    
Cu1   O8    S    
C34   C36   A    
C7    H21   S    
C7    C9    A    
C50   H38   S    
C47   H29   S    
C16   C18   A    
C45   H25   S    
C22   C26   A    
C27   C28   D    
C32   C42   A    
Cu1   O5    S    
C23   O7    A    
