data_mof_unit_66389.cif
_audit_creation_date              2012-12-11T17:02:30-0500
_audit_creation_method            fapswitch 2.2
_symmetry_space_group_name_H-M    P1
_symmetry_Int_Tables_number       1
_space_group_crystal_system       triclinic
_cell_length_a                    8.243972
_cell_length_b                    14.956799
_cell_length_c                    16.411363
_cell_angle_alpha                 97.623985
_cell_angle_beta                  93.210309
_cell_angle_gamma                 97.809125
_cell_volume                      1981.43424967

loop_
_atom_site_label
_atom_site_type_symbol
_atom_type_description
_atom_site_fract_x
_atom_site_fract_y
_atom_site_fract_z
_atom_type_partial_charge
Ba1   Ba    Ba6+2 0.163630 0.544320 0.462600 1.754202
Ba2   Ba    Ba6+2 0.646550 0.455670 0.537340 1.799033
C1    C     C_3   0.392522 0.772507 0.161254 -0.251883
C2    C     C_3   0.413070 0.742759 0.245909 0.820277
C3    C     C_3   0.518310 0.739361 0.664851 0.855390
C4    C     C_3   0.484717 0.837181 0.685199 0.632636
C5    C     C_3   0.837402 0.206377 0.710798 0.280818
C6    C     C_3   0.800157 0.112026 0.736557 1.109985
C7    C     C_3   0.369884 0.255120 0.751557 0.302136
C8    C     C_3   0.376998 0.224656 0.836267 -0.263119
C9    C     C_R   0.646081 0.827917 0.446965 0.040318
C10   C     C_R   0.888549 0.791622 0.518838 0.078855
C11   C     C_R   0.070569 0.233038 0.520806 -0.317405
C12   C     C_3   0.920073 0.789678 0.260236 0.295988
C13   C     C_R   0.165336 0.171733 0.548961 0.011609
C14   C     C_R   0.104411 0.078987 0.539661 -0.046172
C15   C     C_R   0.947401 0.044652 0.499344 -0.002027
C16   C     C_R   0.857458 0.107397 0.463158 -0.106909
C17   C     C_R   0.878518 0.949753 0.492617 0.043961
C18   C     C_R   0.719844 0.919912 0.451300 -0.122491
C19   C     C_R   0.639637 0.981700 0.413416 -0.116902
C20   C     C_R   0.708496 0.071833 0.416090 0.601003
C21   C     C_R   0.959389 0.883642 0.527361 -0.045751
C22   C     C_R   0.733717 0.764803 0.478238 -0.197298
C23   C     C_3   0.019075 0.884487 0.280003 -0.380634
C24   C     C_R   0.920708 0.203009 0.475360 0.046760
C25   C     C_R   0.625829 0.537804 0.268742 0.306309
C26   C     C_R   0.471433 0.489389 0.241161 -0.025336
C27   C     C_R   0.416920 0.480867 0.157592 -0.255393
C28   C     C_R   0.518537 0.519897 0.100952 0.222791
C29   C     C_R   0.677938 0.563488 0.129200 0.493859
C30   C     C_R   0.732301 0.571349 0.212772 -0.049538
C31   C     C_R   0.383491 0.515789 0.853397 -0.111110
C32   C     C_R   0.333171 0.509720 0.769845 0.022335
C33   C     C_R   0.277780 0.475650 0.907922 0.257933
C34   C     C_3   0.769400 0.346025 0.286960 0.377530
C35   C     C_R   0.180139 0.462486 0.739343 -0.198738
C36   C     C_R   0.070047 0.427433 0.792514 -0.000092
C37   C     C_R   0.119125 0.433022 0.876687 -0.149084
C38   C     C_3   0.750083 0.322834 0.193371 1.260645
C39   C     C_3   0.016793 0.668960 0.727199 1.254569
C40   C     C_3   0.926228 0.687032 0.804729 -0.114193
C41   C     C_3   0.252809 0.268616 0.351873 0.354061
C42   C     C_3   0.212755 0.166331 0.323994 -0.284000
H1    H     H_    0.982198 0.752733 0.841709 0.096392
H2    H     H_    0.933811 0.631431 0.842849 0.064015
H3    H     H_    0.795413 0.690744 0.788510 0.119627
H4    H     H_    0.173370 0.130500 0.375952 0.015843
H5    H     H_    0.322954 0.139271 0.300711 0.195629
H6    H     H_    0.412357 0.716511 0.112884 0.092639
H7    H     H_    0.440452 0.708393 0.608335 -0.108010
H8    H     H_    0.483534 0.833439 0.157192 0.130064
H9    H     H_    0.970447 0.219865 0.701610 -0.068474
H10   H     H_    0.667958 0.097177 0.747159 0.027934
H11   H     H_    0.243405 0.269126 0.737043 -0.052256
H12   H     H_    0.344850 0.278951 0.882941 0.090259
H13   H     H_    0.864937 0.773244 0.317777 0.042823
H14   H     H_    0.522177 0.960936 0.379075 0.134402
H15   H     H_    0.076253 0.901309 0.562473 0.078021
H16   H     H_    0.183792 0.035596 0.563649 0.077470
H17   H     H_    0.297018 0.442929 0.137137 0.180680
H18   H     H_    0.822363 0.791766 0.211497 0.127531
H19   H     H_    0.034075 0.404934 0.917843 0.137427
H20   H     H_    0.111147 0.886693 0.332477 0.150083
H21   H     H_    0.082702 0.903027 0.225431 0.155568
H22   H     H_    0.654030 0.366172 0.309242 -0.078043
H23   H     H_    0.871207 0.403362 0.303803 -0.024692
N1    N     N_2   0.468870 0.514860 0.015372 -0.167891
N2    N     N_2   0.323935 0.479221 0.993886 -0.202302
O1    O     O_2   0.162570 0.722330 0.548140 -0.514574
O2    O     O_3   0.314417 0.309725 0.286086 -0.580277
O3    O     O_3   0.022332 0.727043 0.229721 -0.595530
O4    O     O_2   0.647720 0.277620 0.451840 -0.406751
O5    O     O_3   0.919570 0.391090 0.454510 -0.497595
O6    O     O_3   0.416180 0.333440 0.599870 -0.508454
O7    O     O_3   0.802863 0.268716 0.320330 -0.571098
O8    O     O_3   0.378690 0.546410 0.598100 -0.474629
O9    O     O_3   0.838770 0.379270 0.642240 -0.457396
O10   O     O_2   0.735911 0.439039 0.788266 -0.464344
O11   O     O_3   0.792625 0.271097 0.772410 -0.627360
O12   O     O_3   0.890730 0.608900 0.545420 -0.382226
O13   O     O_3   0.431610 0.453580 0.401830 -0.432795
O14   O     O_2   0.628250 0.544210 0.698290 -0.409065
O15   O     O_3   0.487311 0.693010 0.732636 -0.585305
O16   O     O_2   0.503270 0.173180 0.542789 -0.471009
O17   O     O_3   0.412809 0.186369 0.693199 -0.600525
O18   O     O_3   0.394120 0.666550 0.400060 -0.450580
O19   O     O_2   0.308401 0.826498 0.459848 -0.526161
O20   O     O_3   0.004383 0.740054 0.679757 -0.607590
O21   O     O_3   0.383240 0.812945 0.306564 -0.623669
O22   O     O_2   0.182040 0.455740 0.301680 -0.466274
O23   O     O_3   0.971530 0.620720 0.357690 -0.434330
O24   O     O_2   0.064571 0.556374 0.211762 -0.464305
P1    P     P_3+3 0.987060 0.708150 0.571770 1.155554
P2    P     P_3+3 0.349540 0.428350 0.313090 1.099451
P3    P     P_3+3 0.945656 0.618182 0.250950 1.104628
P4    P     P_3+3 0.823240 0.291840 0.428170 1.097542
P5    P     P_3+3 0.859949 0.380352 0.749423 1.032300
P6    P     P_3+3 0.432556 0.784778 0.404490 0.997853
P7    P     P_3+3 0.454157 0.574645 0.701331 1.085953
P8    P     P_3+3 0.374439 0.215158 0.594727 0.954723
H24   H     H_    0.325294 0.680025 0.247646 0.045615
F1    F     F_    0.619687 0.253871 0.170108 -0.639068
H25   H     H_    0.726450 0.383439 0.165107 -0.471712
F2    F     F_    0.892309 0.294876 0.164686 -0.655339
F3    F     F_    0.178589 0.670955 0.752101 -0.780233
F4    F     F_    0.954300 0.583257 0.686928 -0.716558
H26   H     H_    0.139420 0.295293 0.369891 -0.041913
H27   H     H_    0.345222 0.280914 0.405467 0.046119
H28   H     H_    0.267253 0.789648 0.149905 0.117190
H29   H     H_    0.112258 0.152114 0.274035 0.150270
F5    F     F_    0.570824 0.723948 0.257413 -0.828808
F6    F     F_    0.680255 0.740706 0.649490 -0.764287
F7    F     F_    0.584002 0.881190 0.753484 -0.620918
H30   H     H_    0.510185 0.874399 0.631973 -0.061779
H31   H     H_    0.353976 0.837676 0.698070 -0.022118
H32   H     H_    0.935941 0.935211 0.297561 0.079379
H33   H     H_    0.765249 0.206849 0.651665 0.007452
F8    F     F_    0.836804 0.046764 0.675312 -0.720920
F9    F     F_    0.893255 0.108164 0.808450 -0.647661
H34   H     H_    0.457842 0.318801 0.753936 0.073116
H35   H     H_    0.502693 0.210973 0.853202 0.157695
H36   H     H_    0.288395 0.161651 0.836098 0.177592
H37   H     H_    0.677477 0.694613 0.474801 0.127804
H38   H     H_    0.119450 0.304824 0.529708 0.053643
F10   F     F_    0.626169 0.121652 0.369654 -0.686055
H39   H     H_    0.502917 0.553359 0.875481 0.123966
F11   F     F_    0.780201 0.597282 0.075050 -0.673964
F12   F     F_    0.675879 0.547956 0.349918 -0.704113
H40   H     H_    0.142656 0.458191 0.674518 0.099779

loop_
_geom_bond_atom_site_label_1
_geom_bond_atom_site_label_2
_ccdc_geom_bond_type
C42   H5    S    
Ba1   O18   S    
C39   O20   S    
C32   C35   A    
Ba1   O8    S    
C39   C40   S    
O10   P5    D    
C17   C21   A    
C17   C18   A    
C16   C24   A    
C22   H37   S    
C36   P5    S    
C34   H23   S    
C5    C6    S    
C21   H15   S    
C10   C21   A    
C35   C36   A    
C26   P2    S    
Ba1   O5    S    
C26   C27   A    
O1    P1    D    
C14   H16   S    
C28   C29   A    
C34   H22   S    
C20   F10   S    
O2    P2    S    
C1    H28   S    
Ba1   O12   S    
C13   C14   A    
C12   H18   S    
C9    C22   A    
C31   H39   S    
C35   H40   S    
O8    P7    S    
C9    P6    S    
Ba1   Ba2   S    
C40   H2    S    
O20   P1    S    
C4    F7    S    
C34   O7    S    
C15   C17   A    
Ba2   P4    S    
N1    N2    D    
C2    H24   S    
O9    P5    S    
C32   P7    S    
C7    H11   S    
C8    H12   S    
C7    C8    S    
O18   P6    S    
Ba2   O5    S    
C41   H26   S    
O11   P5    S    
C2    F5    S    
Ba1   O22   S    
C19   C20   A    
C5    H33   S    
C10   P1    S    
Ba2   O14   S    
C29   F11   S    
C5    O11   S    
C1    H6    S    
C31   C32   A    
O5    P4    S    
C2    O21   S    
O23   P3    S    
C36   C37   A    
C27   H17   S    
C9    C18   A    
C39   F3    S    
O15   P7    S    
C34   C38   S    
C23   H21   S    
C8    H36   S    
C6    H10   S    
C3    O15   S    
C14   C15   A    
O7    P4    S    
C23   H20   S    
C33   C37   A    
C41   C42   S    
C27   C28   A    
Ba2   O9    S    
C7    O17   S    
C38   H25   S    
C7    H34   S    
C29   C30   A    
Ba1   P2    S    
C15   C16   A    
C13   P8    S    
C4    H31   S    
Ba2   O4    S    
C30   P3    S    
O4    P4    D    
Ba1   O23   S    
O14   P7    D    
C11   C13   A    
C25   F12   S    
C11   C24   A    
Ba2   O13   S    
C5    H9    S    
C1    C2    S    
O21   P6    S    
O16   P8    D    
C6    F9    S    
C12   H13   S    
C41   O2    S    
O13   P2    S    
C39   F4    S    
C3    F6    S    
C25   C30   A    
C16   C20   A    
C12   O3    S    
C8    H35   S    
C23   H32   S    
Ba1   P1    S    
C1    H8    S    
O24   P3    D    
C37   H19   S    
C10   C22   A    
Ba1   O1    S    
Ba1   O13   S    
C11   H38   S    
C19   H14   S    
Ba2   O8    S    
C38   F1    S    
O12   P1    S    
C3    C4    S    
C31   C33   A    
C40   H3    S    
C12   C23   S    
C4    H30   S    
O19   P6    D    
C24   P4    S    
O22   P2    D    
O3    P3    S    
C42   H29   S    
C18   C19   A    
C33   N2    S    
C25   C26   A    
O6    P8    S    
C3    H7    S    
Ba2   O12   S    
C41   H27   S    
O17   P8    S    
C40   H1    S    
C28   N1    S    
Ba2   O6    S    
C42   H4    S    
C6    F8    S    
C38   F2    S    
