data_mof_unit_14222.cif
_audit_creation_date              2012-12-10T16:32:38-0500
_audit_creation_method            fapswitch 2.2
_symmetry_space_group_name_H-M    P1
_symmetry_Int_Tables_number       1
_space_group_crystal_system       triclinic
_cell_length_a                    16.897939
_cell_length_b                    16.926775
_cell_length_c                    16.845653
_cell_angle_alpha                 66.217363
_cell_angle_beta                  66.37281
_cell_angle_gamma                 65.429988
_cell_volume                      3849.41719677

loop_
_atom_site_label
_atom_site_type_symbol
_atom_type_description
_atom_site_fract_x
_atom_site_fract_y
_atom_site_fract_z
_atom_type_partial_charge
C1    C     C_R   0.583630 0.044560 0.586159 0.039454
C2    C     C_R   0.821325 0.560584 0.043290 0.859837
C3    C     C_R   0.436067 0.967676 0.178554 0.964938
C4    C     C_R   0.562599 0.035939 0.820875 0.928636
C5    C     C_R   0.569057 0.822615 0.024313 0.968941
C6    C     C_R   0.439481 0.178645 0.956250 0.863091
C7    C     C_R   0.032606 0.563893 0.821423 0.966160
C8    C     C_R   0.963107 0.437992 0.179067 0.919296
C9    C     C_R   0.820706 0.033601 0.563805 0.909641
C10   C     C_R   0.178205 0.969554 0.435126 0.944030
C11   C     C_R   0.539417 0.017459 0.544933 0.158183
C12   C     C_R   0.417425 0.939474 0.419643 0.052957
C13   C     C_R   0.460866 0.964340 0.463456 0.161116
C14   C     C_R   0.051096 0.536412 0.531116 0.159995
C15   C     C_R   0.004903 0.457214 0.444128 0.161887
C16   C     C_R   0.557558 0.536531 0.010842 0.155907
C17   C     C_R   0.465974 0.444480 0.982392 0.156188
C18   C     C_R   0.486793 0.082982 0.487422 -0.222464
C19   C     C_R   0.513792 0.898667 0.520746 -0.222771
C20   C     C_R   0.118000 0.495321 0.464758 -0.219494
C21   C     C_R   0.938743 0.495988 0.512079 -0.201173
C22   C     C_R   0.466947 0.576402 0.007607 -0.191174
C23   C     C_R   0.071466 0.581185 0.577498 0.055582
C24   C     C_R   0.553980 0.400988 0.993686 -0.201845
C25   C     C_R   0.447645 0.056501 0.447137 -0.169655
C26   C     C_R   0.552771 0.925194 0.561388 -0.166863
C27   C     C_R   0.426275 0.535400 0.984058 -0.190755
C28   C     C_R   0.601494 0.448747 0.999537 -0.203267
C29   C     C_R   0.094681 0.457263 0.420407 -0.188801
C30   C     C_R   0.961546 0.535984 0.554638 -0.170152
C31   C     C_R   0.540232 0.055059 0.673664 0.066644
C32   C     C_R   0.457977 0.937602 0.329435 0.078111
C33   C     C_R   0.070394 0.672084 0.538556 0.055010
C34   C     C_R   0.981539 0.410294 0.402559 0.030623
C35   C     C_R   0.992723 0.316460 0.438551 0.059594
C36   C     C_R   0.673375 0.540395 0.071696 0.122913
C37   C     C_R   0.318670 0.419319 0.001182 0.056430
C38   C     C_R   0.327082 0.939106 0.459497 0.053640
C39   C     C_R   0.674262 0.045342 0.544297 0.070003
C40   C     C_R   0.460230 0.326685 0.925836 0.123332
C41   C     C_R   0.582042 0.682918 0.995402 0.055454
C42   C     C_R   0.952817 0.458141 0.323675 0.072333
C43   C     C_R   0.069421 0.541165 0.669078 0.073733
C44   C     C_R   0.591796 0.056811 0.722245 -0.204568
C45   C     C_R   0.604661 0.586564 0.026043 0.054279
C46   C     C_R   0.401635 0.960562 0.274175 -0.212207
C47   C     C_R   0.042870 0.726179 0.597300 -0.190708
C48   C     C_R   0.965298 0.274415 0.399083 -0.189365
C49   C     C_R   0.721863 0.590200 0.074063 -0.167191
C50   C     C_R   0.273567 0.391567 0.965978 -0.175273
C51   C     C_R   0.273281 0.961365 0.401726 -0.189457
C52   C     C_R   0.722226 0.051795 0.594002 -0.193236
C53   C     C_R   0.409566 0.278041 0.925272 -0.165907
C54   C     C_R   0.609023 0.726851 0.032524 -0.174422
C55   C     C_R   0.944602 0.408823 0.277404 -0.203808
C56   C     C_R   0.415049 0.396530 0.969620 0.054052
C57   C     C_R   0.042255 0.597783 0.725086 -0.210923
C58   C     C_R   0.677322 0.067597 0.677879 0.344057
C59   C     C_R   0.308678 0.986452 0.309146 0.341390
C60   C     C_R   0.015445 0.690549 0.689728 0.342771
C61   C     C_R   0.934545 0.323566 0.322908 0.351773
C62   C     C_R   0.677638 0.679633 0.075345 0.331402
C63   C     C_R   0.319886 0.322279 0.924332 0.332455
C64   C     C_3   0.439618 0.064772 0.713546 -0.822127
C65   C     C_3   0.559648 0.906355 0.295686 -0.860946
C66   C     C_3   0.096666 0.710100 0.436449 -0.814632
C67   C     C_R   0.973417 0.178168 0.433183 0.918861
C68   C     C_3   0.034706 0.262365 0.517038 -0.818413
C69   C     C_3   0.686000 0.444378 0.131977 -0.922481
C70   C     C_3   0.264307 0.467992 0.073950 -0.885053
C71   C     C_3   0.290215 0.916070 0.561638 -0.815311
C72   C     C_3   0.718002 0.039451 0.447420 -0.815034
C73   C     C_3   0.556293 0.312437 0.866044 -0.924050
C74   C     C_3   0.534301 0.738611 0.921743 -0.886316
C75   C     C_3   0.931998 0.560269 0.289987 -0.822350
C76   C     C_3   0.101130 0.439661 0.703585 -0.865023
C77   C     C_3   0.696400 0.174281 0.714248 0.095858
C78   C     C_R   0.031843 0.821725 0.564482 0.950550
C79   C     C_3   0.770663 0.215627 0.643708 -0.308647
C80   C     C_3   0.745327 0.315848 0.634884 -1.008751
C81   C     C_3   0.253575 0.123023 0.211038 0.137135
C82   C     C_3   0.182334 0.183913 0.269733 -0.366905
C83   C     C_3   0.186092 0.280745 0.226165 -0.984653
C84   C     C_3   0.874981 0.745789 0.782029 0.128610
C85   C     C_3   0.818409 0.817123 0.718649 -0.359732
C86   C     C_3   0.719764 0.818920 0.758250 -0.987970
C87   C     C_3   0.812064 0.320902 0.297925 0.120011
C88   C     C_3   0.758093 0.286177 0.395843 -0.408759
C89   C     C_R   0.177509 0.431207 0.975144 0.964481
C90   C     C_3   0.658166 0.309516 0.404254 -0.945153
C91   C     C_3   0.759554 0.740898 0.106617 0.165735
C92   C     C_3   0.742791 0.815286 0.145757 -0.386424
C93   C     C_3   0.825939 0.847589 0.110060 -0.990283
C94   C     C_3   0.256963 0.239777 0.895716 0.167962
C95   C     C_3   0.181066 0.256308 0.858336 -0.389203
C96   C     C_3   0.147314 0.173784 0.897111 -0.990659
H1    H     H_    0.593784 0.873945 0.605283 0.137737
H2    H     H_    0.426748 0.640478 0.021737 0.153415
H3    H     H_    0.869610 0.495128 0.532027 0.140508
H4    H     H_    0.187740 0.493358 0.447053 0.142717
H5    H     H_    0.404404 0.087823 0.661429 0.228165
H6    H     H_    0.429290 0.998954 0.759954 0.252368
H7    H     H_    0.405408 0.117889 0.749233 0.233361
H8    H     H_    0.585599 0.963226 0.245515 0.256859
H9    H     H_    0.592943 0.877160 0.350440 0.231881
H10   H     H_    0.578124 0.851129 0.266321 0.249982
H11   H     H_    0.132758 0.656913 0.401167 0.224073
H12   H     H_    0.406936 0.107884 0.402970 0.133742
H13   H     H_    0.035233 0.753815 0.413174 0.251995
H14   H     H_    0.144518 0.749054 0.414621 0.241824
H15   H     H_    0.093534 0.204024 0.499554 0.241640
H16   H     H_    0.061517 0.300410 0.535011 0.229555
H17   H     H_    0.983080 0.238984 0.579037 0.250150
H18   H     H_    0.626595 0.421374 0.151141 0.245104
H19   H     H_    0.748381 0.397203 0.100038 0.250709
H20   H     H_    0.690717 0.441699 0.196641 0.230953
H21   H     H_    0.305855 0.456881 0.116645 0.239380
H22   H     H_    0.235187 0.541487 0.043863 0.251749
H23   H     H_    0.909278 0.566672 0.606290 0.134261
H24   H     H_    0.206731 0.441965 0.120380 0.248514
H25   H     H_    0.254993 0.864292 0.586948 0.243797
H26   H     H_    0.344323 0.886103 0.595867 0.226238
H27   H     H_    0.243383 0.978085 0.582308 0.250271
H28   H     H_    0.768689 0.971874 0.446192 0.250305
H29   H     H_    0.669632 0.049237 0.412920 0.226936
H30   H     H_    0.749813 0.094232 0.405275 0.247353
H31   H     H_    0.578443 0.373263 0.842396 0.246474
H32   H     H_    0.603317 0.252732 0.901179 0.245535
H33   H     H_    0.559863 0.301742 0.803866 0.232097
H34   H     H_    0.146772 0.425897 0.369181 0.143035
H35   H     H_    0.546033 0.698144 0.877909 0.240327
H36   H     H_    0.460644 0.767649 0.951061 0.251615
H37   H     H_    0.560663 0.796288 0.876688 0.246216
H38   H     H_    0.898359 0.590625 0.347100 0.226857
H39   H     H_    0.995495 0.578640 0.249528 0.247784
H40   H     H_    0.882950 0.591340 0.249624 0.234009
H41   H     H_    0.043770 0.413517 0.751825 0.255744
H42   H     H_    0.132728 0.406381 0.648700 0.232507
H43   H     H_    0.154465 0.421615 0.735619 0.255038
H44   H     H_    0.689256 0.178938 0.780668 0.171222
H45   H     H_    0.672033 0.415229 0.997835 0.155944
H46   H     H_    0.629984 0.214420 0.698573 0.106123
H47   H     H_    0.834936 0.178797 0.663282 0.240966
H48   H     H_    0.781832 0.208365 0.577261 0.202704
H49   H     H_    0.681885 0.354301 0.614000 0.273526
H50   H     H_    0.800499 0.343479 0.582798 0.272261
H51   H     H_    0.735763 0.324881 0.700227 0.272039
H52   H     H_    0.237391 0.146536 0.145901 0.165977
H53   H     H_    0.321377 0.130907 0.193818 0.110458
H54   H     H_    0.114633 0.182829 0.277266 0.256143
H55   H     H_    0.193506 0.158875 0.337493 0.204754
H56   H     H_    0.362216 0.575312 0.969383 0.153295
H57   H     H_    0.255093 0.282937 0.213233 0.268614
H58   H     H_    0.137453 0.323123 0.271693 0.270707
H59   H     H_    0.167928 0.308860 0.161604 0.264685
H60   H     H_    0.847289 0.762333 0.847360 0.168803
H61   H     H_    0.867780 0.678062 0.797719 0.107671
H62   H     H_    0.822264 0.884146 0.708909 0.262852
H63   H     H_    0.845351 0.803007 0.652202 0.206384
H64   H     H_    0.714197 0.751034 0.772758 0.269807
H65   H     H_    0.681017 0.868425 0.709310 0.266903
H66   H     H_    0.690394 0.839599 0.821400 0.265772
H67   H     H_    0.524636 0.827364 0.533842 0.143018
H68   H     H_    0.796034 0.299556 0.253307 0.173860
H69   H     H_    0.790933 0.396353 0.276351 0.108094
H70   H     H_    0.786702 0.211569 0.420280 0.235127
H71   H     H_    0.763476 0.317645 0.439201 0.212874
H72   H     H_    0.627630 0.384090 0.381294 0.269517
H73   H     H_    0.621489 0.283901 0.476028 0.268822
H74   H     H_    0.650399 0.277257 0.363091 0.264909
H75   H     H_    0.781837 0.767114 0.031401 0.158525
H76   H     H_    0.813797 0.683652 0.133602 0.168886
H77   H     H_    0.685005 0.874034 0.127200 0.267958
H78   H     H_    0.476504 0.154286 0.473706 0.145726
H79   H     H_    0.728182 0.787858 0.220395 0.223849
H80   H     H_    0.885280 0.790434 0.128157 0.264517
H81   H     H_    0.811907 0.900888 0.140586 0.268454
H82   H     H_    0.842261 0.876563 0.035433 0.264650
H83   H     H_    0.232030 0.217745 0.971034 0.156131
H84   H     H_    0.313520 0.185376 0.868627 0.169634
H85   H     H_    0.123165 0.314972 0.875714 0.269699
H86   H     H_    0.207511 0.269321 0.783827 0.223313
H87   H     H_    0.203584 0.113549 0.880292 0.263793
H88   H     H_    0.093112 0.187476 0.867681 0.267858
H89   H     H_    0.587544 0.330368 0.996462 0.154642
H90   H     H_    0.119031 0.159149 0.971689 0.265012
O1    O     O_R   0.982940 0.138950 0.510160 -0.655093
O2    O     O_R   0.982940 0.510160 0.138950 -0.644541
O3    O     O_R   0.861050 0.017060 0.489840 -0.642964
O4    O     O_R   0.138950 0.982940 0.510160 -0.652746
O5    O     O_R   0.867700 0.025880 0.612340 -0.583485
O6    O     O_R   0.132300 0.974120 0.387660 -0.575541
O7    O     O_R   0.025880 0.612340 0.867700 -0.575708
O8    O     O_R   0.974120 0.387660 0.132300 -0.586235
O9    O     O_R   0.612340 0.867700 0.025880 -0.630967
O10   O     O_R   0.387660 0.132300 0.974120 -0.680860
O11   O     O_R   0.387660 0.974120 0.132300 -0.577963
O12   O     O_R   0.017060 0.861050 0.489840 -0.648915
O13   O     O_R   0.612340 0.025880 0.867700 -0.586444
O14   O     O_R   0.132300 0.387660 0.974120 -0.631289
O15   O     O_R   0.867700 0.612340 0.025880 -0.679014
O16   O     O_R   0.974120 0.132300 0.387660 -0.580720
O17   O     O_R   0.025880 0.867700 0.612340 -0.574024
O18   O     O_3   0.722530 0.081109 0.721981 -0.601375
O19   O     O_3   0.251552 0.032220 0.253200 -0.602625
O20   O     O_3   0.966103 0.747345 0.745530 -0.602363
O21   O     O_3   0.906559 0.282803 0.286390 -0.606081
O22   O     O_3   0.681716 0.712362 0.137559 -0.641595
O23   O     O_R   0.138950 0.510160 0.982940 -0.625112
O24   O     O_3   0.286046 0.317489 0.863228 -0.641350
O25   O     O_R   0.861050 0.489840 0.017060 -0.614234
O26   O     O_R   0.510160 0.982940 0.138950 -0.645976
O27   O     O_R   0.489840 0.017060 0.861050 -0.649127
O28   O     O_R   0.489840 0.861050 0.017060 -0.626049
O29   O     O_R   0.510160 0.138950 0.982940 -0.616149
O30   O     O_R   0.017060 0.489840 0.861050 -0.647085
Zn1   Zn    Zn3+2 0.004880 0.004880 0.583590 0.952169
Zn2   Zn    Zn3+2 0.995120 0.995120 0.416410 0.966186
Zn3   Zn    Zn3+2 0.004880 0.583590 0.004880 0.928295
Zn4   Zn    Zn3+2 0.995120 0.416410 0.995120 0.933749
Zn5   Zn    Zn3+2 0.583590 0.004880 0.004880 0.931326
Zn6   Zn    Zn3+2 0.416410 0.995120 0.995120 0.923964

loop_
_geom_bond_atom_site_label_1
_geom_bond_atom_site_label_2
_ccdc_geom_bond_type
C16   C28   A    
C64   H7    S    
C87   C88   S    
O4    Zn1   S    
C11   C18   A    
C27   H56   S    
C22   H2    S    
C15   C29   A    
C74   H36   S    
C46   C59   A    
C53   C63   A    
C71   H26   S    
C95   C96   S    
C34   C42   A    
C77   H44   S    
O6    Zn2   S    
C66   H11   S    
O5    Zn1   S    
C6    O10   A    
C91   O22   S    
C75   H38   S    
C69   H20   S    
C83   H58   S    
C76   H41   S    
C8    O2    A    
C64   H6    S    
O25   Zn4   S    
C2    O15   A    
C2    O25   A    
C10   O4    A    
C91   H76   S    
C49   C62   A    
C71   H27   S    
C96   H88   S    
C85   C86   S    
C21   H3    S    
C75   H39   S    
O2    Zn3   S    
C83   H59   S    
C30   H23   S    
C35   C48   A    
C70   H21   S    
C74   H37   S    
C1    C31   A    
C23   C43   A    
C40   C73   S    
C34   C35   A    
C68   H16   S    
C65   H9    S    
C19   C26   A    
C77   H46   S    
O28   Zn6   S    
C47   C60   A    
C37   C56   A    
C80   H51   S    
C79   H47   S    
C6    O29   A    
C29   H34   S    
C44   C58   A    
C40   C56   A    
C1    C11   S    
C39   C72   S    
C8    O8    A    
O13   Zn5   S    
C7    O7    A    
C15   C34   S    
C7    O30   A    
C68   H17   S    
C5    O9    A    
C81   H52   S    
C80   H50   S    
C39   C52   A    
C41   C74   S    
C58   O18   S    
C48   C67   S    
C74   H35   S    
C12   C32   A    
C50   C63   A    
C13   C25   A    
O12   Zn2   S    
C9    C52   S    
C14   C30   A    
C9    O3    A    
C10   C51   S    
O29   Zn5   S    
C8    C55   S    
C62   O22   S    
C67   O1    A    
C33   C66   S    
C81   C82   S    
O26   Zn5   S    
C77   C79   S    
C92   H79   S    
C64   H5    S    
C73   H33   S    
C69   H18   S    
C17   C24   A    
C31   C44   A    
O17   Zn1   S    
O23   Zn3   S    
C96   H90   S    
C5    C54   S    
C84   C85   S    
O15   Zn3   S    
O11   Zn6   S    
C70   H24   S    
C91   C92   S    
O9    Zn5   S    
C13   C19   A    
C75   H40   S    
C95   H85   S    
C57   C60   A    
O8    Zn4   S    
C38   C51   A    
C4    C44   S    
C11   C26   A    
C23   C33   A    
C73   H31   S    
C82   H55   S    
C82   C83   S    
C10   O6    A    
C72   H30   S    
C24   H89   S    
C68   H15   S    
C17   C27   A    
C14   C23   S    
C85   H63   S    
C2    C49   S    
C14   C20   A    
C42   C55   A    
O30   Zn4   S    
O27   Zn6   S    
C50   C89   S    
C79   H48   S    
C20   H4    S    
C93   H82   S    
C88   H71   S    
C78   O12   A    
C4    O13   A    
C1    C39   A    
C42   C75   S    
C36   C45   A    
C86   H65   S    
C94   H84   S    
C78   O17   A    
C17   C56   S    
C87   O21   S    
C82   H54   S    
C52   C58   A    
C61   O21   S    
C86   H66   S    
C18   H78   S    
C80   H49   S    
C88   C90   S    
C94   O24   S    
C88   H70   S    
C22   C27   A    
C33   C47   A    
C51   C59   A    
C85   H62   S    
C96   H87   S    
C77   O18   S    
C65   H10   S    
C4    O27   A    
C36   C69   S    
C81   O19   S    
O1    Zn1   S    
C76   H43   S    
C3    O26   A    
O7    Zn3   S    
C89   O14   A    
C38   C71   S    
C69   H19   S    
C16   C22   A    
C63   O24   S    
C3    C46   S    
C90   H72   S    
C32   C46   A    
C31   C64   S    
C71   H25   S    
O3    Zn2   S    
C24   C28   A    
C81   H53   S    
C16   C45   S    
C89   O23   A    
C84   H61   S    
C95   H86   S    
C83   H57   S    
C76   H42   S    
C92   H77   S    
C73   H32   S    
C54   C62   A    
C21   C30   A    
C93   H80   S    
C9    O5    A    
C47   C78   S    
C91   H75   S    
C72   H29   S    
O16   Zn2   S    
C90   H74   S    
C67   O16   A    
C18   C25   A    
C37   C50   A    
C84   H60   S    
C60   O20   S    
C48   C61   A    
C87   H69   S    
C35   C68   S    
C70   H22   S    
O14   Zn4   S    
C5    O28   A    
C55   C61   A    
C90   H73   S    
C92   C93   S    
C3    O11   A    
C87   H68   S    
C94   H83   S    
C66   H13   S    
C12   C38   A    
C94   C95   S    
O10   Zn6   S    
C41   C54   A    
C43   C57   A    
C26   H1    S    
C79   C80   S    
C84   O20   S    
C15   C21   A    
C12   C13   S    
C66   H14   S    
C20   C29   A    
C40   C53   A    
C41   C45   A    
C43   C76   S    
C28   H45   S    
C6    C53   S    
C65   H8    S    
C93   H81   S    
C37   C70   S    
C86   H64   S    
C7    C57   S    
C59   O19   S    
C72   H28   S    
C36   C49   A    
C25   H12   S    
C32   C65   S    
C19   H67   S    
