data_mof_unit_63478.cif
_audit_creation_date              2012-12-10T17:50:34-0500
_audit_creation_method            fapswitch 2.2
_symmetry_space_group_name_H-M    P1
_symmetry_Int_Tables_number       1
_space_group_crystal_system       triclinic
_cell_length_a                    44.372534
_cell_length_b                    39.022467
_cell_length_c                    21.42118
_cell_angle_alpha                 89.999854
_cell_angle_beta                  61.560138
_cell_angle_gamma                 89.999926
_cell_volume                      32615.0492598

loop_
_atom_site_label
_atom_site_type_symbol
_atom_type_description
_atom_site_fract_x
_atom_site_fract_y
_atom_site_fract_z
_atom_type_partial_charge
C1    C     C_R   0.066149 0.499981 0.432783 0.800334
C2    C     C_R   0.933852 0.499981 0.567218 0.800299
C3    C     C_R   0.566149 0.999981 0.432777 0.800187
C4    C     C_R   0.433850 0.999980 0.567220 0.800235
C5    C     C_3   0.999720 0.499962 0.688769 -0.113855
C6    C     C_3   0.000279 0.499961 0.311231 -0.113856
C7    C     C_3   0.499719 0.999953 0.688773 -0.113616
C8    C     C_3   0.500282 0.999956 0.311227 -0.113614
C9    C     C_R   0.377369 0.478365 0.080272 0.255056
C10   C     C_R   0.622630 0.478368 0.919743 0.255066
C11   C     C_R   0.877372 0.978342 0.080295 0.254999
C12   C     C_R   0.122629 0.978339 0.919687 0.254985
C13   C     C_R   0.341571 0.479251 0.116694 -0.183136
C14   C     C_R   0.658427 0.479251 0.883323 -0.183140
C15   C     C_R   0.841575 0.979223 0.116716 -0.182954
C16   C     C_R   0.158426 0.979222 0.883263 -0.182947
C17   C     C_R   0.324011 0.500765 0.175786 0.052055
C18   C     C_R   0.675990 0.500758 0.824217 0.052050
C19   C     C_R   0.824012 0.000750 0.175787 0.052034
C20   C     C_R   0.175987 0.000759 0.824208 0.052039
C21   C     C_R   0.342970 0.521149 0.198630 -0.161057
C22   C     C_R   0.657033 0.521135 0.801359 -0.161057
C23   C     C_R   0.842969 0.021148 0.198613 -0.160499
C24   C     C_R   0.157028 0.021166 0.801401 -0.160497
C25   C     C_R   0.378705 0.520178 0.162895 -0.227319
C26   C     C_R   0.621297 0.520166 0.837092 -0.227319
C27   C     C_R   0.878704 0.020180 0.162881 -0.226473
C28   C     C_R   0.121293 0.020195 0.837135 -0.226473
C29   C     C_R   0.396229 0.499178 0.103113 -0.083864
C30   C     C_R   0.603772 0.499175 0.896887 -0.083877
C31   C     C_R   0.896230 0.999170 0.103116 -0.083541
C32   C     C_R   0.103770 0.999175 0.896883 -0.083524
C33   C     C_R   0.267831 0.504070 0.288032 -0.171140
C34   C     C_R   0.732171 0.504046 0.711972 -0.171130
C35   C     C_R   0.767829 0.004082 0.288023 -0.171114
C36   C     C_R   0.232169 0.004111 0.711971 -0.171126
C37   C     C_R   0.232044 0.504324 0.323474 -0.165157
C38   C     C_R   0.767957 0.504300 0.676532 -0.165184
C39   C     C_R   0.732043 0.004340 0.323459 -0.165063
C40   C     C_R   0.267955 0.004370 0.676531 -0.165028
C41   C     C_R   0.213799 0.501897 0.285195 0.109852
C42   C     C_R   0.786202 0.501888 0.714816 0.109867
C43   C     C_R   0.713800 0.001889 0.285178 0.109846
C44   C     C_R   0.286199 0.001900 0.714806 0.109826
C45   C     C_R   0.999912 0.499982 0.620439 0.846065
C46   C     C_R   0.000087 0.499982 0.379561 0.846061
C47   C     C_R   0.499913 0.999981 0.620440 0.845973
C48   C     C_R   0.500088 0.999981 0.379559 0.845982
C49   C     C_R   0.231888 0.499773 0.210871 -0.176885
C50   C     C_R   0.768111 0.499778 0.789142 -0.176863
C51   C     C_R   0.731891 0.999736 0.210858 -0.176818
C52   C     C_R   0.268110 0.999730 0.789124 -0.176845
C53   C     C_R   0.267630 0.499812 0.175392 -0.169653
C54   C     C_R   0.732369 0.499815 0.824618 -0.169656
C55   C     C_R   0.767633 0.999771 0.175385 -0.169328
C56   C     C_R   0.232368 0.999766 0.824601 -0.169325
C57   C     C_R   0.286020 0.501682 0.213581 0.112656
C58   C     C_R   0.713981 0.501672 0.786425 0.112654
C59   C     C_R   0.786021 0.001666 0.213576 0.112700
C60   C     C_R   0.213978 0.001678 0.786416 0.112704
C61   C     C_R   0.158354 0.476649 0.304344 -0.181674
C62   C     C_R   0.841650 0.476660 0.695700 -0.181672
C63   C     C_R   0.658354 0.976623 0.304378 -0.181726
C64   C     C_R   0.341641 0.976609 0.695567 -0.181727
C65   C     C_R   0.122203 0.475758 0.338813 0.263871
C66   C     C_R   0.877801 0.475774 0.661232 0.263906
C67   C     C_R   0.622204 0.975732 0.338850 0.263886
C68   C     C_R   0.377791 0.975712 0.661093 0.263839
C69   C     C_R   0.103876 0.500023 0.393129 -0.099144
C70   C     C_R   0.896125 0.500024 0.606881 -0.099280
C71   C     C_R   0.603877 0.000023 0.393112 -0.099577
C72   C     C_R   0.396122 0.000022 0.606875 -0.099402
C73   C     C_R   0.121714 0.524609 0.410583 -0.174603
C74   C     C_R   0.878285 0.524596 0.589401 -0.174656
C75   C     C_R   0.621717 0.024634 0.410503 -0.174720
C76   C     C_R   0.378285 0.024650 0.589516 -0.174646
C77   C     C_R   0.157385 0.525046 0.376027 -0.158499
C78   C     C_R   0.842614 0.525030 0.623960 -0.158520
C79   C     C_R   0.657388 0.025068 0.375947 -0.158444
C80   C     C_R   0.342614 0.025088 0.624068 -0.158415
C81   C     C_R   0.175948 0.501157 0.322628 0.041800
C82   C     C_R   0.824053 0.501151 0.677386 0.041753
C83   C     C_R   0.675949 0.001153 0.322607 0.041717
C84   C     C_R   0.324049 0.001159 0.677374 0.041775
C85   C     C_R   0.000000 0.433783 0.000000 0.786982
C86   C     C_R   0.500000 0.933826 1.000000 0.782694
C87   C     C_3   0.988538 0.469063 0.739983 -0.193382
C88   C     C_3   0.011312 0.469006 0.260166 -0.193353
C89   C     C_3   0.489036 0.968872 0.739488 -0.194148
C90   C     C_3   0.511155 0.968943 0.260323 -0.194199
C91   C     C_R   0.999839 0.499921 0.879743 0.813767
C92   C     C_R   0.000160 0.499917 0.120257 0.813906
C93   C     C_R   0.499840 0.999902 0.879744 0.812702
C94   C     C_R   0.500160 0.999908 0.120256 0.812527
C95   C     C_R   0.000000 0.566182 0.000000 0.763669
C96   C     C_R   0.500000 0.066182 0.999999 0.763937
C97   C     C_R   0.500000 0.433776 0.000000 0.812841
C98   C     C_R   0.000000 0.933776 0.000000 0.812900
C99   C     C_R   0.433905 0.499420 0.065836 0.819393
C100  C     C_R   0.566095 0.499419 0.934164 0.819383
C101  C     C_R   0.933906 0.999417 0.065837 0.821026
C102  C     C_R   0.066094 0.999419 0.934163 0.821037
C103  C     C_R   0.500000 0.566034 1.000000 0.763608
C104  C     C_R   0.000000 0.066077 1.000000 0.768085
C105  C     C_R   0.514986 0.621907 0.034801 -0.181622
C106  C     C_R   0.485013 0.621907 0.965199 -0.181623
C107  C     C_R   0.001048 0.122100 0.055493 -0.179821
C108  C     C_R   0.998952 0.122100 0.944507 -0.179823
C109  C     C_R   0.515362 0.657692 0.034020 -0.164464
C110  C     C_R   0.484637 0.657692 0.965979 -0.164469
C111  C     C_R   0.001090 0.157841 0.055432 -0.168084
C112  C     C_R   0.998910 0.157841 0.944568 -0.168082
C113  C     C_R   0.500000 0.675735 0.999999 0.095756
C114  C     C_R   0.000000 0.176029 1.000000 0.104635
C115  C     C_R   0.500000 0.603745 1.000000 -0.023981
C116  C     C_R   0.000000 0.103872 1.000000 -0.030071
C117  C     C_R   0.469009 0.731440 0.032967 -0.170920
C118  C     C_R   0.530990 0.731440 0.967031 -0.170922
C119  C     C_R   0.978078 0.232075 0.981568 -0.172367
C120  C     C_R   0.021923 0.232075 0.018431 -0.172369
C121  C     C_3   0.968169 0.494395 0.800752 0.287648
C122  C     C_3   0.031803 0.494239 0.199274 0.287656
C123  C     C_3   0.468261 0.993870 0.800667 0.287395
C124  C     C_3   0.531775 0.994068 0.199298 0.287388
C125  C     C_R   0.978040 0.267813 0.981674 -0.172037
C126  C     C_R   0.021961 0.267813 0.018325 -0.172040
C127  C     C_R   0.468993 0.767217 0.033734 -0.171952
C128  C     C_R   0.531007 0.767217 0.966263 -0.171960
C129  C     C_R   0.000000 0.286002 0.000000 0.096699
C130  C     C_R   0.500000 0.785635 0.999998 0.098306
C131  C     C_R   0.500000 0.713405 0.999999 0.089332
C132  C     C_R   0.000000 0.213886 1.000000 0.096211
C133  C     C_R   0.031024 0.342046 0.971454 -0.167009
C134  C     C_R   0.968977 0.342046 0.028546 -0.167015
C135  C     C_R   0.526980 0.842209 0.001324 -0.162818
C136  C     C_R   0.473020 0.842210 0.998674 -0.162822
C137  C     C_R   0.031034 0.377787 0.971365 -0.177097
C138  C     C_R   0.968966 0.377787 0.028635 -0.177147
C139  C     C_R   0.527167 0.877986 0.000444 -0.177073
C140  C     C_R   0.472833 0.877986 0.999554 -0.177002
C141  C     C_R   1.000000 0.396004 0.000000 -0.034504
C142  C     C_R   0.500000 0.896127 0.999999 -0.028410
C143  C     C_R   0.000000 0.323858 0.000000 0.103763
C144  C     C_R   0.500000 0.823793 0.999999 0.104685
C145  C     C_R   0.514430 0.377930 0.935639 -0.153067
C146  C     C_R   0.485569 0.377929 0.064360 -0.153059
C147  C     C_R   0.014438 0.877930 0.935640 -0.153132
C148  C     C_R   0.985562 0.877930 0.064362 -0.153142
C149  C     C_R   0.514798 0.342155 0.935654 -0.155526
C150  C     C_R   0.485202 0.342154 0.064343 -0.155527
C151  C     C_R   0.014806 0.842155 0.935657 -0.155586
C152  C     C_R   0.985194 0.842155 0.064347 -0.155586
C153  C     C_R   0.500000 0.324089 0.999998 0.094430
C154  C     C_R   0.000000 0.824089 0.000002 0.094469
C155  C     C_3   0.999461 0.499816 0.811826 -0.143827
C156  C     C_3   0.000538 0.499810 0.188174 -0.143832
C157  C     C_3   0.499463 0.999787 0.811827 -0.143701
C158  C     C_3   0.500538 0.999797 0.188173 -0.143687
C159  C     C_R   0.500000 0.396082 1.000000 -0.012368
C160  C     C_R   1.000000 0.896082 0.000001 -0.012237
C161  C     C_R   0.469044 0.268332 0.034223 -0.166827
C162  C     C_R   0.530955 0.268332 0.965770 -0.166821
C163  C     C_R   0.969044 0.768333 0.034188 -0.166895
C164  C     C_R   0.030958 0.768333 0.965819 -0.166898
C165  C     C_R   0.968988 0.732565 0.033528 -0.171977
C166  C     C_R   0.031013 0.732566 0.966480 -0.171983
C167  C     C_R   0.468988 0.232565 0.033562 -0.171901
C168  C     C_R   0.531010 0.232564 0.966429 -0.171891
C169  C     C_R   0.000001 0.714168 0.000004 0.096420
C170  C     C_R   0.499999 0.214167 0.999995 0.096408
C171  C     C_R   0.499999 0.286390 0.999997 0.090303
C172  C     C_R   0.000001 0.786391 0.000003 0.090318
C173  C     C_R   0.025039 0.657643 0.941859 -0.162341
C174  C     C_R   0.974963 0.657643 0.058148 -0.162382
C175  C     C_R   0.525021 0.157642 0.941828 -0.162368
C176  C     C_R   0.474976 0.157642 0.058163 -0.162315
C177  C     C_R   0.025269 0.621877 0.942295 -0.184321
C178  C     C_R   0.974732 0.621877 0.057711 -0.184200
C179  C     C_R   0.525253 0.121876 0.942265 -0.183926
C180  C     C_R   0.474745 0.121876 0.057729 -0.184087
C181  C     C_R   0.000000 0.603794 0.000002 -0.028366
C182  C     C_R   0.499999 0.103793 0.999998 -0.028618
C183  C     C_R   0.000001 0.676040 0.000004 0.104883
C184  C     C_R   0.499999 0.176038 0.999995 0.104818
C185  C     C_3   0.020547 0.474834 0.750410 -0.239041
C186  C     C_3   0.979331 0.474930 0.249710 -0.239143
C187  C     C_3   0.520948 0.975151 0.750010 -0.239506
C188  C     C_3   0.479205 0.975028 0.249838 -0.239392
C189  C     C_3   0.031635 0.505522 0.698195 0.309500
C190  C     C_3   0.968391 0.505673 0.301776 0.309513
C191  C     C_3   0.531542 0.006019 0.698294 0.309681
C192  C     C_3   0.468423 0.005828 0.301743 0.309680
C193  C     C_3   0.010366 0.529879 0.759838 0.236681
C194  C     C_3   0.989777 0.529925 0.240016 0.236729
C195  C     C_3   0.509885 0.030027 0.760328 0.236963
C196  C     C_3   0.489932 0.029969 0.239857 0.236912
C197  C     C_3   0.978399 0.525173 0.749862 -0.305027
C198  C     C_3   0.021722 0.525067 0.250016 -0.304980
C199  C     C_3   0.477995 0.024814 0.750274 -0.304317
C200  C     C_3   0.521853 0.024950 0.249880 -0.304386
Cu1   Cu    Cu3+1 0.000000 0.534200 0.500000 0.958360
Cu2   Cu    Cu3+1 0.500000 0.034200 0.500000 0.959037
Cu3   Cu    Cu3+1 0.000000 0.465780 0.500000 0.990517
Cu4   Cu    Cu3+1 0.500000 0.965780 0.500000 0.990395
Cu5   Cu    Cu3+1 0.965780 0.500020 0.034200 0.969277
Cu6   Cu    Cu3+1 0.034220 0.500020 0.965800 0.969232
Cu7   Cu    Cu3+1 0.465780 0.000020 0.034200 0.970413
Cu8   Cu    Cu3+1 0.534220 0.000020 0.965800 0.970468
Cu9   Cu    Cu3+1 0.499990 0.499910 0.062770 0.999801
Cu10  Cu    Cu3+1 0.500010 0.499910 0.937230 0.999787
Cu11  Cu    Cu3+1 0.999990 0.999910 0.062770 0.998320
Cu12  Cu    Cu3+1 0.000010 0.999910 0.937230 0.998338
H1    H     H_    0.392741 0.536382 0.181196 0.156566
H2    H     H_    0.607263 0.536366 0.818779 0.156577
H3    H     H_    0.892738 0.036395 0.181167 0.155738
H4    H     H_    0.107257 0.036416 0.818863 0.155725
H5    H     H_    0.281233 0.505040 0.319029 0.133512
H6    H     H_    0.718770 0.505006 0.680972 0.133511
H7    H     H_    0.781229 0.005070 0.319023 0.133396
H8    H     H_    0.218768 0.005113 0.680974 0.133398
H9    H     H_    0.218593 0.505658 0.380908 0.143171
H10   H     H_    0.781409 0.505623 0.619098 0.143145
H11   H     H_    0.718590 0.005697 0.380890 0.143148
H12   H     H_    0.281407 0.005740 0.619101 0.143182
H13   H     H_    0.218333 0.498408 0.180185 0.131181
H14   H     H_    0.781666 0.498424 0.819832 0.131182
H15   H     H_    0.718337 0.998351 0.180171 0.131229
H16   H     H_    0.281666 0.998330 0.819806 0.131227
H17   H     H_    0.280873 0.498658 0.117961 0.136304
H18   H     H_    0.719125 0.498673 0.882050 0.136307
H19   H     H_    0.780877 0.998597 0.117955 0.136433
H20   H     H_    0.219126 0.998578 0.882030 0.136429
H21   H     H_    0.173221 0.458473 0.262896 0.140571
H22   H     H_    0.826785 0.458493 0.737169 0.140571
H23   H     H_    0.673221 0.958429 0.262970 0.140558
H24   H     H_    0.326771 0.958404 0.736947 0.140558
H25   H     H_    0.107941 0.543289 0.451942 0.181735
H26   H     H_    0.892055 0.543266 0.548020 0.181987
H27   H     H_    0.607947 0.043335 0.451815 0.182452
H28   H     H_    0.392057 0.043363 0.548231 0.182136
H29   H     H_    0.170521 0.544328 0.390461 0.145046
H30   H     H_    0.829476 0.544301 0.609504 0.145119
H31   H     H_    0.670526 0.044369 0.390336 0.145328
H32   H     H_    0.329478 0.044403 0.609706 0.145235
H33   H     H_    0.526838 0.608428 0.061682 0.150685
H34   H     H_    0.473162 0.608428 0.938318 0.150683
H35   H     H_    0.001802 0.108788 0.099083 0.156004
H36   H     H_    0.998199 0.108788 0.900917 0.156005
H37   H     H_    0.979340 0.444034 0.731006 0.158574
H38   H     H_    0.020389 0.443933 0.269261 0.158661
H39   H     H_    0.480240 0.943697 0.730120 0.158740
H40   H     H_    0.520104 0.943824 0.269542 0.158635
H41   H     H_    0.527266 0.671342 0.060603 0.135653
H42   H     H_    0.472733 0.671342 0.939395 0.135651
H43   H     H_    0.001534 0.171275 0.099225 0.130575
H44   H     H_    0.998466 0.171275 0.900774 0.130577
H45   H     H_    0.444871 0.717780 0.059131 0.135555
H46   H     H_    0.555128 0.717780 0.940867 0.135555
H47   H     H_    0.960701 0.218646 0.967795 0.131083
H48   H     H_    0.039299 0.218646 0.032204 0.131081
H49   H     H_    0.961092 0.281243 0.966698 0.130860
H50   H     H_    0.038908 0.281242 0.033302 0.130860
H51   H     H_    0.444663 0.780349 0.061631 0.128758
H52   H     H_    0.555337 0.780349 0.938366 0.128750
H53   H     H_    0.055307 0.328612 0.948369 0.130967
H54   H     H_    0.944693 0.328612 0.051631 0.130961
H55   H     H_    0.547802 0.829072 0.004030 0.126697
H56   H     H_    0.452197 0.829073 0.995967 0.126699
H57   H     H_    0.055365 0.391113 0.948802 0.157117
H58   H     H_    0.944635 0.391113 0.051199 0.157103
H59   H     H_    0.548240 0.891490 0.001538 0.150980
H60   H     H_    0.451760 0.891491 0.998460 0.151013
H61   H     H_    0.525842 0.391405 0.885368 0.151171
H62   H     H_    0.474158 0.391404 0.114631 0.151172
H63   H     H_    0.025856 0.891404 0.885369 0.151073
H64   H     H_    0.974144 0.891405 0.114632 0.151071
H65   H     H_    0.526235 0.328533 0.885543 0.135599
H66   H     H_    0.473764 0.328532 0.114454 0.135595
H67   H     H_    0.026250 0.828532 0.885547 0.135531
H68   H     H_    0.973751 0.828533 0.114457 0.135534
H69   H     H_    0.444890 0.281965 0.060379 0.139655
H70   H     H_    0.555109 0.281964 0.939615 0.139656
H71   H     H_    0.944889 0.781966 0.060311 0.139624
H72   H     H_    0.055112 0.781966 0.939695 0.139625
H73   H     H_    0.944578 0.719414 0.058505 0.129762
H74   H     H_    0.055424 0.719415 0.941503 0.129755
H75   H     H_    0.444577 0.219414 0.058573 0.129804
H76   H     H_    0.555420 0.219413 0.941417 0.129813
H77   H     H_    0.044243 0.670794 0.895450 0.127649
H78   H     H_    0.955759 0.670794 0.104558 0.127680
H79   H     H_    0.544212 0.170793 0.895401 0.127788
H80   H     H_    0.455784 0.170793 0.104590 0.127747
H81   H     H_    0.037758 0.454483 0.751556 0.175027
H82   H     H_    0.962022 0.454662 0.248664 0.175110
H83   H     H_    0.538484 0.955075 0.750823 0.176028
H84   H     H_    0.461793 0.954847 0.248900 0.175924
H85   H     H_    0.044773 0.608318 0.896863 0.153582
H86   H     H_    0.955228 0.608318 0.103141 0.153700
H87   H     H_    0.544744 0.108316 0.896817 0.154000
H88   H     H_    0.455254 0.108317 0.103178 0.153853
H89   H     H_    0.961051 0.545498 0.749196 0.154794
H90   H     H_    0.039167 0.545309 0.250586 0.154679
H91   H     H_    0.460324 0.044861 0.749929 0.154388
H92   H     H_    0.539401 0.045103 0.250345 0.154536
H93   H     H_    0.327477 0.462554 0.099435 0.159596
H94   H     H_    0.672521 0.462559 0.900593 0.159599
H95   H     H_    0.827483 0.962514 0.099473 0.159530
H96   H     H_    0.172520 0.962507 0.900491 0.159526
H97   H     H_    0.330204 0.538265 0.243497 0.137220
H98   H     H_    0.669800 0.538244 0.756480 0.137227
H99   H     H_    0.830201 0.038273 0.243463 0.137218
H100  H     H_    0.169793 0.038300 0.756565 0.137209
O1    O     O_R   0.049900 0.528880 0.450120 -0.590334
O2    O     O_R   0.950100 0.528880 0.549880 -0.590225
O3    O     O_R   0.549900 0.028880 0.450120 -0.589996
O4    O     O_R   0.450100 0.028880 0.549880 -0.590136
O5    O     O_R   0.450080 0.499920 0.102890 -0.592727
O6    O     O_R   0.549920 0.499920 0.897110 -0.592734
O7    O     O_R   0.950080 0.999920 0.102890 -0.593895
O8    O     O_R   0.049920 0.999920 0.897110 -0.593886
O9    O     O_R   0.450090 0.499990 0.996890 -0.542805
O10   O     O_R   0.549910 0.499990 0.003110 -0.542796
O11   O     O_R   0.950090 0.999990 0.996890 -0.541249
O12   O     O_R   0.049910 0.999990 0.003110 -0.541262
O13   O     O_R   0.500000 0.549830 0.053110 -0.589009
O14   O     O_R   0.500000 0.549830 0.946890 -0.589010
O15   O     O_R   1.000000 0.049830 0.053110 -0.592385
O16   O     O_R   0.000000 0.049830 0.946890 -0.592384
O17   O     O_R   0.049890 0.471100 0.450130 -0.561228
O18   O     O_R   0.950110 0.471100 0.549870 -0.561316
O19   O     O_R   0.549890 0.971100 0.450130 -0.561449
O20   O     O_R   0.450110 0.971100 0.549870 -0.561339
O21   O     O_R   0.999990 0.528880 0.591580 -0.583694
O22   O     O_R   0.000010 0.528880 0.408420 -0.583547
O23   O     O_R   0.499990 0.028880 0.591580 -0.583261
O24   O     O_R   0.500010 0.028880 0.408420 -0.583449
O25   O     O_R   0.999970 0.471100 0.591590 -0.587735
O26   O     O_R   0.000030 0.471100 0.408410 -0.587892
O27   O     O_R   0.499970 0.971100 0.591590 -0.588107
O28   O     O_R   0.500030 0.971100 0.408410 -0.587908
O29   O     O_R   0.971100 0.450110 0.028870 -0.587442
O30   O     O_R   0.028900 0.450110 0.971130 -0.587413
O31   O     O_R   0.471100 0.950110 0.028870 -0.584068
O32   O     O_R   0.528900 0.950110 0.971130 -0.584104
O33   O     O_R   0.971110 0.500030 0.937300 -0.588988
O34   O     O_R   0.028890 0.500030 0.062700 -0.589159
O35   O     O_R   0.471110 0.000030 0.937300 -0.590883
O36   O     O_R   0.528890 0.000030 0.062700 -0.590665
O37   O     O_R   0.028880 0.500040 0.879560 -0.567103
O38   O     O_R   0.971120 0.500040 0.120440 -0.567152
O39   O     O_R   0.528880 0.000040 0.879560 -0.566260
O40   O     O_R   0.471120 0.000040 0.120440 -0.566195
O41   O     O_R   0.971110 0.549940 0.028880 -0.584820
O42   O     O_R   0.028890 0.549940 0.971120 -0.584854
O43   O     O_R   0.471110 0.049940 0.028880 -0.584762
O44   O     O_R   0.528890 0.049940 0.971120 -0.584720
O45   O     O_R   0.499970 0.450010 0.052910 -0.570804
O46   O     O_R   0.500030 0.450010 0.947090 -0.570805
O47   O     O_R   0.999970 0.950010 0.052910 -0.570875
O48   O     O_R   0.000030 0.950010 0.947090 -0.570871
N1    N     N_2   0.933771 0.488630 0.857717 -0.400686
H101  H     H_    0.925097 0.508383 0.894042 0.262846
C201  C     C_3   0.909143 0.478633 0.835046 -0.704648
H102  H     H_    0.883705 0.474716 0.882243 0.230011
H103  H     H_    0.917010 0.454131 0.805246 0.237474
H104  H     H_    0.906809 0.498885 0.801109 0.218861
N2    N     N_2   0.066173 0.488304 0.142337 -0.400785
H105  H     H_    0.074938 0.508007 0.105897 0.262927
C202  C     C_3   0.090758 0.478213 0.165059 -0.704705
H106  H     H_    0.116171 0.474148 0.117878 0.230022
H107  H     H_    0.082769 0.453769 0.195045 0.237472
H108  H     H_    0.093204 0.498480 0.198831 0.218858
N3    N     N_2   0.433963 0.987538 0.857542 -0.402312
H109  H     H_    0.424985 0.007121 0.894248 0.263386
C203  C     C_3   0.409479 0.977221 0.834710 -0.706377
H110  H     H_    0.384128 0.972814 0.881851 0.230055
H111  H     H_    0.417751 0.952910 0.804297 0.237344
H112  H     H_    0.406767 0.997517 0.801313 0.219464
N4    N     N_2   0.566111 0.987951 0.142387 -0.402167
H113  H     H_    0.574974 0.007600 0.105829 0.263291
C204  C     C_3   0.590650 0.977751 0.165155 -0.706325
H114  H     H_    0.616035 0.973534 0.117991 0.230051
H115  H     H_    0.582532 0.953365 0.195325 0.237351
H116  H     H_    0.593217 0.998027 0.198765 0.219464
N5    N     N_2   0.103874 0.451757 0.318718 -0.412010
H117  H     H_    0.083236 0.461834 0.315245 0.242277
C205  C     C_3   0.122140 0.425331 0.266901 -0.703587
H118  H     H_    0.103431 0.407919 0.262556 0.228516
H119  H     H_    0.137917 0.409796 0.283922 0.243533
H120  H     H_    0.138489 0.436981 0.213997 0.217579
N6    N     N_2   0.896134 0.451793 0.681360 -0.412022
H121  H     H_    0.916778 0.461882 0.684795 0.242248
C206  C     C_3   0.877871 0.425393 0.733244 -0.703708
H122  H     H_    0.896581 0.407999 0.737630 0.228519
H123  H     H_    0.862092 0.409832 0.716265 0.243535
H124  H     H_    0.861522 0.437070 0.786120 0.217584
N7    N     N_2   0.603875 0.951705 0.318811 -0.411927
H125  H     H_    0.583241 0.961767 0.315299 0.242409
C207  C     C_3   0.622139 0.925249 0.267070 -0.703644
H126  H     H_    0.603429 0.907818 0.262777 0.228449
H127  H     H_    0.637916 0.909741 0.284135 0.243552
H128  H     H_    0.638488 0.936867 0.214132 0.217547
N8    N     N_2   0.396115 0.951659 0.681090 -0.411913
H129  H     H_    0.416741 0.961706 0.684651 0.242444
C208  C     C_3   0.377848 0.925171 0.732746 -0.703480
H130  H     H_    0.396556 0.907718 0.736989 0.228448
H131  H     H_    0.362072 0.909694 0.715629 0.243549
H132  H     H_    0.361498 0.936754 0.785720 0.217537
Br1   Br    Br    0.077857 0.512537 0.621978 -0.544079
Br2   Br    Br    0.922201 0.512910 0.377953 -0.544286
Br3   Br    Br    0.577651 0.013774 0.622208 -0.543910
Br4   Br    Br    0.422271 0.013302 0.377883 -0.543657
N9    N     N_2   0.022189 0.562277 0.773122 -0.407456
H133  H     H_    0.008217 0.570315 0.825049 0.233961
C209  C     C_3   0.027033 0.589120 0.722710 -0.620780
H134  H     H_    0.039013 0.611680 0.733720 0.219826
H135  H     H_    0.001958 0.597000 0.727499 0.206784
H136  H     H_    0.044173 0.580371 0.667668 0.264802
N10   N     N_2   0.978110 0.562379 0.226572 -0.407597
H137  H     H_    0.992120 0.570348 0.174606 0.233998
C210  C     C_3   0.973396 0.589248 0.276852 -0.620657
H138  H     H_    0.961526 0.611864 0.265728 0.219839
H139  H     H_    0.998508 0.597006 0.272026 0.206784
H140  H     H_    0.956213 0.580583 0.331937 0.264851
N11   N     N_2   0.521190 0.062606 0.774143 -0.407905
H141  H     H_    0.507094 0.070413 0.826201 0.234138
C211  C     C_3   0.525603 0.089533 0.724173 -0.620370
H142  H     H_    0.537221 0.112278 0.735554 0.219933
H143  H     H_    0.500403 0.097014 0.729090 0.206807
H144  H     H_    0.542880 0.081065 0.668988 0.264941
N12   N     N_2   0.478429 0.062480 0.226245 -0.407734
H145  H     H_    0.492478 0.070375 0.174236 0.234088
C212  C     C_3   0.473852 0.089375 0.276382 -0.620540
H146  H     H_    0.462095 0.112049 0.265144 0.219919
H147  H     H_    0.499005 0.097009 0.271511 0.206812
H148  H     H_    0.456628 0.080800 0.331513 0.264883
Br5   Br    Br    0.398907 0.446581 0.002894 -0.513088
Br6   Br    Br    0.601090 0.446593 0.997138 -0.513075
Br7   Br    Br    0.898917 0.946543 0.002945 -0.513133
Br8   Br    Br    0.101087 0.946529 0.997015 -0.513147

loop_
_geom_bond_atom_site_label_1
_geom_bond_atom_site_label_2
_ccdc_geom_bond_type
C28   H4    S    
C211  H142  S    
C133  C137  A    
C62   H22   S    
C55   C59   A    
N11   H141  S    
C93   O35   A    
C205  H120  S    
C4    O4    A    
C165  C169  A    
Cu7   O40   S    
Cu8   O32   S    
Cu12  O16   S    
C135  C139  A    
C198  H90   S    
C31   C101  S    
N8    C208  S    
C196  N12   S    
N7    C207  S    
C139  C142  A    
C176  C184  A    
Cu2   O3    S    
C148  C160  A    
C149  C153  A    
C64   C84   A    
C137  C141  A    
C118  C131  A    
C134  C143  A    
C104  C116  S    
C11   C15   A    
C18   C58   S    
C162  C171  A    
C190  Br2   S    
C124  C158  S    
C70   C74   A    
C2    O2    A    
C176  H80   S    
C79   H31   S    
C89   H39   S    
C136  C140  A    
C202  H108  S    
C1    O17   A    
C203  H111  S    
N9    C209  S    
Cu9   O45   S    
C90   C124  S    
C96   O44   A    
C41   C49   A    
C180  C182  A    
C25   C29   A    
C93   C157  S    
C29   C99   S    
C27   C31   A    
Cu5   O38   S    
C28   C32   A    
C88   C122  S    
C137  H57   S    
C126  C129  A    
C120  H48   S    
C17   C21   A    
C102  O12   A    
C186  C190  S    
C19   C23   A    
Cu5   O41   S    
C10   C30   A    
Cu7   O35   S    
C16   C20   A    
C212  H148  S    
C95   O42   A    
Cu5   O29   S    
C163  C172  A    
C104  O16   A    
Cu9   O5    S    
Cu4   O27   S    
C15   H95   S    
C155  C185  S    
C204  H114  S    
C50   H14   S    
C205  H118  S    
C97   C159  S    
C24   C28   A    
C138  H58   S    
C207  H127  S    
C98   O47   A    
Cu10  O9    S    
C170  C184  S    
C157  C195  S    
C146  H62   S    
C138  C141  A    
C35   H7    S    
C8    C90   S    
C39   C43   A    
C203  H110  S    
Cu4   O20   S    
C133  H53   S    
C118  H46   S    
C33   H5    S    
C206  H122  S    
C108  H36   S    
C97   O46   A    
C2    O18   A    
C26   H2    S    
C106  C115  A    
C25   H1    S    
C37   H9    S    
C208  H130  S    
Cu8   O39   S    
C92   O34   A    
C108  C116  A    
C66   C70   A    
C139  H59   S    
C110  H42   S    
C49   C53   A    
C179  H87   S    
Cu12  O8    S    
C120  C126  A    
Cu2   O23   S    
C5    C189  S    
C61   C65   A    
C11   Br7   S    
C136  C144  A    
C103  O13   A    
C46   O22   A    
C73   C77   A    
C75   C79   A    
C147  H63   S    
C189  Br1   S    
N5    C205  S    
C210  H138  S    
C91   O37   A    
C43   C83   S    
C147  C151  A    
N10   H137  S    
C112  C114  A    
N12   C212  S    
C73   H25   S    
C211  H143  S    
C68   N8    S    
C77   H29   S    
C64   C68   A    
C123  C199  S    
C8    C192  S    
C120  C132  A    
C145  C159  A    
Cu12  O11   S    
C207  H126  S    
C30   C100  S    
C6    C88   S    
C164  H72   S    
C193  N9    S    
C165  H73   S    
C99   O5    A    
Cu1   O21   S    
C9    C13   A    
C101  O11   A    
C199  H91   S    
C204  H116  S    
Cu1   O1    S    
C148  H64   S    
C149  H65   S    
C130  C144  S    
C51   C55   A    
C44   C52   A    
C200  H92   S    
C146  C150  A    
Cu6   O34   S    
Cu1   Cu3   S    
C6    C190  S    
C12   Br8   S    
Cu11  O47   S    
C147  C160  A    
Cu3   O18   S    
C52   H16   S    
Cu1   O2    S    
C195  C199  S    
C206  H124  S    
C62   C66   A    
C66   N6    S    
C12   C16   A    
C97   O45   A    
C10   C14   A    
C208  H132  S    
C85   C141  S    
C95   C181  S    
C5    C197  S    
C123  C157  S    
C19   C59   S    
C158  C196  S    
C3    O3    A    
C74   H26   S    
C156  C194  S    
C125  C129  A    
N12   H145  S    
C47   O23   A    
Cu9   Cu10  S    
C161  C167  A    
C122  C198  S    
C105  H33   S    
C188  H84   S    
C42   C50   A    
C162  C168  A    
Cu11  O7    S    
C98   C160  S    
C26   C30   A    
C210  H140  S    
C85   O29   A    
C74   C78   A    
C201  H104  S    
C86   O32   A    
C164  C172  A    
C24   H100  S    
C49   H13   S    
C187  H83   S    
C34   C58   A    
C203  H112  S    
N6    C206  S    
C21   C25   A    
C18   C22   A    
C107  C111  A    
C105  C115  A    
C148  C152  A    
C163  H71   S    
C205  H119  S    
C158  C188  S    
C185  C189  S    
C156  C186  S    
C13   C17   A    
C188  C192  S    
C175  H79   S    
Cu10  O46   S    
C61   C81   A    
N7    H125  S    
C195  N11   S    
C99   O9    A    
Cu4   O28   S    
C194  C198  S    
C177  C181  A    
C124  N4    S    
C121  N1    S    
C37   C41   A    
Cu12  O48   S    
C191  C195  S    
C107  C116  A    
C157  C187  S    
C161  C171  A    
C189  C193  S    
C40   C44   A    
C185  H81   S    
C125  H49   S    
C54   H18   S    
C16   H96   S    
C48   O28   A    
C202  H107  S    
C119  H47   S    
Cu3   O26   S    
N9    H133  S    
C100  O10   A    
N11   C211  S    
C75   H27   S    
C178  H86   S    
C80   C84   A    
C7    C191  S    
C92   O38   A    
N4    H113  S    
C87   C185  S    
C15   C19   A    
N1    C201  S    
C50   C54   A    
Cu2   Cu4   S    
C13   H93   S    
C192  C196  S    
N10   C210  S    
C140  C142  A    
C64   H24   S    
N3    C203  S    
Cu9   O13   S    
C10   Br6   S    
C98   O48   A    
C112  H44   S    
C67   N7    S    
C61   H21   S    
C35   C59   A    
C123  N3    S    
C105  C109  A    
C167  H75   S    
C168  H76   S    
C45   O25   A    
N2    H105  S    
C212  H147  S    
C150  C153  A    
C91   O33   A    
C201  H102  S    
C95   O41   A    
C69   C73   A    
C20   C60   S    
C6    C46   S    
C174  C178  A    
C72   C76   A    
C179  C182  A    
C48   O24   A    
C168  C170  A    
C62   C82   A    
C94   C158  S    
C34   C38   A    
C27   H3    S    
C89   C187  S    
C39   H11   S    
C114  C132  S    
C87   H37   S    
C4    O20   A    
Cu6   O37   S    
Cu7   Cu8   S    
C55   H19   S    
C166  H74   S    
C87   C121  S    
C53   C57   A    
C5    C45   S    
C1    C69   S    
C56   C60   A    
C63   C83   A    
C68   C72   A    
C7    C47   S    
Cu6   O42   S    
C35   C39   A    
C8    C48   S    
C45   O21   A    
C103  C115  S    
C192  Br4   S    
Cu11  Cu12  S    
C77   C81   A    
C41   C81   S    
Cu6   O30   S    
N2    C202  S    
Cu2   O24   S    
C85   O30   A    
Cu8   O44   S    
C117  C127  A    
C119  C125  A    
C194  N10   S    
C51   H15   S    
C96   O43   A    
C4    C72   S    
C86   C142  S    
N5    H117  S    
Cu11  O12   S    
C173  H77   S    
C121  C155  S    
C122  C156  S    
C96   C182  S    
C44   C84   S    
C128  C130  A    
C174  C183  A    
C34   H6    S    
C129  C143  S    
C47   O27   A    
C3    O19   A    
C124  C200  S    
C122  N2    S    
C136  H56   S    
C76   H28   S    
C38   H10   S    
C180  H88   S    
C93   O39   A    
Cu10  O6    S    
C79   C83   A    
C43   C51   A    
C94   O40   A    
C197  H89   S    
C65   C69   A    
C109  H41   S    
C127  H51   S    
C111  C114  A    
C67   C71   A    
C128  H52   S    
C186  H82   S    
C104  O15   A    
C33   C37   A    
C178  C181  A    
C63   H23   S    
C108  C112  A    
C173  C183  A    
C22   C26   A    
C204  H115  S    
C163  C165  A    
C2    C70   S    
C145  C149  A    
C53   H17   S    
C175  C184  A    
C101  O7    A    
C134  H54   S    
C207  H128  S    
C102  O8    A    
C1    O1    A    
C14   C18   A    
C3    C71   S    
N8    H129  S    
C42   C82   S    
C196  C200  S    
C36   H8    S    
C111  H43   S    
C17   C57   S    
Cu3   O17   S    
Cu4   O19   S    
N6    H121  S    
Cu5   Cu6   S    
C206  H123  S    
C126  H50   S    
C78   H30   S    
C40   H12   S    
C107  H35   S    
C38   C42   A    
C208  H131  S    
N4    C204  S    
Cu11  O15   S    
C7    C89   S    
C56   H20   S    
C151  C154  A    
C78   C82   A    
C169  C183  S    
C151  H67   S    
C152  H68   S    
Cu9   O10   S    
C161  H69   S    
C20   C24   A    
C103  O14   A    
C23   H99   S    
C23   C27   A    
Cu2   O4    S    
C9    C29   A    
Cu7   O31   S    
C134  C138  A    
C11   C31   A    
C210  H139  S    
C12   C32   A    
C135  H55   S    
C201  H103  S    
Cu5   O33   S    
C14   H94   S    
C118  C128  A    
C117  C131  A    
Cu7   O43   S    
C167  C170  A    
C162  H70   S    
C211  H144  S    
C63   C67   A    
C133  C143  A    
C9    Br5   S    
C191  Br3   S    
C36   C40   A    
C6    C198  S    
C8    C200  S    
C175  C179  A    
C146  C159  A    
C89   C123  S    
C90   H40   S    
C80   H32   S    
C5    C87   S    
C145  H61   S    
Cu1   O22   S    
C150  H66   S    
C91   C155  S    
C155  C193  S    
C117  H45   S    
C176  C180  A    
C65   N5    S    
C209  H134  S    
C173  C177  A    
C153  C171  S    
C209  H135  S    
C119  C132  A    
C209  H136  S    
C154  C172  S    
C92   C156  S    
C106  H34   S    
C140  H60   S    
C110  C113  A    
C121  C197  S    
C135  C144  A    
C152  C154  A    
Cu10  O14   S    
C32   C102  S    
C76   C80   A    
C88   H38   S    
C202  H106  S    
C54   C58   A    
C100  O6    A    
Cu3   O25   S    
C33   C57   A    
C113  C131  S    
C46   O26   A    
C187  C191  S    
C36   C60   A    
Cu8   O36   S    
C109  C113  A    
C177  H85   S    
N1    H101  S    
C22   H98   S    
C164  C166  A    
C127  C130  A    
N3    H109  S    
C71   C75   A    
C90   C188  S    
C193  C197  S    
C88   C186  S    
C7    C199  S    
C190  C194  S    
C94   O36   A    
C166  C169  A    
C106  C110  A    
C212  H146  S    
C174  H78   S    
C86   O31   A    
C21   H97   S    
C52   C56   A    
