data_mof_unit_60831.cif
_audit_creation_date              2013-03-05T16:22:41-0500
_audit_creation_method            fapswitch 2.2
_symmetry_space_group_name_H-M    P1
_symmetry_Int_Tables_number       1
_space_group_crystal_system       triclinic
_cell_length_a                    30.817418
_cell_length_b                    21.737854
_cell_length_c                    21.759929
_cell_angle_alpha                 89.750882
_cell_angle_beta                  135.160429
_cell_angle_gamma                 90.068732
_cell_volume                      10278.5131623

loop_
_atom_site_label
_atom_site_type_symbol
_atom_site_description
_atom_site_fract_x
_atom_site_fract_y
_atom_site_fract_z
_atom_type_partial_charge
O1    O     O_R   0.090190 0.500000 0.142390 -0.588078
O2    O     O_R   0.590190 0.000000 0.142390 -0.587715
O3    O     O_R   0.090130 0.500000 0.037950 -0.582831
O4    O     O_R   0.590130 0.000000 0.037950 -0.589193
C1    C     C_R   0.118759 0.500193 0.118777 0.797498
C2    C     C_R   0.618676 0.999970 0.118726 0.796033
O5    O     O_R   0.000030 0.590170 0.052220 -0.583328
O6    O     O_R   0.000030 0.409830 0.052220 -0.584822
O7    O     O_R   0.500030 0.090170 0.052220 -0.585313
O8    O     O_R   0.500030 0.909830 0.052220 -0.582967
O9    O     O_R   0.999970 0.590160 0.947780 -0.593372
O10   O     O_R   0.999970 0.409840 0.947780 -0.587524
O11   O     O_R   0.499970 0.090160 0.947780 -0.591894
O12   O     O_R   0.499970 0.909840 0.947780 -0.595857
C3    C     C_R   0.000058 0.619005 0.999916 0.794029
C4    C     C_R   0.000017 0.381423 0.000118 0.800061
C5    C     C_R   0.500300 0.118758 0.000110 0.804990
C6    C     C_R   0.500389 0.881192 0.000416 0.796968
Cu1   Cu    Cu3+1 0.000030 0.500000 0.061840 0.940136
Cu2   Cu    Cu3+1 0.500030 1.000000 0.061840 0.937350
Cu3   Cu    Cu3+1 0.999960 0.500000 0.938160 0.949614
Cu4   Cu    Cu3+1 0.499960 0.000000 0.938160 0.938448
O13   O     O_R   0.909850 0.500000 0.962050 -0.585207
O14   O     O_R   0.409850 0.000000 0.962050 -0.585841
O15   O     O_R   0.909790 0.500000 0.857610 -0.586664
O16   O     O_R   0.409790 1.000000 0.857610 -0.583663
C7    C     C_R   0.881478 0.500121 0.881363 0.799097
C8    C     C_R   0.381601 0.000315 0.881556 0.801787
C9    C     C_R   0.002186 0.718869 0.056797 0.060168
C10   C     C_R   0.039402 0.280938 0.074779 0.028219
C11   C     C_R   0.480402 0.219274 0.029114 0.056117
C12   C     C_R   0.487683 0.780310 0.039601 0.035908
C13   C     C_R   0.003381 0.686009 0.002918 -0.070948
C14   C     C_R   0.998425 0.315216 0.998631 -0.046737
C15   C     C_R   0.500882 0.185340 0.999818 -0.083730
C16   C     C_R   0.500386 0.814513 0.999833 -0.072937
C17   C     C_R   0.011232 0.719032 0.955436 -0.198260
C18   C     C_R   0.955400 0.282942 0.919379 -0.207708
C19   C     C_R   0.521890 0.218543 0.968967 -0.203023
C20   C     C_R   0.512516 0.781502 0.957360 -0.202408
H1    H     H_    0.015799 0.695350 0.916579 0.164765
H2    H     H_    0.922105 0.307673 0.858141 0.142923
H3    H     H_    0.538706 0.194679 0.945602 0.162984
H4    H     H_    0.522792 0.805423 0.925165 0.160735
C21   C     C_R   0.010584 0.783484 0.954912 -0.218138
C22   C     C_R   0.955026 0.218057 0.919332 -0.191382
C23   C     C_R   0.522222 0.283416 0.969649 -0.213505
C24   C     C_R   0.512634 0.716691 0.957745 -0.197078
H5    H     H_    0.014829 0.808411 0.916158 0.132139
H6    H     H_    0.921563 0.193970 0.857932 0.150493
H7    H     H_    0.539029 0.308259 0.946679 0.144372
H8    H     H_    0.523010 0.692096 0.926203 0.131919
C25   C     C_R   0.001570 0.815173 0.001137 -0.008363
C26   C     C_R   0.998955 0.184999 0.998302 -0.106644
C27   C     C_R   0.500189 0.315527 0.999157 -0.093144
C28   C     C_R   0.499313 0.684309 0.998844 -0.083581
C29   C     C_R   0.001681 0.782330 0.056342 0.027025
C30   C     C_R   0.040190 0.218740 0.074486 -0.016748
C31   C     C_R   0.478974 0.281334 0.027271 0.101844
C32   C     C_R   0.485417 0.718113 0.036855 -0.030536
C33   C     C_3   0.959246 0.785424 0.067629 0.259537
C34   C     C_3   0.095792 0.215056 0.171297 0.314936
C35   C     C_3   0.454747 0.285593 0.066817 0.256039
C36   C     C_3   0.474061 0.714209 0.093417 0.273957
C37   C     C_3   0.958971 0.715222 0.066704 -0.498797
C38   C     C_3   0.094313 0.286116 0.170661 -0.529163
C39   C     C_3   0.455700 0.214458 0.067958 -0.518697
C40   C     C_3   0.476389 0.785280 0.095768 -0.483655
H9    H     H_    0.982346 0.806438 0.131400 0.062147
H10   H     H_    0.136542 0.196521 0.187505 0.115373
H11   H     H_    0.488165 0.308082 0.132003 0.055410
H12   H     H_    0.513601 0.692993 0.157845 0.099176
H13   H     H_    0.913859 0.694727 0.008768 0.206527
H14   H     H_    0.082832 0.306538 0.204454 0.212751
H15   H     H_    0.409366 0.192874 0.022530 0.210465
H16   H     H_    0.432156 0.808549 0.062211 0.201331
H17   H     H_    0.981161 0.694651 0.130272 0.164856
H18   H     H_    0.134036 0.307449 0.186447 0.162017
H19   H     H_    0.489853 0.194553 0.134792 0.169151
H20   H     H_    0.517022 0.803839 0.161282 0.173114
C41   C     C_R   0.218218 0.455465 0.251164 0.095158
C42   C     C_R   0.717643 0.049813 0.241491 0.093980
C43   C     C_R   0.185383 0.499310 0.184487 -0.086876
C44   C     C_R   0.685140 0.000401 0.184458 -0.065671
C45   C     C_R   0.217677 0.539058 0.177382 -0.194366
C46   C     C_R   0.717545 0.953795 0.186344 -0.230655
H21   H     H_    0.193215 0.571324 0.123569 0.157134
H22   H     H_    0.693187 0.916576 0.139679 0.148555
C47   C     C_R   0.282080 0.539925 0.243088 -0.185312
C48   C     C_R   0.781928 0.953125 0.252276 -0.208956
H23   H     H_    0.306533 0.572397 0.238935 0.176640
H24   H     H_    0.806362 0.915391 0.255623 0.171910
C49   C     C_R   0.314487 0.499506 0.314448 -0.092898
C50   C     C_R   0.814266 0.000380 0.314421 -0.086357
C51   C     C_R   0.281836 0.455037 0.314562 0.131471
C52   C     C_R   0.781248 0.050071 0.305005 0.132813
C53   C     C_3   0.285176 0.439307 0.384683 -0.491941
C54   C     C_3   0.784380 0.078163 0.370546 -0.480603
C55   C     C_3   0.215277 0.439700 0.314939 -0.448466
C56   C     C_3   0.714449 0.077929 0.300619 -0.462753
H25   H     H_    0.305653 0.476874 0.433026 0.189895
H26   H     H_    0.305291 0.392898 0.412947 0.200985
H27   H     H_    0.804288 0.125201 0.389280 0.199250
H28   H     H_    0.804994 0.046599 0.425984 0.189319
H29   H     H_    0.195337 0.477340 0.323131 0.211948
H30   H     H_    0.195085 0.393475 0.302854 0.193620
H31   H     H_    0.694013 0.124850 0.278843 0.194036
H32   H     H_    0.694515 0.046375 0.315649 0.211784
C57   C     C_R   0.781427 0.544585 0.809239 0.126761
C58   C     C_R   0.281784 0.052733 0.785112 0.104654
C59   C     C_R   0.815396 0.498952 0.814829 -0.076101
C60   C     C_R   0.315766 0.999017 0.815888 -0.058774
C61   C     C_R   0.782935 0.451481 0.752649 -0.230889
C62   C     C_R   0.283689 0.942918 0.782482 -0.227692
H33   H     H_    0.807516 0.414735 0.754401 0.147334
H34   H     H_    0.308509 0.899686 0.805350 0.137356
C63   C     C_R   0.718043 0.451002 0.688461 -0.186563
C64   C     C_R   0.218849 0.942758 0.718646 -0.204951
H35   H     H_    0.693811 0.413961 0.641537 0.173426
H36   H     H_    0.195138 0.899055 0.693247 0.171224
C65   C     C_R   0.685209 0.499089 0.684383 -0.107620
C66   C     C_R   0.185594 0.998853 0.687538 -0.109492
C67   C     C_R   0.719369 0.545294 0.746073 0.117664
C68   C     C_R   0.219737 0.052742 0.724010 0.120862
C69   C     C_3   0.715149 0.603807 0.776970 -0.460147
C70   C     C_3   0.215590 0.121187 0.720882 -0.436188
C71   C     C_3   0.786108 0.603186 0.848710 -0.493441
C72   C     C_3   0.286525 0.120951 0.790970 -0.494774
H37   H     H_    0.694319 0.597033 0.802239 0.193733
H38   H     H_    0.695133 0.641867 0.728985 0.204132
H39   H     H_    0.195832 0.138589 0.744785 0.200567
H40   H     H_    0.194543 0.140162 0.657105 0.200722
H41   H     H_    0.806280 0.596345 0.915444 0.203576
H42   H     H_    0.806997 0.640675 0.841802 0.199561
H43   H     H_    0.307816 0.137955 0.855496 0.203579
H44   H     H_    0.306295 0.139804 0.767574 0.204929
O17   O     O_R   0.947810 0.000000 0.857560 -0.587779
O18   O     O_R   0.447810 0.500000 0.857560 -0.587628
O19   O     O_R   0.052190 0.000000 0.962010 -0.586468
O20   O     O_R   0.552190 0.500000 0.962010 -0.585350
C73   C     C_R   0.999937 0.999924 0.881325 0.792720
C74   C     C_R   0.500022 0.500303 0.881298 0.789225
O21   O     O_R   0.947800 0.909830 0.947720 -0.545864
O22   O     O_R   0.947800 0.090170 0.947720 -0.592981
O23   O     O_R   0.447800 0.409830 0.947720 -0.557393
O24   O     O_R   0.447800 0.590170 0.947720 -0.596668
O25   O     O_R   0.052180 0.909820 0.052170 -0.602579
O26   O     O_R   0.052180 0.090180 0.052170 -0.582497
O27   O     O_R   0.552180 0.409820 0.052170 -0.591865
O28   O     O_R   0.552180 0.590180 0.052170 -0.587235
C75   C     C_R   0.000169 0.881405 0.000223 0.799547
C76   C     C_R   0.999848 0.118664 0.999543 0.792463
C77   C     C_R   0.500047 0.381505 0.000346 0.804015
C78   C     C_R   0.499860 0.618431 0.000670 0.796364
Cu5   Cu    Cu3+1 0.938190 0.000000 0.938110 0.955796
Cu6   Cu    Cu3+1 0.438190 0.500000 0.938110 0.962019
Cu7   Cu    Cu3+1 0.061790 1.000000 0.061790 0.948570
Cu8   Cu    Cu3+1 0.561790 0.500000 0.061790 0.942822
O29   O     O_R   0.947790 0.000000 0.037880 -0.587118
O30   O     O_R   0.447790 0.500000 0.037880 -0.578331
O31   O     O_R   0.052170 0.000000 0.142340 -0.588515
O32   O     O_R   0.552170 0.500000 0.142340 -0.601650
C79   C     C_R   0.000232 0.999387 0.119056 0.829839
C80   C     C_R   0.500204 0.500756 0.118918 0.831505
O33   O     O_R   0.499940 0.552220 0.409760 -0.593444
O34   O     O_R   0.499940 0.447780 0.409760 -0.592704
O35   O     O_R   0.999940 0.052220 0.409760 -0.615926
O36   O     O_R   0.999940 0.947780 0.409760 -0.545408
C81   C     C_R   0.497064 0.500071 0.378595 0.841591
C82   C     C_R   0.997638 0.000312 0.378880 0.872118
O37   O     O_R   0.409830 0.552190 0.409810 -0.588269
O38   O     O_R   0.409830 0.447810 0.409810 -0.600486
O39   O     O_R   0.909830 0.052190 0.409810 -0.602896
O40   O     O_R   0.909830 0.947810 0.409810 -0.582698
C83   C     C_R   0.381205 0.500039 0.382958 0.768742
C84   C     C_R   0.881137 0.000015 0.383103 0.772950
Cu9   Cu    Cu3+1 0.500000 0.561790 0.499990 0.935844
Cu10  Cu    Cu3+1 0.500000 0.438210 0.499990 0.939775
Cu11  Cu    Cu3+1 0.000000 0.061790 0.499990 0.928992
Cu12  Cu    Cu3+1 0.000000 0.938210 0.499990 0.971565
O41   O     O_R   0.500050 0.552150 0.590200 -0.590017
O42   O     O_R   0.500050 0.447850 0.590200 -0.583959
O43   O     O_R   0.000050 0.052150 0.590200 -0.587586
O44   O     O_R   0.000050 0.947850 0.590200 -0.591758
O45   O     O_R   0.590170 0.552180 0.590150 -0.590053
O46   O     O_R   0.590170 0.447820 0.590150 -0.581808
O47   O     O_R   0.090170 0.052180 0.590150 -0.587399
O48   O     O_R   0.090170 0.947820 0.590150 -0.585684
C85   C     C_R   0.500340 0.499851 0.619292 0.792282
C86   C     C_R   0.000157 0.999840 0.618855 0.794491
C87   C     C_R   0.618731 0.499860 0.618626 0.841582
C88   C     C_R   0.118861 0.999825 0.619489 0.834545
C89   C     C_R   0.968084 0.041930 0.749023 0.123941
C90   C     C_R   0.483827 0.447889 0.766363 0.089647
C91   C     C_R   0.000037 0.998505 0.815305 -0.078160
C92   C     C_R   0.501180 0.500234 0.816071 -0.062506
C93   C     C_R   0.033542 0.953375 0.816634 -0.214942
C94   C     C_R   0.527730 0.549535 0.810440 -0.211243
H45   H     H_    0.059168 0.918300 0.867030 0.146560
H46   H     H_    0.545451 0.589042 0.852660 0.137621
C95   C     C_R   0.528250 0.549431 0.746547 -0.208680
C96   C     C_R   0.033139 0.953039 0.751379 -0.206518
H47   H     H_    0.546306 0.589048 0.740378 0.158959
H48   H     H_    0.058643 0.917712 0.752890 0.157984
C97   C     C_R   0.503752 0.499163 0.689592 -0.095226
C98   C     C_R   0.000892 0.999075 0.686014 -0.094673
C99   C     C_R   0.485380 0.447214 0.704444 0.145797
C100  C     C_R   0.969527 0.042997 0.688469 0.129351
C101  C     C_3   0.427168 0.411055 0.642240 -0.468054
C102  C     C_3   0.930150 0.099032 0.644504 -0.464252
C103  C     C_3   0.929051 0.098080 0.714248 -0.491413
C104  C     C_3   0.425575 0.411864 0.710471 -0.474063
H49   H     H_    0.434854 0.364375 0.630727 0.201977
H50   H     H_    0.388983 0.437538 0.582414 0.189581
H51   H     H_    0.884703 0.089336 0.577702 0.190087
H52   H     H_    0.955340 0.138960 0.650137 0.206651
H53   H     H_    0.882929 0.088100 0.687613 0.205797
H54   H     H_    0.953992 0.137216 0.760484 0.194494
H55   H     H_    0.432541 0.365675 0.738504 0.197169
H56   H     H_    0.386401 0.438774 0.690111 0.213877
C105  C     C_R   0.951151 0.024803 0.168435 -0.005833
C106  C     C_R   0.446715 0.500401 0.164769 -0.016580
C107  C     C_R   0.001476 0.002164 0.186985 -0.105661
C108  C     C_R   0.500947 0.501642 0.186189 -0.098747
C109  C     C_R   0.054739 0.986210 0.273555 -0.329581
C110  C     C_R   0.556467 0.502882 0.275639 -0.326011
H57   H     H_    0.094902 0.970440 0.289119 0.158422
H58   H     H_    0.600037 0.502820 0.295347 0.162853
C111  C     C_R   0.555699 0.504235 0.340156 0.465075
C112  C     C_R   0.054932 0.987388 0.338879 0.441802
C113  C     C_R   0.498727 0.500008 0.314126 -0.174325
C114  C     C_R   0.999616 0.001957 0.314189 -0.143670
C115  C     C_R   0.445113 0.497649 0.225245 -0.204049
C116  C     C_R   0.950205 0.026532 0.230775 -0.105265
C117  C     C_3   0.375008 0.497782 0.154212 0.840605
C118  C     C_3   0.881871 0.012842 0.162739 0.796068
C119  C     C_3   0.885021 0.009212 0.095987 -0.456246
C120  C     C_3   0.379066 0.502396 0.087705 -0.411657
H59   H     H_    0.858837 0.046125 0.045605 0.188630
H60   H     H_    0.878086 0.962248 0.070339 0.175252
H61   H     H_    0.363417 0.546880 0.052159 0.177662
H62   H     H_    0.362139 0.461333 0.045848 0.190767
O49   O     O_3   0.609687 0.506166 0.428478 -0.583505
C121  C     C_3   0.645909 0.557124 0.446852 0.052686
H63   H     H_    0.617407 0.599141 0.409878 0.136560
H64   H     H_    0.672519 0.545939 0.431437 0.146436
C122  C     C_3   0.691536 0.571826 0.543484 -0.764015
H65   H     H_    0.721424 0.531333 0.582743 0.258344
H66   H     H_    0.720923 0.611123 0.558846 0.195957
H67   H     H_    0.666483 0.584455 0.560917 0.251455
O50   O     O_3   0.106200 0.970709 0.425222 -0.579883
C123  C     C_3   0.161712 0.991919 0.454324 0.045081
H68   H     H_    0.156428 0.038235 0.427269 0.147676
H69   H     H_    0.178260 0.958280 0.436289 0.152979
C124  C     C_3   0.210570 0.997278 0.552973 -0.757871
H70   H     H_    0.216787 0.952364 0.582927 0.259723
H71   H     H_    0.255055 0.011237 0.576766 0.201052
H72   H     H_    0.196483 0.032721 0.572576 0.242948
O51   O     O_3   0.342687 0.548319 0.148635 -0.592104
C125  C     C_3   0.376182 0.604155 0.182794 -0.003463
H73   H     H_    0.402268 0.612304 0.165764 0.179151
H74   H     H_    0.408591 0.604092 0.254761 0.168266
C126  C     C_3   0.331589 0.657639 0.145511 -0.758226
H75   H     H_    0.306114 0.653392 0.163917 0.234014
H76   H     H_    0.357335 0.701700 0.171259 0.208716
H77   H     H_    0.298120 0.658159 0.073343 0.252923
O52   O     O_3   0.347737 0.440719 0.142525 -0.602765
C127  C     C_3   0.359781 0.424655 0.216226 0.102091
H78   H     H_    0.364221 0.465488 0.250651 0.148919
H79   H     H_    0.402921 0.397245 0.261706 0.155900
C128  C     C_3   0.307341 0.385269 0.187843 -0.776591
H80   H     H_    0.301676 0.343851 0.153006 0.234989
H81   H     H_    0.317499 0.370368 0.245856 0.206935
H82   H     H_    0.263818 0.412190 0.143907 0.261300
O53   O     O_3   0.843677 0.062770 0.142547 -0.622920
C129  C     C_3   0.857222 0.081587 0.216437 0.075331
H83   H     H_    0.900009 0.109498 0.259668 0.162072
H84   H     H_    0.862582 0.041489 0.252805 0.159044
C130  C     C_3   0.804728 0.121239 0.187518 -0.786712
H85   H     H_    0.761760 0.093756 0.146798 0.245332
H86   H     H_    0.816034 0.138390 0.245498 0.210196
H87   H     H_    0.797377 0.161271 0.149087 0.250083
O54   O     O_3   0.867980 0.955779 0.177513 -0.616575
C131  C     C_3   0.804774 0.941608 0.107857 0.094358
H88   H     H_    0.786150 0.953623 0.042921 0.143745
H89   H     H_    0.777806 0.966783 0.116064 0.181350
C132  C     C_3   0.795865 0.872840 0.108457 -0.846715
H90   H     H_    0.814029 0.858423 0.172176 0.253121
H91   H     H_    0.746142 0.861457 0.056095 0.205172
H92   H     H_    0.820751 0.846966 0.097241 0.241698
O55   O     O_3   0.901907 0.811343 0.993365 -0.537789
C133  C     C_3   0.866244 0.820665 0.010875 0.083333
H93   H     H_    0.890217 0.851697 0.067699 0.137136
H94   H     H_    0.856217 0.776011 0.023955 0.140532
C134  C     C_3   0.805571 0.850737 0.931933 -0.785418
H95   H     H_    0.780146 0.820658 0.874071 0.250512
H96   H     H_    0.776873 0.858231 0.944633 0.192817
H97   H     H_    0.814323 0.895857 0.918251 0.250058
O56   O     O_3   0.089631 0.187883 0.224647 -0.562316
C135  C     C_3   0.028568 0.185814 0.185865 0.114976
H98   H     H_    0.001862 0.150290 0.133996 0.139991
H99   H     H_    0.005148 0.231218 0.158200 0.145727
C136  C     C_3   0.029933 0.168236 0.254959 -0.784069
H100  H     H_    0.054350 0.204133 0.306145 0.243383
H101  H     H_    0.982211 0.163918 0.224779 0.206861
H102  H     H_    0.054169 0.123635 0.285580 0.253728
O57   O     O_3   0.394487 0.309955 0.006620 -0.543468
C137  C     C_3   0.375151 0.317663 0.048614 0.079461
H103  H     H_    0.401566 0.355402 0.097213 0.156749
H104  H     H_    0.381270 0.274568 0.082073 0.136480
C138  C     C_3   0.307138 0.334340 0.981084 -0.744913
H105  H     H_    0.279687 0.296015 0.934127 0.236203
H106  H     H_    0.291963 0.342795 0.013809 0.226068
H107  H     H_    0.298853 0.376471 0.944916 0.247297
O58   O     O_3   0.416852 0.689382 0.056563 -0.571483
C139  C     C_3   0.367454 0.697017 0.965090 0.117205
H108  H     H_    0.372298 0.664154 0.931332 0.171225
H109  H     H_    0.364568 0.744644 0.943596 0.137627
C140  C     C_3   0.307259 0.683509 0.937590 -0.819958
H110  H     H_    0.300899 0.716095 0.969871 0.247988
H111  H     H_    0.268182 0.688794 0.865849 0.201775
H112  H     H_    0.307502 0.635751 0.956052 0.249350

loop_
_geom_bond_atom_site_label_1
_geom_bond_atom_site_label_2
_geom_bond_distance
_ccdc_geom_bond_type
C90   C92   1.392685 A    
C124  H71   1.110533 S    
C27   C31   1.384282 A    
C105  C116  1.377990 A    
O55   C133  1.410382 S    
C136  H101  1.110632 S    
C11   C39   1.488762 S    
C131  H88   1.114102 S    
C44   C46   1.403303 A    
C63   H35   1.083020 S    
C41   C51   1.382478 A    
C46   H22   1.083466 S    
C89   C103  1.487950 S    
O39   Cu11  1.971052 S    
C128  H80   1.110675 S    
C9    C13   1.398096 A    
C121  H63   1.116413 S    
C34   H10   1.111590 S    
C126  H76   1.110500 S    
C11   C31   1.349322 A    
C93   H45   1.083318 S    
O27   C77   1.290732 A    
O9    C3    1.296929 A    
C57   C71   1.488143 S    
O10   C4    1.292366 A    
O8    Cu2   1.972155 S    
C132  H91   1.110403 S    
O35   C82   1.291737 A    
O38   C83   1.293941 A    
O21   C75   1.293466 A    
O6    C4    1.293086 A    
C89   C100  1.349648 A    
C118  O54   1.419750 S    
C116  C118  1.515263 S    
O31   C79   1.291783 A    
O32   C80   1.291189 A    
O33   C81   1.293837 A    
C37   H17   1.111231 S    
O50   C123  1.415811 S    
C39   H19   1.111260 S    
C28   C78   1.432204 S    
C46   C48   1.399365 A    
C72   H43   1.111756 S    
C10   C14   1.385478 A    
C26   C76   1.442031 S    
C104  H56   1.112137 S    
C33   O55   1.412871 S    
C101  H49   1.111509 S    
C81   C113  1.439650 S    
C105  C119  1.483271 S    
C139  H108  1.110202 S    
Cu1   O13   1.969882 S    
C80   C108  1.447896 S    
C48   H24   1.080876 S    
C136  H100  1.110511 S    
O24   C78   1.288872 A    
C114  C116  1.404451 A    
C59   C61   1.409403 A    
C50   C52   1.396137 A    
Cu10  O42   1.973937 S    
C127  H79   1.110305 S    
O5    Cu1   1.970343 S    
C17   C21   1.401111 A    
C135  H98   1.111874 S    
C19   C23   1.410295 A    
C122  H67   1.110021 S    
C20   C24   1.408836 A    
C103  H54   1.111735 S    
C131  C132  1.521224 S    
C51   C53   1.492841 S    
C29   C33   1.493603 S    
C31   C35   1.489474 S    
C109  C112  1.417582 A    
C121  C122  1.520665 S    
C32   C36   1.501447 S    
C133  H94   1.113698 S    
O8    C6    1.296977 A    
Cu6   Cu8   2.685860 S    
O9    Cu3   1.971911 S    
C130  H86   1.110191 S    
C64   H36   1.082640 S    
C65   C67   1.387133 A    
C90   C104  1.491210 S    
Cu10  O46   1.971077 S    
C69   H37   1.111637 S    
C24   H8    1.083504 S    
O19   Cu7   1.972487 S    
C69   C71   1.542007 S    
C94   H46   1.083520 S    
C54   H27   1.111556 S    
C58   C72   1.487056 S    
C123  H68   1.116264 S    
C61   H33   1.083324 S    
C140  H111  1.110454 S    
O33   Cu9   1.973985 S    
C71   H42   1.111748 S    
C60   C62   1.406592 A    
C134  H96   1.110121 S    
C90   C99   1.381847 A    
C139  C140  1.520357 S    
C36   C40   1.545904 S    
Cu1   Cu3   2.689739 S    
C86   C98   1.445414 S    
C57   C59   1.384032 A    
C102  H51   1.110737 S    
C38   H14   1.111367 S    
C118  C119  1.525268 S    
O17   Cu5   1.974080 S    
C64   C66   1.416808 A    
Cu7   O31   1.974080 S    
C4    C14   1.439704 S    
C52   C54   1.492747 S    
C47   H23   1.081242 S    
O27   Cu8   1.971963 S    
C135  C136  1.521029 S    
C21   C25   1.402178 A    
C49   C51   1.395732 A    
C34   O56   1.427918 S    
C95   H47   1.083069 S    
C41   C43   1.394843 A    
C137  H104  1.114894 S    
C97   C99   1.398227 A    
C111  O49   1.389023 S    
C117  O52   1.416590 S    
C56   H32   1.112097 S    
O6    Cu1   1.972155 S    
C34   C38   1.545144 S    
Cu5   O29   1.972271 S    
Cu6   O30   1.972271 S    
C57   C67   1.348685 A    
C49   C83   1.450229 S    
C140  H110  1.110618 S    
O25   C75   1.289436 A    
C33   C37   1.526180 S    
O4    Cu4   1.969688 S    
O21   Cu5   1.970647 S    
C70   H40   1.111725 S    
C93   C96   1.411222 A    
C10   C38   1.491260 S    
C106  C108  1.380715 A    
O47   C88   1.296199 A    
C123  C124  1.518758 S    
C61   C63   1.410334 A    
C138  H106  1.110481 S    
C117  C120  1.541245 S    
C9    C37   1.494390 S    
C36   O58   1.427965 S    
C39   H15   1.112145 S    
Cu2   Cu4   2.689739 S    
C128  H81   1.110275 S    
C66   C68   1.389284 A    
C112  O50   1.394059 S    
O40   Cu12  1.969951 S    
C68   C70   1.490604 S    
O38   Cu10  1.969951 S    
C27   C77   1.434642 S    
C55   H30   1.111220 S    
Cu3   O15   1.971452 S    
C70   C72   1.541614 S    
O14   C8    1.289683 A    
C99   C101  1.493462 S    
C125  H73   1.111981 S    
C65   C87   1.444801 S    
C62   H34   1.083384 S    
O52   C127  1.408153 S    
C107  C109  1.404900 A    
C66   C88   1.450398 S    
C40   H16   1.110865 S    
O11   C5    1.293413 A    
O48   C88   1.292554 A    
O12   Cu4   1.970104 S    
C131  H89   1.111102 S    
O22   C76   1.290975 A    
O19   C73   1.290783 A    
Cu9   O41   1.972124 S    
O5    C3    1.297465 A    
C109  H57   1.081524 S    
C121  H64   1.111472 S    
O44   C86   1.291999 A    
O26   Cu7   1.970857 S    
C17   H1    1.082788 S    
C58   C60   1.382098 A    
C18   C22   1.410480 A    
Cu12  O44   1.973937 S    
C20   H4    1.082829 S    
C129  H83   1.111603 S    
C119  H60   1.111148 S    
O54   C131  1.414934 S    
C25   C75   1.440069 S    
C95   C97   1.408151 A    
O37   Cu9   1.971052 S    
O51   C125  1.417006 S    
C91   C93   1.410392 A    
C30   C34   1.503341 S    
C128  H82   1.110835 S    
O35   Cu11  1.973985 S    
Cu5   Cu7   2.685860 S    
O53   C129  1.407219 S    
C126  H75   1.109381 S    
C8    C60   1.430976 S    
C120  H61   1.109736 S    
C96   H48   1.083115 S    
O1    C1    1.296427 A    
O30   C80   1.296008 A    
O20   C74   1.290305 A    
C72   H44   1.111670 S    
C98   C100  1.387287 A    
C67   C69   1.489499 S    
Cu11  O47   1.969976 S    
C33   H9    1.115719 S    
O49   C121  1.414535 S    
C101  C104  1.520095 S    
Cu9   O45   1.969976 S    
C139  H109  1.111552 S    
C73   C91   1.439253 S    
O46   C87   1.291747 A    
Cu12  O48   1.971077 S    
C58   C68   1.348548 A    
O23   Cu6   1.970647 S    
O41   C85   1.295768 A    
C85   C97   1.457061 S    
C130  H85   1.110960 S    
O45   C87   1.294210 A    
O34   Cu10  1.972185 S    
C53   H26   1.111610 S    
O36   C82   1.298644 A    
C124  H72   1.109194 S    
O58   C139  1.416843 S    
C125  C126  1.520838 S    
C103  H53   1.111458 S    
C135  H99   1.112587 S    
C48   C50   1.405505 A    
C136  H102  1.110028 S    
C122  H66   1.110367 S    
C38   H18   1.111445 S    
O1    Cu1   1.971216 S    
C2    C44   1.444484 S    
O2    Cu2   1.971216 S    
O57   C137  1.411345 S    
O26   C76   1.293372 A    
C35   O57   1.411207 S    
O4    C2    1.292470 A    
O18   C74   1.295047 A    
C134  H95   1.110682 S    
C45   C47   1.399842 A    
C23   H7    1.083420 S    
C13   C17   1.410310 A    
C28   C32   1.384156 A    
C15   C19   1.414867 A    
O56   C135  1.415407 S    
O7    Cu2   1.970343 S    
C132  H90   1.109028 S    
C129  C130  1.520161 S    
C21   H5    1.083588 S    
C22   C26   1.412254 A    
C132  H92   1.109830 S    
C113  C115  1.393528 A    
C92   C94   1.404268 A    
C43   C45   1.405661 A    
C9    C29   1.379515 A    
C54   C56   1.519655 S    
C11   C15   1.387313 A    
C12   C32   1.353123 A    
O43   C86   1.293350 A    
C12   C16   1.388878 A    
C123  H69   1.111746 S    
O17   C73   1.292236 A    
C25   C29   1.392645 A    
O28   Cu8   1.970857 S    
O16   C8    1.291590 A    
C71   H41   1.111476 S    
O3    C1    1.292746 A    
C104  H55   1.111657 S    
C41   C55   1.491849 S    
C101  H50   1.110617 S    
C118  O53   1.421932 S    
C111  C113  1.414783 A    
O36   Cu12  1.972185 S    
C102  H52   1.111464 S    
O11   Cu4   1.971911 S    
O40   C84   1.294361 A    
Cu11  Cu12  2.686366 S    
C127  H78   1.108096 S    
C137  C138  1.520902 S    
C117  O51   1.429584 S    
Cu9   Cu10  2.686366 S    
Cu4   O16   1.971452 S    
C5    C15   1.447475 S    
C6    C16   1.449555 S    
C50   C84   1.453492 S    
C40   H20   1.111408 S    
C126  H77   1.110348 S    
C138  H105  1.110684 S    
C106  C115  1.352505 A    
O12   C6    1.293323 A    
C133  H93   1.113699 S    
C18   H2    1.083303 S    
C1    C43   1.448047 S    
C37   H13   1.112842 S    
C130  H87   1.110570 S    
C63   C65   1.413762 A    
C69   H38   1.111551 S    
Cu2   O14   1.969882 S    
C89   C91   1.384634 A    
O42   C85   1.294896 A    
O13   C7    1.292292 A    
C12   C40   1.493694 S    
O20   Cu8   1.972487 S    
C140  H112  1.109675 S    
C47   C49   1.404103 A    
O2    C2    1.294949 A    
C53   C55   1.518928 S    
C22   H6    1.083285 S    
C134  H97   1.110881 S    
Cu11  O43   1.972124 S    
C45   H21   1.083359 S    
C55   H29   1.112063 S    
C35   C39   1.546393 S    
C42   C52   1.382185 A    
C16   C20   1.416059 A    
C125  H74   1.109851 S    
C19   H3    1.082937 S    
O37   C83   1.295036 A    
O10   Cu3   1.970104 S    
C106  C120  1.483879 S    
C82   C114  1.451804 S    
C112  C114  1.412755 A    
C127  C128  1.520525 S    
C94   C95   1.401730 A    
C115  C117  1.523454 S    
C62   C64   1.409273 A    
O7    C5    1.295858 A    
C129  H84   1.105579 S    
C110  H58   1.081757 S    
C119  H59   1.111864 S    
C96   C98   1.413338 A    
O29   C79   1.297526 A    
O3    Cu3   1.969688 S    
C124  H70   1.110238 S    
O25   Cu7   1.971963 S    
C137  H103  1.113151 S    
C23   C27   1.408502 A    
C26   C30   1.386287 A    
O39   C84   1.296337 A    
O18   Cu6   1.974080 S    
C24   C28   1.406542 A    
C56   H31   1.111570 S    
C14   C18   1.410597 A    
C42   C56   1.491723 S    
C133  C134  1.520649 S    
C35   H11   1.115682 S    
C108  C110  1.412154 A    
C122  H65   1.110181 S    
C79   C107  1.452705 S    
O15   C7    1.291508 A    
C110  C111  1.421190 A    
C120  H62   1.109335 S    
C42   C44   1.394018 A    
O22   Cu5   1.971746 S    
O23   C77   1.290101 A    
C105  C107  1.386632 A    
C70   H39   1.111646 S    
C54   H28   1.112033 S    
C10   C30   1.352410 A    
C36   H12   1.111758 S    
Cu8   O32   1.974080 S    
C7    C59   1.436249 S    
O24   Cu6   1.971746 S    
O34   C81   1.291547 A    
C100  C102  1.489479 S    
C102  C103  1.541886 S    
O28   C78   1.290976 A    
C138  H107  1.110241 S    
C74   C92   1.444870 S    
C3    C13   1.458500 S    
C53   H25   1.111984 S    
