data_mof_unit_60424.cif
_audit_creation_date              2013-03-05T16:28:55-0500
_audit_creation_method            fapswitch 2.2
_symmetry_space_group_name_H-M    P1
_symmetry_Int_Tables_number       1
_space_group_crystal_system       triclinic
_cell_length_a                    18.396346
_cell_length_b                    18.397572
_cell_length_c                    51.312248
_cell_angle_alpha                 90.009334
_cell_angle_beta                  90.000142
_cell_angle_gamma                 90.003463
_cell_volume                      17366.5325838

loop_
_atom_site_label
_atom_site_type_symbol
_atom_site_description
_atom_site_fract_x
_atom_site_fract_y
_atom_site_fract_z
_atom_type_partial_charge
Zn1   Zn    Zn3+2 1.000000 0.586670 0.021480 0.965584
Zn2   Zn    Zn3+2 0.413330 0.000000 0.021480 0.965567
Zn3   Zn    Zn3+2 1.000000 0.413330 0.021480 0.969064
Zn4   Zn    Zn3+2 0.586670 0.000000 0.021480 0.965515
Zn5   Zn    Zn3+2 0.500000 0.086670 0.521480 0.965240
Zn6   Zn    Zn3+2 0.913330 0.500000 0.521480 0.965314
Zn7   Zn    Zn3+2 0.500000 0.913330 0.521480 0.965222
Zn8   Zn    Zn3+2 0.086670 0.500000 0.521480 0.965308
Zn9   Zn    Zn3+2 0.913520 0.500000 0.977990 0.963428
Zn10  Zn    Zn3+2 0.500000 0.913520 0.977990 0.964310
Zn11  Zn    Zn3+2 0.086480 0.500000 0.977990 0.964197
Zn12  Zn    Zn3+2 0.500000 0.086480 0.977990 0.964294
Zn13  Zn    Zn3+2 0.413520 0.000000 0.477990 0.964354
Zn14  Zn    Zn3+2 1.000000 0.413520 0.477990 0.964320
Zn15  Zn    Zn3+2 0.586480 0.000000 0.477990 0.964353
Zn16  Zn    Zn3+2 1.000000 0.586480 0.477990 0.964366
O1    O     O_3   1.000000 0.500000 0.999730 -0.479633
O2    O     O_3   0.500000 0.000000 0.999730 -0.478694
O3    O     O_3   0.500000 0.000000 0.499730 -0.478601
O4    O     O_3   1.000000 0.500000 0.499730 -0.478628
O5    O     O_R   0.061010 0.500000 0.941690 -0.645654
O6    O     O_R   0.500000 0.061010 0.941690 -0.645666
O7    O     O_R   0.938990 0.500000 0.941690 -0.645573
O8    O     O_R   0.500000 0.938990 0.941690 -0.645702
O9    O     O_R   0.561010 0.000000 0.441690 -0.645603
O10   O     O_R   1.000000 0.561010 0.441690 -0.645454
O11   O     O_R   0.438990 0.000000 0.441690 -0.645603
O12   O     O_R   0.000000 0.438990 0.441690 -0.645666
O13   O     O_R   1.000000 0.560620 0.057780 -0.639772
O14   O     O_R   0.439380 0.000000 0.057780 -0.640046
O15   O     O_R   1.000000 0.439380 0.057780 -0.635213
O16   O     O_R   0.560620 0.000000 0.057780 -0.640089
O17   O     O_R   0.500000 0.060620 0.557780 -0.640193
O18   O     O_R   0.939380 0.500000 0.557780 -0.640140
O19   O     O_R   0.500000 0.939380 0.557780 -0.640147
O20   O     O_R   0.060620 0.500000 0.557780 -0.640141
O21   O     O_R   0.854100 0.585380 0.984510 -0.643400
O22   O     O_R   0.414620 0.854100 0.984510 -0.643390
O23   O     O_R   0.145900 0.414620 0.984510 -0.643418
O24   O     O_R   0.585380 0.145900 0.984510 -0.643376
O25   O     O_R   0.145900 0.585380 0.984510 -0.643413
O26   O     O_R   0.585380 0.854100 0.984510 -0.643325
O27   O     O_R   0.854100 0.414620 0.984510 -0.643527
O28   O     O_R   0.414620 0.145900 0.984510 -0.643313
O29   O     O_R   0.354100 0.085380 0.484510 -0.643202
O30   O     O_R   0.914620 0.354100 0.484510 -0.643468
O31   O     O_R   0.645900 0.914620 0.484510 -0.643213
O32   O     O_R   0.085380 0.645900 0.484510 -0.643453
O33   O     O_R   0.645900 0.085380 0.484510 -0.643444
O34   O     O_R   0.085380 0.354100 0.484510 -0.643202
O35   O     O_R   0.354100 0.914620 0.484510 -0.643455
O36   O     O_R   0.914620 0.645900 0.484510 -0.643163
O37   O     O_R   0.085710 0.353760 0.014950 -0.646167
O38   O     O_R   0.646240 0.085710 0.014950 -0.650033
O39   O     O_R   0.914290 0.646240 0.014950 -0.646926
O40   O     O_R   0.353760 0.914290 0.014950 -0.650023
O41   O     O_R   0.914290 0.353760 0.014950 -0.649266
O42   O     O_R   0.353760 0.085710 0.014950 -0.647096
O43   O     O_R   0.085710 0.646240 0.014950 -0.649776
O44   O     O_R   0.646240 0.914290 0.014950 -0.647109
O45   O     O_R   0.585710 0.853760 0.514950 -0.647185
O46   O     O_R   0.146240 0.585710 0.514950 -0.650064
O47   O     O_R   0.414290 0.146240 0.514950 -0.647202
O48   O     O_R   0.853760 0.414290 0.514950 -0.650054
O49   O     O_R   0.414290 0.853760 0.514950 -0.650052
O50   O     O_R   0.853760 0.585710 0.514950 -0.647196
O51   O     O_R   0.585710 0.146240 0.514950 -0.650065
O52   O     O_R   0.146240 0.414290 0.514950 -0.647185
C1    C     C_R   1.000000 0.500000 0.929251 0.796257
C2    C     C_R   0.500000 0.999995 0.929252 0.796176
C3    C     C_R   0.500000 0.000001 0.429250 0.796019
C4    C     C_R   0.000029 0.499982 0.429248 0.795913
C5    C     C_R   0.999749 0.500040 0.070173 0.812235
C6    C     C_R   0.500000 1.000000 0.070196 0.820687
C7    C     C_R   0.499999 0.000005 0.570200 0.820519
C8    C     C_R   1.000000 0.500000 0.570199 0.820631
C9    C     C_R   0.860009 0.639938 0.999725 0.811053
C10   C     C_R   0.360103 0.859971 0.999746 0.809116
C11   C     C_R   0.139991 0.360065 0.999723 0.810635
C12   C     C_R   0.639898 0.140026 0.999747 0.809105
C13   C     C_R   0.140028 0.639899 0.999746 0.809224
C14   C     C_R   0.639937 0.860008 0.999724 0.811048
C15   C     C_R   0.859971 0.360105 0.999745 0.807036
C16   C     C_R   0.360063 0.139988 0.999725 0.810999
C17   C     C_R   0.360009 0.139938 0.499724 0.811094
C18   C     C_R   0.860103 0.359970 0.499746 0.809037
C19   C     C_R   0.639991 0.860065 0.499723 0.811021
C20   C     C_R   0.139897 0.640027 0.499747 0.808958
C21   C     C_R   0.640029 0.139898 0.499747 0.809046
C22   C     C_R   0.139937 0.360008 0.499724 0.811079
C23   C     C_R   0.359970 0.860106 0.499746 0.808976
C24   C     C_R   0.860062 0.639988 0.499725 0.811003
C25   C     C_R   0.256276 0.691865 0.984103 0.132671
C26   C     C_R   0.308330 0.256463 0.984201 0.132802
C27   C     C_R   0.743711 0.308131 0.984108 0.132735
C28   C     C_R   0.691673 0.743524 0.984199 0.132756
C29   C     C_R   0.743528 0.691670 0.984199 0.132759
C30   C     C_R   0.691857 0.256274 0.984109 0.132576
C31   C     C_R   0.256478 0.308318 0.984200 0.132793
C32   C     C_R   0.308132 0.743720 0.984103 0.132652
C33   C     C_R   0.756254 0.191887 0.484092 0.132590
C34   C     C_R   0.808334 0.756467 0.484204 0.132715
C35   C     C_R   0.243740 0.808102 0.484093 0.132559
C36   C     C_R   0.191673 0.243524 0.484199 0.132692
C37   C     C_R   0.243528 0.191670 0.484199 0.132703
C38   C     C_R   0.191886 0.756245 0.484094 0.132601
C39   C     C_R   0.756481 0.808322 0.484202 0.132672
C40   C     C_R   0.808110 0.243741 0.484092 0.132575
C41   C     C_R   0.195347 0.695714 0.999982 -0.082094
C42   C     C_R   0.304068 0.195130 0.999862 -0.083126
C43   C     C_R   0.804651 0.304288 0.999981 -0.081757
C44   C     C_R   0.695930 0.804867 0.999861 -0.083116
C45   C     C_R   0.804868 0.695931 0.999862 -0.082971
C46   C     C_R   0.695715 0.195345 0.999983 -0.081964
C47   C     C_R   0.195134 0.304071 0.999860 -0.083234
C48   C     C_R   0.304287 0.804651 0.999982 -0.082055
C49   C     C_R   0.695355 0.195706 0.499987 -0.082007
C50   C     C_R   0.804067 0.695129 0.499862 -0.082970
C51   C     C_R   0.304643 0.804297 0.499986 -0.081985
C52   C     C_R   0.195932 0.304868 0.499861 -0.082987
C53   C     C_R   0.304869 0.195933 0.499861 -0.082985
C54   C     C_R   0.195706 0.695353 0.499987 -0.081980
C55   C     C_R   0.695132 0.804069 0.499860 -0.082964
C56   C     C_R   0.804295 0.304643 0.499986 -0.082007
C57   C     C_R   0.189253 0.756745 0.016552 -0.220393
C58   C     C_R   0.242445 0.188455 0.016116 -0.216206
C59   C     C_R   0.810759 0.243259 0.016545 -0.220016
C60   C     C_R   0.757549 0.811555 0.016117 -0.216224
C61   C     C_R   0.811552 0.757553 0.016118 -0.215957
C62   C     C_R   0.756755 0.189252 0.016546 -0.220860
C63   C     C_R   0.188444 0.242459 0.016115 -0.215764
C64   C     C_R   0.243260 0.810750 0.016552 -0.220383
C65   C     C_R   0.689299 0.256699 0.516577 -0.220499
C66   C     C_R   0.742436 0.688447 0.516111 -0.216305
C67   C     C_R   0.310705 0.743314 0.516574 -0.220461
C68   C     C_R   0.257553 0.311559 0.516115 -0.216265
C69   C     C_R   0.311556 0.257557 0.516116 -0.216290
C70   C     C_R   0.256701 0.689306 0.516575 -0.220525
C71   C     C_R   0.688435 0.742451 0.516110 -0.216253
C72   C     C_R   0.743305 0.310705 0.516576 -0.220490
H1    H     H_    0.143093 0.763014 0.029457 0.179232
H2    H     H_    0.235751 0.141883 0.028796 0.181347
H3    H     H_    0.856930 0.236992 0.029444 0.180319
H4    H     H_    0.764239 0.858137 0.028799 0.181285
H5    H     H_    0.858131 0.764246 0.028800 0.181398
H6    H     H_    0.763030 0.143093 0.029446 0.179209
H7    H     H_    0.141862 0.235776 0.028795 0.181774
H8    H     H_    0.236996 0.856912 0.029458 0.179154
H9    H     H_    0.643167 0.262939 0.529496 0.179005
H10   H     H_    0.735737 0.641869 0.528789 0.181127
H11   H     H_    0.356840 0.737085 0.529492 0.179020
H12   H     H_    0.264245 0.358142 0.528796 0.181129
H13   H     H_    0.358138 0.264252 0.528797 0.181108
H14   H     H_    0.262942 0.643182 0.529493 0.179014
H15   H     H_    0.641848 0.735763 0.528788 0.181124
H16   H     H_    0.737069 0.356839 0.529496 0.179015
C73   C     C_3   0.352860 0.706358 0.963955 -0.473788
C74   C     C_3   0.294713 0.353907 0.964521 -0.472329
C75   C     C_3   0.647110 0.293631 0.963970 -0.473803
C76   C     C_3   0.705299 0.646066 0.964517 -0.472285
C77   C     C_3   0.646074 0.705290 0.964516 -0.472427
C78   C     C_3   0.706336 0.352860 0.963969 -0.473706
C79   C     C_3   0.353937 0.294681 0.964521 -0.472380
C80   C     C_3   0.293631 0.647132 0.963955 -0.473785
C81   C     C_3   0.852783 0.206435 0.463915 -0.473801
C82   C     C_3   0.794727 0.853922 0.464529 -0.472215
C83   C     C_3   0.147206 0.793535 0.463920 -0.473733
C84   C     C_3   0.205294 0.146062 0.464519 -0.472160
C85   C     C_3   0.146069 0.205285 0.464519 -0.472156
C86   C     C_3   0.206432 0.852764 0.463919 -0.473797
C87   C     C_3   0.853951 0.794696 0.464530 -0.472091
C88   C     C_3   0.793555 0.147208 0.463916 -0.473753
H17   H     H_    0.355667 0.737711 0.945466 0.210961
H18   H     H_    0.264159 0.357534 0.945877 0.213290
H19   H     H_    0.644288 0.262275 0.945478 0.210982
H20   H     H_    0.735859 0.642427 0.945874 0.213300
H21   H     H_    0.642446 0.735839 0.945874 0.213242
H22   H     H_    0.737685 0.355676 0.945477 0.210954
H23   H     H_    0.357570 0.264119 0.945878 0.213242
H24   H     H_    0.262267 0.644315 0.945467 0.210916
H25   H     H_    0.855539 0.237838 0.445437 0.210700
H26   H     H_    0.764183 0.857558 0.445883 0.213477
H27   H     H_    0.144446 0.762118 0.445441 0.210704
H28   H     H_    0.235850 0.142418 0.445876 0.213484
H29   H     H_    0.142437 0.235830 0.445876 0.213514
H30   H     H_    0.237842 0.855517 0.445440 0.210732
H31   H     H_    0.857594 0.764144 0.445885 0.213519
H32   H     H_    0.762140 0.144442 0.445437 0.210729
H33   H     H_    0.405940 0.687472 0.971786 0.203869
H34   H     H_    0.313272 0.406629 0.972757 0.203212
H35   H     H_    0.594036 0.312516 0.971809 0.203860
H36   H     H_    0.686740 0.593350 0.972751 0.203211
H37   H     H_    0.593350 0.686738 0.972750 0.203213
H38   H     H_    0.687449 0.405933 0.971808 0.203848
H39   H     H_    0.406659 0.313238 0.972758 0.203210
H40   H     H_    0.312524 0.594059 0.971787 0.203887
H41   H     H_    0.905885 0.187528 0.471721 0.203984
H42   H     H_    0.813281 0.906639 0.472770 0.203224
H43   H     H_    0.094106 0.812446 0.471728 0.203985
H44   H     H_    0.186737 0.093347 0.472756 0.203217
H45   H     H_    0.093347 0.186735 0.472755 0.203212
H46   H     H_    0.187519 0.905863 0.471727 0.203982
H47   H     H_    0.906669 0.813249 0.472771 0.203212
H48   H     H_    0.812468 0.094114 0.471722 0.203978
C89   C     C_R   0.441516 0.028255 0.804623 0.503548
C90   C     C_R   0.029098 0.441932 0.804607 0.503544
C91   C     C_R   0.558458 0.971683 0.804618 0.503553
C92   C     C_R   0.970900 0.558067 0.804613 0.503543
C93   C     C_R   0.943928 0.530460 0.304528 0.503508
C94   C     C_R   0.530425 0.942624 0.304593 0.503498
C95   C     C_R   0.057653 0.467681 0.304604 0.503458
C96   C     C_R   0.469568 0.057387 0.304599 0.503505
N1    N     N_R   0.499987 0.999967 0.817708 -0.356071
N2    N     N_R   0.999999 0.500000 0.817700 -0.356011
N3    N     N_R   0.000820 0.499263 0.317665 -0.355783
N4    N     N_R   0.499997 0.000006 0.317689 -0.355947
C97   C     C_R   0.559564 0.970907 0.777261 -0.017743
C98   C     C_R   0.970097 0.559159 0.777256 -0.017719
C99   C     C_R   0.440410 0.029047 0.777266 -0.017743
C100  C     C_R   0.029901 0.440840 0.777249 -0.017719
C101  C     C_R   0.058606 0.466374 0.277243 -0.017609
C102  C     C_R   0.468739 0.058458 0.277240 -0.017681
C103  C     C_R   0.942824 0.530937 0.277168 -0.017576
C104  C     C_R   0.531253 0.941551 0.277234 -0.017678
C105  C     C_R   0.499988 0.999982 0.763533 -0.018329
C106  C     C_R   0.999999 0.499999 0.763522 -0.018319
C107  C     C_R   0.000670 0.498437 0.263474 -0.018303
C108  C     C_R   0.499995 0.000005 0.263506 -0.018290
C109  C     C_R   0.618706 0.942023 0.763364 -0.155577
C110  C     C_R   0.940378 0.617884 0.763365 -0.155556
C111  C     C_R   0.381270 0.057941 0.763375 -0.155578
C112  C     C_R   0.059620 0.382114 0.763351 -0.155557
C113  C     C_R   0.116004 0.434032 0.263380 -0.155554
C114  C     C_R   0.437676 0.116484 0.263348 -0.155581
C115  C     C_R   0.885331 0.562844 0.263237 -0.155665
C116  C     C_R   0.562315 0.883525 0.263335 -0.155572
C117  C     C_R   0.115843 0.433484 0.236177 -0.156176
C118  C     C_R   0.437600 0.116446 0.236148 -0.156166
C119  C     C_R   0.885325 0.562579 0.236039 -0.156216
C120  C     C_R   0.562390 0.883562 0.236135 -0.156230
C121  C     C_R   0.618660 0.941937 0.736164 -0.156139
C122  C     C_R   0.940287 0.617840 0.736165 -0.156135
C123  C     C_R   0.381319 0.058050 0.736175 -0.156141
C124  C     C_R   0.059711 0.382159 0.736151 -0.156134
C125  C     C_R   0.058362 0.465409 0.222243 -0.022124
C126  C     C_R   0.468684 0.058435 0.222250 -0.022148
C127  C     C_R   0.942728 0.530249 0.222180 -0.021692
C128  C     C_R   0.531306 0.941573 0.222243 -0.022105
C129  C     C_R   0.559530 0.970849 0.722274 -0.021991
C130  C     C_R   0.970024 0.559125 0.722268 -0.022057
C131  C     C_R   0.440451 0.029150 0.722279 -0.021990
C132  C     C_R   0.029975 0.440873 0.722261 -0.022057
C133  C     C_R   0.000581 0.498016 0.235943 -0.019313
C134  C     C_R   0.499995 0.000004 0.235978 -0.019261
C135  C     C_R   0.499989 0.999994 0.736006 -0.019328
C136  C     C_R   0.999999 0.499999 0.735995 -0.019308
C137  C     C_R   0.057023 0.465528 0.194878 0.512811
C138  C     C_R   0.469162 0.057169 0.194892 0.512984
C139  C     C_R   0.943970 0.529513 0.194826 0.512765
C140  C     C_R   0.530829 0.942838 0.194885 0.512937
C141  C     C_R   0.558231 0.971248 0.694917 0.512821
C142  C     C_R   0.970445 0.557837 0.694911 0.512868
C143  C     C_R   0.441753 0.028773 0.694922 0.512818
C144  C     C_R   0.029553 0.442161 0.694904 0.512868
N5    N     N_R   0.000472 0.497375 0.181758 -0.345830
N6    N     N_R   0.499996 0.000004 0.181807 -0.346445
N7    N     N_R   0.499992 0.000015 0.681834 -0.346245
N8    N     N_R   0.999999 0.499999 0.681823 -0.346324
O53   O     O_2   0.384378 0.054962 0.818052 -0.555689
O54   O     O_2   0.056596 0.385168 0.818028 -0.555788
O55   O     O_2   0.615595 0.944968 0.818042 -0.555690
O56   O     O_2   0.943402 0.614831 0.818041 -0.555789
O57   O     O_2   0.888284 0.560332 0.317906 -0.556168
O58   O     O_2   0.559219 0.886502 0.318012 -0.555880
O59   O     O_2   0.113351 0.438186 0.318057 -0.556065
O60   O     O_2   0.440774 0.113509 0.318025 -0.555847
H49   H     H_    0.665191 0.919348 0.773446 0.193813
H50   H     H_    0.917050 0.664042 0.773451 0.193809
H51   H     H_    0.334784 0.080609 0.773461 0.193815
H52   H     H_    0.082948 0.335956 0.773432 0.193807
H53   H     H_    0.161205 0.408990 0.273493 0.193737
H54   H     H_    0.413282 0.162088 0.273435 0.193761
H55   H     H_    0.840193 0.588192 0.273290 0.193786
H56   H     H_    0.586709 0.837921 0.273416 0.193763
H57   H     H_    0.160928 0.408049 0.226121 0.193862
H58   H     H_    0.413153 0.162020 0.226066 0.193882
H59   H     H_    0.840187 0.587739 0.225928 0.193880
H60   H     H_    0.586836 0.837987 0.226047 0.193829
H61   H     H_    0.665112 0.919199 0.726078 0.193932
H62   H     H_    0.916894 0.663964 0.726083 0.193932
H63   H     H_    0.334868 0.080796 0.726093 0.193931
H64   H     H_    0.083104 0.336034 0.726065 0.193933
O61   O     O_2   0.111488 0.433632 0.181478 -0.554116
O62   O     O_2   0.438570 0.112305 0.181458 -0.553720
O63   O     O_2   0.889502 0.561243 0.181377 -0.555404
O64   O     O_2   0.561420 0.887702 0.181446 -0.553931
O65   O     O_2   0.614413 0.942597 0.681484 -0.554221
O66   O     O_2   0.941049 0.613627 0.681481 -0.554058
O67   O     O_2   0.385572 0.057434 0.681495 -0.554220
O68   O     O_2   0.058949 0.386371 0.681468 -0.554057
C145  C     C_R   0.947289 0.459172 0.140047 -0.115086
C146  C     C_R   0.458690 0.948882 0.140174 -0.102610
C147  C     C_R   0.053116 0.537083 0.140152 -0.102346
C148  C     C_R   0.541304 0.051123 0.140180 -0.102638
C149  C     C_R   0.449695 0.957719 0.640193 -0.102563
C150  C     C_R   0.958077 0.449387 0.640185 -0.102591
C151  C     C_R   0.550284 0.042320 0.640198 -0.102547
C152  C     C_R   0.041923 0.550611 0.640191 -0.102590
H65   H     H_    0.906610 0.428884 0.150802 0.160632
H66   H     H_    0.426897 0.909653 0.151044 0.153678
H67   H     H_    0.093939 0.566748 0.151046 0.154843
H68   H     H_    0.573096 0.090353 0.151055 0.153685
H69   H     H_    0.411110 0.925140 0.651062 0.154360
H70   H     H_    0.925797 0.410553 0.651054 0.154111
H71   H     H_    0.588870 0.074900 0.651071 0.154361
H72   H     H_    0.074202 0.589444 0.651065 0.154112
C153  C     C_R   0.945114 0.460617 0.112778 0.117548
C154  C     C_R   0.458058 0.948174 0.112871 0.112033
C155  C     C_R   0.053230 0.538710 0.112853 0.108860
C156  C     C_R   0.541939 0.051828 0.112877 0.112059
C157  C     C_R   0.448956 0.957109 0.612892 0.111610
C158  C     C_R   0.957459 0.448660 0.612883 0.111752
C159  C     C_R   0.551025 0.042927 0.612897 0.111602
C160  C     C_R   0.042541 0.551338 0.612889 0.111751
C161  C     C_R   0.998960 0.500117 0.098897 -0.017015
C162  C     C_R   0.500000 0.000000 0.098965 -0.028456
C163  C     C_R   0.499992 0.000016 0.598978 -0.029365
C164  C     C_R   0.000000 0.499999 0.598973 -0.029035
C165  C     C_R   0.000549 0.497521 0.153744 0.222123
C166  C     C_R   0.499996 0.000003 0.153805 0.220889
C167  C     C_R   0.499990 0.000019 0.653828 0.220089
C168  C     C_R   1.000000 0.499999 0.653819 0.220372
C169  C     C_R   0.498102 0.934157 0.859430 -0.105919
C170  C     C_R   0.065798 0.502560 0.859429 -0.105827
C171  C     C_R   0.501888 0.065792 0.859434 -0.105943
C172  C     C_R   0.934200 0.497441 0.859429 -0.105835
C173  C     C_R   0.004869 0.565290 0.359369 -0.105151
C174  C     C_R   0.565735 0.003822 0.359425 -0.105728
C175  C     C_R   0.996382 0.433882 0.359465 -0.105876
C176  C     C_R   0.434261 0.996188 0.359425 -0.105725
H73   H     H_    0.496367 0.883038 0.848985 0.146643
H74   H     H_    0.116900 0.504822 0.848987 0.146795
H75   H     H_    0.503620 0.116906 0.848991 0.146637
H76   H     H_    0.883099 0.495178 0.848986 0.146797
H77   H     H_    0.008540 0.616252 0.348895 0.147484
H78   H     H_    0.616786 0.007084 0.348985 0.146988
H79   H     H_    0.992849 0.382778 0.349068 0.147432
H80   H     H_    0.383209 0.992927 0.348985 0.146991
C177  C     C_R   0.498153 0.934088 0.886623 -0.214840
C178  C     C_R   0.065875 0.502497 0.886622 -0.214893
C179  C     C_R   0.501843 0.065874 0.886626 -0.214821
C180  C     C_R   0.934125 0.497503 0.886622 -0.214866
C181  C     C_R   0.004502 0.565557 0.386568 -0.215235
C182  C     C_R   0.565814 0.003737 0.386619 -0.214952
C183  C     C_R   0.996225 0.433992 0.386657 -0.214951
C184  C     C_R   0.434184 0.996270 0.386619 -0.214943
H81   H     H_    0.496621 0.882477 0.896753 0.165894
H82   H     H_    0.117472 0.504557 0.896754 0.165868
H83   H     H_    0.503377 0.117491 0.896758 0.165901
H84   H     H_    0.882527 0.495443 0.896753 0.165884
H85   H     H_    0.007789 0.617140 0.396668 0.165708
H86   H     H_    0.617360 0.006801 0.396752 0.165808
H87   H     H_    0.992749 0.382530 0.396823 0.165894
H88   H     H_    0.382638 0.993204 0.396752 0.165811
C185  C     C_R   0.499999 0.999985 0.900496 -0.010738
C186  C     C_R   1.000000 0.500000 0.900494 -0.010757
C187  C     C_R   0.000223 0.499867 0.400487 -0.010740
C188  C     C_R   0.499999 0.000002 0.400492 -0.010734
C189  C     C_R   0.499993 0.999971 0.845711 0.311884
C190  C     C_R   0.999999 0.500000 0.845706 0.311625
C191  C     C_R   0.000755 0.499484 0.345683 0.310574
C192  C     C_R   0.499998 0.000006 0.345698 0.311287
C193  C     C_3   0.883214 0.421149 0.099620 -0.867365
H89   H     H_    0.877540 0.434734 0.078694 0.236446
H90   H     H_    0.891185 0.361599 0.101621 0.247895
H91   H     H_    0.831050 0.436288 0.109080 0.241515
C194  C     C_3   0.414046 0.890662 0.099064 -0.859312
H92   H     H_    0.390017 0.851126 0.112974 0.235414
H93   H     H_    0.368704 0.916280 0.088160 0.260716
H94   H     H_    0.449260 0.859942 0.085363 0.229723
C195  C     C_3   0.112522 0.580335 0.099062 -0.862328
H95   H     H_    0.153113 0.602552 0.112974 0.236581
H96   H     H_    0.141626 0.543949 0.085303 0.229861
H97   H     H_    0.088783 0.626775 0.088206 0.260032
C196  C     C_3   0.585953 0.109339 0.099076 -0.859346
H98   H     H_    0.609981 0.148876 0.112992 0.235435
H99   H     H_    0.631296 0.083720 0.088170 0.260665
H100  H     H_    0.550741 0.140058 0.085379 0.229766
C197  C     C_3   0.392200 0.912057 0.599110 -0.857517
H101  H     H_    0.353002 0.887519 0.613031 0.235015
H102  H     H_    0.360946 0.946644 0.585364 0.229974
H103  H     H_    0.418576 0.867025 0.588270 0.260721
C198  C     C_3   0.912804 0.391614 0.599090 -0.858212
H104  H     H_    0.888457 0.352289 0.613007 0.235189
H105  H     H_    0.867652 0.417700 0.588228 0.260670
H106  H     H_    0.947635 0.360564 0.585360 0.229919
C199  C     C_3   0.607781 0.087978 0.599119 -0.857528
H107  H     H_    0.646972 0.112527 0.613043 0.235019
H108  H     H_    0.639042 0.053388 0.585372 0.229979
H109  H     H_    0.581402 0.133002 0.588282 0.260713
C200  C     C_3   0.087196 0.608384 0.599104 -0.858214
H110  H     H_    0.111544 0.647709 0.613025 0.235191
H111  H     H_    0.132348 0.582299 0.588238 0.260668
H112  H     H_    0.052365 0.639434 0.585377 0.229921

loop_
_geom_bond_atom_site_label_1
_geom_bond_atom_site_label_2
_geom_bond_distance
_ccdc_geom_bond_type
C7    C163  1.476623 S    
C62   H6    1.082994 S    
C50   C66   1.412726 A    
Zn5   O51   1.949208 S    
C49   C65   1.412772 A    
C3    C188  1.475658 S    
C107  C133  1.412668 A    
C143  N7    1.370702 A    
C149  C157  1.400985 A    
C199  H108  1.110491 S    
C197  H102  1.110492 S    
C30   C46   1.387558 A    
O49   C23   1.273142 A    
C113  C117  1.395890 A    
C194  H94   1.110492 S    
C141  O65   1.349476 S    
Zn13  O35   1.942718 S    
O34   C22   1.276133 A    
C131  C143  1.403949 A    
C35   C86   1.489336 S    
O52   C22   1.273142 A    
O41   C15   1.273148 A    
C17   C53   1.445811 S    
C156  C162  1.419055 A    
C172  C180  1.395340 A    
C61   H5    1.082971 S    
Zn4   O2    1.946195 S    
C70   H14   1.082995 S    
O47   C17   1.273152 A    
C46   C62   1.412753 A    
C170  C190  1.401173 A    
C40   C56   1.387530 A    
C9    C45   1.445810 S    
C104  C108  1.408409 A    
C36   C37   1.349139 A    
C68   H12   1.082974 S    
C123  H63   1.083087 S    
C91   C97   1.403988 A    
C94   C104  1.404075 A    
C153  C193  1.509818 S    
C150  H70   1.083614 S    
O43   C13   1.273085 A    
C137  N5    1.370755 A    
C20   C54   1.445745 S    
C193  H91   1.110904 S    
O22   C10   1.276202 A    
C157  C163  1.419325 A    
C125  C133  1.408518 A    
C178  C186  1.406179 A    
C115  H55   1.083090 S    
Zn12  O24   1.942597 S    
C82   H42   1.111667 S    
Zn16  O4    1.943279 S    
C173  C191  1.401552 A    
Zn1   O13   1.923379 S    
C117  C125  1.405199 A    
C59   H3    1.082985 S    
Zn3   O15   1.923228 S    
C60   H4    1.082975 S    
C25   C32   1.349084 A    
Zn4   O16   1.923297 S    
C72   H16   1.082995 S    
Zn3   O41   1.949146 S    
C84   C85   1.540903 S    
C172  C190  1.401173 A    
C184  C188  1.406167 A    
Zn7   O3    1.946435 S    
C90   O54   1.349461 S    
C197  H101  1.110897 S    
C77   H21   1.111560 S    
C146  C166  1.396759 A    
O11   C3    1.291180 A    
C147  H67   1.083595 S    
C148  H68   1.083608 S    
C119  H59   1.083090 S    
C102  C114  1.405215 A    
C120  H60   1.083100 S    
C152  H72   1.083612 S    
C198  H104  1.110898 S    
C101  C107  1.408304 A    
C111  H51   1.083083 S    
Zn10  O22   1.942662 S    
C112  H52   1.083084 S    
C193  H90   1.110141 S    
C4    C187  1.475848 S    
Zn12  O28   1.942707 S    
Zn13  O29   1.942736 S    
Zn14  O34   1.942766 S    
C158  C198  1.508929 S    
C173  C181  1.395671 A    
Zn10  O2    1.942983 S    
C145  C153  1.400037 A    
Zn3   O1    1.946435 S    
C159  C163  1.419319 A    
Zn15  O33   1.942628 S    
C86   H46   1.111670 S    
C121  H61   1.083088 S    
C158  C164  1.419214 A    
C156  C196  1.508870 S    
C26   C79   1.489357 S    
C98   C106  1.408415 A    
C154  C194  1.508870 S    
C157  C197  1.508964 S    
C160  C200  1.508931 S    
C22   C52   1.445812 S    
C196  H99   1.109538 S    
C5    C161  1.473970 S    
C113  H53   1.083083 S    
C2    C185  1.475535 S    
C11   C47   1.445837 S    
O27   C15   1.276313 A    
O29   C17   1.276121 A    
C82   H26   1.111565 S    
C155  C161  1.418941 A    
C60   C61   1.405031 A    
C171  H75   1.082864 S    
C200  H110  1.110897 S    
O8    C2    1.291209 A    
C96   C102  1.404076 A    
C93   N3    1.370924 A    
C110  H50   1.083085 S    
C139  N5    1.370958 A    
C151  C167  1.396767 A    
C74   H34   1.111668 S    
O16   C6    1.284339 A    
O14   C6    1.284338 A    
C103  C107  1.408410 A    
Zn15  O9    1.920668 S    
C95   C101  1.404297 A    
C55   C71   1.412765 A    
O40   C10   1.273073 A    
C154  C162  1.419055 A    
C33   C88   1.489339 S    
C145  C165  1.396956 A    
C53   C69   1.412736 A    
C24   C50   1.445831 S    
C130  C142  1.403972 A    
O45   C19   1.273218 A    
C32   C73   1.489341 S    
O17   C7    1.284524 A    
C98   C110  1.405185 A    
C57   H1    1.082991 S    
C92   O56   1.349461 S    
Zn5   O17   1.923379 S    
C197  H103  1.109530 S    
C63   H7    1.082973 S    
O9    C3    1.291182 A    
C152  C160  1.401019 A    
C181  H85   1.082906 S    
C170  H74   1.082866 S    
C174  C182  1.395397 A    
C38   C54   1.387552 A    
N5    C165  1.437496 S    
C169  C177  1.395320 A    
C74   H18   1.111566 S    
C130  C136  1.408467 A    
C198  H106  1.110485 S    
Zn9   O27   1.942718 S    
C123  C131  1.405144 A    
C77   H37   1.111666 S    
C148  C166  1.396761 A    
C75   H35   1.111669 S    
C66   C71   1.405039 A    
Zn9   O7    1.920670 S    
O50   C24   1.273261 A    
Zn10  O8    1.920751 S    
Zn11  O5    1.920668 S    
C81   H41   1.111667 S    
O5    C1    1.291162 A    
O31   C19   1.276246 A    
C110  C122  1.395679 A    
C48   C64   1.412781 A    
C71   H15   1.082975 S    
C105  C135  1.412467 A    
Zn4   O44   1.949285 S    
C149  C167  1.396765 A    
C100  C106  1.408416 A    
C34   C39   1.349146 A    
C150  C158  1.401019 A    
C73   C80   1.540889 S    
C155  C195  1.508953 S    
C74   C79   1.540903 S    
C42   C58   1.412727 A    
C21   C49   1.445725 S    
C180  H84   1.082906 S    
C18   C56   1.445728 S    
C23   C51   1.445751 S    
C151  H71   1.083615 S    
C138  N6    1.370576 A    
C200  H112  1.110482 S    
C120  C128  1.405141 A    
C8    C164  1.476443 S    
C153  C161  1.420121 A    
C67   H11   1.082995 S    
C89   C99   1.403985 A    
C101  C113  1.405306 A    
C10   C48   1.445727 S    
C144  O68   1.349466 S    
C99   C111  1.405169 A    
C68   C69   1.405033 A    
C80   H40   1.111670 S    
C175  H79   1.082872 S    
Zn1   O1    1.946136 S    
C182  H86   1.082922 S    
C37   C84   1.489344 S    
Zn2   O14   1.923294 S    
C38   C83   1.489348 S    
Zn1   O39   1.949315 S    
C172  H76   1.082867 S    
Zn2   O40   1.949177 S    
C199  H107  1.110897 S    
C19   C55   1.445834 S    
Zn3   O37   1.949253 S    
C90   N2    1.370783 A    
C94   O58   1.349484 S    
C116  H56   1.083094 S    
C194  H93   1.109540 S    
C174  C192  1.401257 A    
C132  C144  1.403969 A    
C139  O63   1.349515 S    
C142  O66   1.349466 S    
C73   H17   1.111571 S    
C83   H43   1.111671 S    
C129  C141  1.403947 A    
O6    C2    1.291196 A    
O18   C8    1.284415 A    
C91   O55   1.349466 S    
Zn10  O26   1.942766 S    
O10   C4    1.291474 A    
C32   C48   1.387528 A    
C39   C55   1.387565 A    
C117  H57   1.083086 S    
Zn14  O30   1.942662 S    
Zn15  O3    1.943046 S    
Zn1   O43   1.949208 S    
C31   C47   1.387565 A    
C122  H62   1.083086 S    
C149  H69   1.083617 S    
Zn5   O47   1.949315 S    
C119  C127  1.405172 A    
Zn8   O20   1.923297 S    
Zn6   O48   1.949177 S    
C146  H66   1.083608 S    
C88   H48   1.111668 S    
Zn7   O45   1.949253 S    
O35   C23   1.276317 A    
C128  C140  1.404030 A    
C140  O64   1.349477 S    
Zn8   O46   1.949265 S    
C114  H54   1.083097 S    
O32   C20   1.276265 A    
C143  O67   1.349474 S    
C125  C137  1.404393 A    
C80   H24   1.111571 S    
C137  O61   1.349419 S    
C33   C40   1.349083 A    
C89   N1    1.370732 A    
C92   C98   1.404020 A    
O12   C4    1.291094 A    
C169  C189  1.401125 A    
N1    C189  1.436887 S    
O38   C12   1.273192 A    
C145  H65   1.084033 S    
Zn16  O10   1.920603 S    
C182  C188  1.406167 A    
Zn13  O3    1.943042 S    
C122  C130  1.405145 A    
C29   C76   1.489345 S    
C175  C191  1.401269 A    
C54   C70   1.412762 A    
C179  C185  1.406188 A    
C199  H109  1.109530 S    
C177  H81   1.082910 S    
C126  C134  1.408498 A    
C90   C100  1.404019 A    
O21   C9    1.276123 A    
C58   H2    1.082974 S    
C51   C67   1.412803 A    
Zn6   O18   1.923294 S    
C52   C68   1.412749 A    
C14   C44   1.445812 S    
Zn14  O4    1.942983 S    
Zn7   O49   1.949146 S    
C28   C44   1.387577 A    
C131  C135  1.408448 A    
C79   H39   1.111665 S    
C160  C164  1.419215 A    
C183  C187  1.406215 A    
C86   H30   1.111568 S    
C75   C78   1.540889 S    
C121  C129  1.405148 A    
Zn9   O1    1.943042 S    
C76   H36   1.111668 S    
C109  H49   1.083085 S    
C13   C41   1.445728 S    
C171  C189  1.401116 A    
C93   C103  1.404074 A    
C15   C43   1.445754 S    
O36   C24   1.276199 A    
C159  C199  1.508960 S    
C196  H98   1.110892 S    
C34   C87   1.489353 S    
Zn11  O1    1.943046 S    
C92   N2    1.370785 A    
C84   H44   1.111666 S    
C112  C124  1.395674 A    
C115  C119  1.395598 A    
C56   C72   1.412782 A    
Zn12  O2    1.943279 S    
Zn16  O36   1.942707 S    
O28   C16   1.276196 A    
N4    C192  1.437210 S    
Zn2   O42   1.949371 S    
Zn5   O3    1.946136 S    
Zn6   O4    1.946201 S    
C33   C49   1.387537 A    
C104  C116  1.405212 A    
C147  C155  1.401135 A    
O46   C20   1.273191 A    
C170  C178  1.395340 A    
C94   N4    1.370848 A    
C26   C42   1.387598 A    
C87   H47   1.111666 S    
C44   C60   1.412746 A    
O15   C5    1.284390 A    
C85   H45   1.111666 S    
C178  H82   1.082907 S    
C65   C72   1.405043 A    
C195  H96   1.110471 S    
C27   C43   1.387520 A    
C79   H23   1.111561 S    
C6    C162  1.476202 S    
O23   C11   1.276248 A    
C36   C52   1.387574 A    
C67   C70   1.405048 A    
C95   N3    1.371056 A    
C40   C81   1.489340 S    
Zn12  O6    1.920603 S    
Zn2   O2    1.946201 S    
N6    C166  1.436820 S    
C1    C186  1.475576 S    
O7    C1    1.291164 A    
O26   C14   1.276133 A    
Zn15  O31   1.942824 S    
N2    C190  1.437030 S    
Zn16  O32   1.942597 S    
C27   C30   1.349093 A    
C47   C63   1.412761 A    
C198  H105  1.109533 S    
O19   C7    1.284512 A    
C146  C154  1.401075 A    
Zn8   O4    1.946195 S    
C45   C61   1.412738 A    
C95   O59   1.349444 S    
C58   C63   1.405038 A    
O37   C11   1.273218 A    
C141  N7    1.370704 A    
C184  H88   1.082924 S    
C150  C168  1.396766 A    
C142  N8    1.370656 A    
C181  C187  1.406101 A    
C128  C134  1.408498 A    
C148  C156  1.401074 A    
O13   C5    1.283273 A    
C66   H10   1.082975 S    
C91   N1    1.370733 A    
C109  C121  1.395663 A    
C28   C77   1.489349 S    
O20   C8    1.284416 A    
C97   C109  1.405167 A    
O44   C14   1.273142 A    
C124  H64   1.083087 S    
C83   H27   1.111568 S    
C96   N4    1.370848 A    
C84   H28   1.111567 S    
O24   C12   1.276261 A    
C102  C108  1.408410 A    
C25   C41   1.387536 A    
C34   C50   1.387598 A    
C132  C136  1.408467 A    
C196  H100  1.110490 S    
C173  H77   1.082861 S    
C81   C88   1.540888 S    
C106  C136  1.412493 A    
C39   C82   1.489341 S    
O25   C13   1.276190 A    
C82   C87   1.540903 S    
C176  C192  1.401258 A    
C175  C183  1.395307 A    
C76   H20   1.111563 S    
C118  C126  1.405142 A    
C200  H111  1.109531 S    
C179  H83   1.082909 S    
C83   C86   1.540886 S    
C96   O60   1.349485 S    
C89   O53   1.349467 S    
O48   C18   1.273068 A    
C78   H22   1.111571 S    
C100  C112  1.405189 A    
C69   H13   1.082976 S    
C64   H8    1.082992 S    
C65   H9    1.082993 S    
C147  C165  1.396908 A    
C27   C78   1.489333 S    
C25   C80   1.489338 S    
C180  C186  1.406180 A    
C16   C42   1.445829 S    
C116  C120  1.395704 A    
C111  C123  1.395664 A    
C171  C179  1.395304 A    
C126  C138  1.404033 A    
O42   C16   1.273263 A    
C195  H97   1.109609 S    
C138  O62   1.349475 S    
N3    C191  1.437626 S    
C144  N8    1.370656 A    
C28   C29   1.349141 A    
C78   H38   1.111668 S    
Zn9   O21   1.942736 S    
C176  C184  1.395392 A    
C37   C53   1.387581 A    
C151  C159  1.400999 A    
C99   C105  1.408429 A    
Zn11  O23   1.942824 S    
C194  H92   1.110890 S    
C103  C115  1.405149 A    
C108  C134  1.412544 A    
C127  C133  1.408304 A    
C41   C57   1.412771 A    
C12   C46   1.445741 S    
Zn8   O52   1.949285 S    
C93   O57   1.349474 S    
N8    C168  1.436938 S    
O39   C9    1.273149 A    
C43   C59   1.412798 A    
C29   C45   1.387581 A    
C124  C132  1.405147 A    
Zn4   O38   1.949265 S    
Zn7   O19   1.923228 S    
C35   C51   1.387515 A    
O33   C21   1.276196 A    
C152  C168  1.396765 A    
C118  H58   1.083102 S    
C127  C139  1.403880 A    
C129  C135  1.408449 A    
C183  H87   1.082910 S    
C174  H78   1.082869 S    
C87   H31   1.111563 S    
C81   H25   1.111571 S    
C76   C77   1.540904 S    
C59   C62   1.405041 A    
C85   H29   1.111562 S    
N7    C167  1.437030 S    
C193  H89   1.107439 S    
C57   C64   1.405039 A    
C195  H95   1.110890 S    
C26   C31   1.349149 A    
C88   H32   1.111571 S    
Zn11  O25   1.942628 S    
C35   C38   1.349090 A    
C114  C118  1.395704 A    
C73   H33   1.111668 S    
C169  H73   1.082865 S    
Zn6   O50   1.949371 S    
C30   C75   1.489344 S    
C31   C74   1.489342 S    
C97   C105  1.408427 A    
O51   C21   1.273079 A    
Zn13  O11   1.920670 S    
C75   H19   1.111567 S    
C176  H80   1.082869 S    
Zn14  O12   1.920751 S    
C140  N6    1.370576 A    
C177  C185  1.406188 A    
C36   C85   1.489346 S    
O30   C18   1.276209 A    
