data_mof_unit_17503.cif
_audit_creation_date              2012-12-11T15:53:52-0500
_audit_creation_method            fapswitch 2.2
_symmetry_space_group_name_H-M    P1
_symmetry_Int_Tables_number       1
_space_group_crystal_system       triclinic
_cell_length_a                    10.781682
_cell_length_b                    10.658468
_cell_length_c                    17.038978
_cell_angle_alpha                 80.200685
_cell_angle_beta                  99.564873
_cell_angle_gamma                 118.813117
_cell_volume                      1682.56316961

loop_
_atom_site_label
_atom_site_type_symbol
_atom_type_description
_atom_site_fract_x
_atom_site_fract_y
_atom_site_fract_z
_atom_type_partial_charge
C1    C     C_R   0.361454 0.229476 0.627418 0.547948
C2    C     C_R   0.511072 0.707604 0.738463 0.245985
C3    C     C_R   0.490544 0.708870 0.817482 0.263719
C4    C     C_3   0.092168 0.526540 0.764490 -0.234774
C5    C     C_3   0.116171 0.515833 0.680902 -0.047425
C6    C     C_R   0.394211 0.626212 0.684731 -0.016780
C7    C     C_1   0.825870 0.657823 0.705535 -0.000598
C8    C     C_1   0.853367 0.685621 0.773312 0.031728
C9    C     C_1   0.345303 0.187830 0.709823 -0.017907
C10   C     C_1   0.320037 0.160028 0.778115 -0.021390
C11   C     C_1   0.370551 0.635689 0.274807 0.031395
C12   C     C_R   0.411860 0.621752 0.602130 0.576895
C13   C     C_1   0.344179 0.653727 0.204069 0.075593
C14   C     C_R   0.793034 0.645381 0.146502 -0.041821
C15   C     C_R   0.758224 0.514895 0.195024 -0.025512
C16   C     C_R   0.718447 0.495578 0.270393 -0.051689
C17   C     C_R   0.718053 0.726031 0.245867 0.211936
C18   C     C_R   0.755866 0.741646 0.168734 -0.083728
C19   C     C_3   0.827762 0.419058 0.220077 -0.095569
C20   C     C_3   0.786964 0.401730 0.303422 -0.257362
C21   C     C_R   0.714177 0.605688 0.302014 -0.024129
C22   C     C_R   0.320779 0.159643 0.161858 0.021995
C23   C     C_R   0.778355 0.619812 0.626512 0.585489
C24   C     C_R   0.228191 0.196467 0.188736 -0.006865
C25   C     C_R   0.235382 0.208171 0.267946 0.001806
C26   C     C_R   0.426592 0.145552 0.298035 -0.125130
C27   C     C_R   0.424390 0.139305 0.216805 -0.137640
C28   C     C_3   0.067728 0.123659 0.181473 -0.225688
C29   C     C_3   0.077905 0.141349 0.268965 -0.046182
C30   C     C_R   0.330958 0.179553 0.323557 0.047961
C31   C     C_R   0.892283 0.702187 0.855619 0.577143
C32   C     C_R   0.315896 0.704104 0.899745 0.533284
C33   C     C_R   0.283753 0.114105 0.857719 0.544001
C34   C     C_R   0.351104 0.225708 0.400631 0.537142
C35   C     C_R   0.882116 0.687561 0.081800 0.555473
C36   C     C_R   0.316372 0.696655 0.122515 0.572527
C37   C     C_R   0.284158 0.105612 0.085384 0.552043
C38   C     C_R   0.402784 0.624783 0.359077 0.530157
C39   C     C_R   0.702400 0.585570 0.388825 0.532811
C40   C     C_R   0.349834 0.645631 0.839500 -0.029579
C41   C     C_R   0.240179 0.548376 0.790510 -0.047867
C42   C     C_R   0.262341 0.538535 0.714794 -0.044399
Cr1   Cr    Cr6+3 0.608440 0.389080 0.519680 1.040072
Cr2   Cr    Cr6+3 0.288640 0.400090 0.490760 1.065031
Cr3   Cr    Cr6+3 0.602940 0.710800 0.489510 1.066821
Cr4   Cr    Cr6+3 0.052530 0.947560 0.964210 1.063128
Cr5   Cr    Cr6+3 0.059970 0.626800 0.992920 1.058348
Cr6   Cr    Cr6+3 0.373320 0.938440 0.995370 1.048035
H1    H     H_    0.769813 0.317105 0.191148 0.124365
H2    H     H_    0.711763 0.289866 0.322746 0.131494
H3    H     H_    0.878906 0.451433 0.348751 0.184515
H4    H     H_    0.498909 0.119993 0.341134 0.138911
H5    H     H_    0.495134 0.106755 0.198340 0.150724
H6    H     H_    0.018965 0.009760 0.168676 0.180755
H7    H     H_    0.024209 0.189489 0.140913 0.158560
H8    H     H_    0.044190 0.219647 0.279717 0.169238
H9    H     H_    0.080156 0.622320 0.770172 0.167806
H10   H     H_    0.011131 0.423286 0.792497 0.139873
H11   H     H_    0.048553 0.406513 0.660947 0.131657
H12   H     H_    0.770329 0.837988 0.129336 0.152530
O1    O     O_R   0.754020 0.497590 0.609930 -0.492912
O2    O     O_R   0.295080 0.533620 0.397890 -0.452692
O3    O     O_R   0.485280 0.746620 0.388440 -0.510741
O4    O     O_R   0.720550 0.696220 0.420010 -0.492803
O5    O     O_3   0.500010 0.499990 0.499980 -0.343551
O6    O     O_R   0.163320 0.092900 0.874450 -0.501789
O7    O     O_R   0.934650 0.822080 0.882840 -0.449829
O8    O     O_R   0.915520 0.604140 0.893670 -0.543276
O9    O     O_R   0.191760 0.638110 0.923230 -0.512679
O10   O     O_R   0.406180 0.826930 0.920660 -0.491981
O11   O     O_R   0.358620 0.062870 0.901950 -0.491645
O12   O     O_R   0.481420 0.271390 0.600630 -0.492089
O13   O     O_R   0.163910 0.085460 0.050210 -0.524103
O14   O     O_R   0.935200 0.815170 0.045770 -0.508543
O15   O     O_R   0.916120 0.596690 0.069430 -0.490945
O16   O     O_R   0.192310 0.631200 0.086170 -0.444955
O17   O     O_R   0.406770 0.819480 0.096420 -0.517691
O18   O     O_R   0.359170 0.055960 0.064880 -0.505293
O19   O     O_3   0.161940 0.837600 0.984160 -0.267081
O20   O     O_R   0.263810 0.254550 0.589590 -0.510301
O21   O     O_R   0.300820 0.531200 0.560890 -0.474141
O22   O     O_R   0.491480 0.744020 0.564270 -0.492103
O23   O     O_R   0.726290 0.693800 0.583010 -0.477702
O24   O     O_R   0.747830 0.500190 0.434090 -0.477348
O25   O     O_R   0.475680 0.273800 0.437630 -0.526929
O26   O     O_R   0.257620 0.257160 0.413750 -0.508945
O27   O     O_3   0.645108 0.792506 0.714524 -0.663608
H13   H     H_    0.639526 0.869409 0.674714 0.350107
C43   C     C_2   0.017980 0.003609 0.324088 0.612137
O28   O     O_2   0.946973 0.992252 0.376321 -0.487061
O29   O     O_R   0.049217 0.892800 0.318275 -0.705339
H14   H     H_    0.008657 0.809717 0.361399 0.353727
O30   O     O_3   0.608515 0.784808 0.868378 -0.637046
H15   H     H_    0.584832 0.747099 0.924188 0.314907
C44   C     C_2   0.115313 0.636264 0.619910 0.595774
O31   O     O_2   0.047848 0.608109 0.554540 -0.472577
O32   O     O_R   0.192253 0.779251 0.637721 -0.708087
H16   H     H_    0.183155 0.849522 0.591821 0.347436
O33   O     O_3   0.698087 0.837649 0.261235 -0.706168
H17   H     H_    0.680947 0.828464 0.316603 0.383513
C45   C     C_2   0.986521 0.489188 0.219151 0.614909
O34   O     O_2   0.037605 0.425320 0.194332 -0.524808
O35   O     O_R   0.076650 0.624068 0.246372 -0.660601
H18   H     H_    0.024599 0.668788 0.265468 0.327997

loop_
_geom_bond_atom_site_label_1
_geom_bond_atom_site_label_2
_ccdc_geom_bond_type
O27   H13   S    
C35   O14   A    
C45   O34   D    
C11   C13   T    
C41   C42   A    
C14   C18   A    
C44   O31   D    
Cr5   O19   S    
C5    C42   S    
C29   C43   S    
O32   H16   S    
C7    C8    T    
C2    C6    A    
C31   O7    A    
C39   O4    A    
C35   O15   A    
C26   C27   A    
O30   H15   S    
C23   O23   A    
Cr6   O19   S    
C28   C29   S    
C39   O24   A    
Cr4   O6    S    
C20   H3    S    
C36   O17   A    
C6    C12   S    
Cr4   O19   S    
Cr3   O22   S    
C4    C41   S    
C15   C16   A    
C34   O26   A    
Cr6   O18   S    
Cr5   O9    S    
C20   H2    S    
C36   O16   A    
C19   C20   S    
C4    H9    S    
C43   O29   S    
C9    C10   T    
Cr1   O5    S    
C45   O35   S    
Cr1   O24   S    
Cr2   O5    S    
Cr3   O23   S    
Cr2   O26   S    
C5    C44   S    
C28   H7    S    
C33   O6    A    
C25   C29   S    
C31   O8    A    
C1    O12   A    
C30   C34   S    
Cr1   O25   S    
Cr2   O20   S    
C1    C9    S    
C24   C25   A    
C13   C36   S    
Cr2   O21   S    
O29   H14   S    
C28   H6    S    
C32   O10   A    
Cr2   O2    S    
C22   C37   S    
Cr3   O3    S    
C17   C21   A    
C34   O25   A    
Cr6   O17   S    
C11   C38   S    
C15   C19   S    
C26   H4    S    
C19   H1    S    
O33   H17   S    
C21   C39   S    
C16   C20   S    
C27   H5    S    
C17   C18   A    
C12   O22   A    
C2    O27   S    
C3    O30   S    
C17   O33   S    
C5    H11   S    
C18   H12   S    
C40   C41   A    
C3    C40   A    
C26   C30   A    
C22   C27   A    
Cr3   O5    S    
C22   C24   A    
Cr6   O11   S    
Cr5   O8    S    
Cr4   O14   S    
C14   C35   S    
Cr1   O1    S    
C38   O3    A    
C25   C30   A    
Cr1   O12   S    
C37   O13   A    
C8    C31   S    
C24   C28   S    
Cr6   O10   S    
C4    C5    S    
Cr5   O16   S    
C44   O32   S    
C16   C21   A    
C32   O9    A    
C29   H8    S    
C37   O18   A    
Cr3   O4    S    
C2    C3    A    
Cr5   O15   S    
Cr4   O7    S    
C19   C45   S    
C7    C23   S    
C12   O21   A    
C10   C33   S    
C32   C40   S    
C33   O11   A    
C23   O1    A    
C6    C42   A    
C4    H10   S    
O35   H18   S    
C1    O20   A    
C14   C15   A    
C43   O28   D    
Cr4   O13   S    
C38   O2    A    
