data_mof_unit_58257.cif
_audit_creation_date              2013-03-05T15:55:17-0500
_audit_creation_method            fapswitch 2.2
_symmetry_space_group_name_H-M    P1
_symmetry_Int_Tables_number       1
_space_group_crystal_system       triclinic
_cell_length_a                    27.622357
_cell_length_b                    10.631654
_cell_length_c                    9.985437
_cell_angle_alpha                 88.849877
_cell_angle_beta                  90.843917
_cell_angle_gamma                 92.476746
_cell_volume                      2928.82505674

loop_
_atom_site_label
_atom_site_type_symbol
_atom_site_description
_atom_site_fract_x
_atom_site_fract_y
_atom_site_fract_z
_atom_type_partial_charge
O1    O     O_R   0.500000 0.316780 0.614690 -0.604062
O2    O     O_R   0.500000 0.316750 0.385360 -0.624846
C1    C     C_R   0.502797 0.261486 0.501077 0.923727
O3    O     O_R   0.428760 0.500030 0.614650 -0.545754
O4    O     O_R   0.428750 0.500010 0.385320 -0.629527
C2    C     C_R   0.406448 0.502159 0.499193 0.968755
Zn1   Zn    Zn3+2 0.500000 0.500020 0.653130 1.015085
Zn2   Zn    Zn3+2 0.500000 0.499980 0.346870 0.983822
O5    O     O_R   0.500000 0.683250 0.614640 -0.606470
O6    O     O_R   0.500000 0.683220 0.385310 -0.626769
O7    O     O_R   0.571250 0.499990 0.614680 -0.646201
O8    O     O_R   0.571240 0.499970 0.385350 -0.621268
C3    C     C_R   0.501933 0.739277 0.498646 0.842066
C4    C     C_R   0.594140 0.499611 0.500959 0.856152
C5    C     C_R   0.177104 0.497932 0.393829 0.532662
O9    O     O_2   0.199505 0.437290 0.296319 -0.518104
N1    N     N_R   0.203817 0.566613 0.485239 -0.347561
C6    C     C_R   0.182132 0.636709 0.578933 0.568792
C7    C     C_R   0.287582 0.654687 0.478459 -0.019012
C8    C     C_R   0.337108 0.636627 0.482945 -0.225303
C9    C     C_R   0.321748 0.409948 0.511474 0.299858
C10   C     C_R   0.272208 0.430175 0.512564 -0.141750
C11   C     C_R   0.254998 0.551243 0.492667 0.207615
C12   C     C_R   0.103653 0.555557 0.501522 -0.048012
C13   C     C_R   0.126732 0.487450 0.403164 -0.017788
C14   C     C_R   0.099395 0.406860 0.319709 -0.097180
C15   C     C_R   0.131460 0.634243 0.587222 -0.092562
C16   C     C_R   0.354369 0.515042 0.497130 -0.150597
H1    H     H_    0.246487 0.351012 0.524150 0.190990
H2    H     H_    0.116297 0.355021 0.242001 0.204030
C17   C     C_R   0.647626 0.497643 0.506197 -0.178242
C18   C     C_R   0.976288 0.431157 0.462542 0.052009
C19   C     C_R   0.978024 0.619247 0.602271 0.061723
C20   C     C_R   0.951888 0.520000 0.537078 0.090644
C21   C     C_R   0.949828 0.324999 0.413097 -0.192297
C22   C     C_R   0.899988 0.312016 0.428577 -0.088504
C23   C     C_R   0.875012 0.406600 0.489553 -0.029397
C24   C     C_R   0.900851 0.511464 0.543101 -0.049429
C25   C     C_R   0.875652 0.609075 0.599888 -0.036205
C26   C     C_R   0.824944 0.602098 0.597339 0.641466
N2    N     N_R   0.800618 0.499121 0.545026 -0.326028
C27   C     C_R   0.824501 0.400531 0.495461 0.626112
C28   C     C_R   0.727491 0.509805 0.404496 0.275604
C29   C     C_R   0.676764 0.506946 0.390441 -0.162384
C30   C     C_R   0.670001 0.486342 0.633020 -0.305158
C31   C     C_R   0.720155 0.484350 0.647747 0.322038
C32   C     C_R   0.748953 0.497955 0.532923 0.071237
O10   O     O_2   0.799218 0.298326 0.449622 -0.515851
C33   C     C_R   0.026149 0.452537 0.438543 0.068548
C34   C     C_R   0.052916 0.542931 0.515541 0.053510
C35   C     C_R   0.029364 0.618850 0.607773 -0.076341
C36   C     C_R   0.049959 0.388078 0.338322 -0.184232
H3    H     H_    0.880964 0.229406 0.388739 0.202486
H4    H     H_    0.967129 0.249137 0.364932 0.156490
H5    H     H_    0.030792 0.325315 0.270181 0.161919
O11   O     O_2   0.209482 0.704884 0.666624 -0.513017
C37   C     C_R   0.108564 0.700503 0.686066 -0.161232
H6    H     H_    0.362081 0.717549 0.475144 0.168719
H7    H     H_    0.274576 0.748653 0.463683 0.190411
H8    H     H_    0.130031 0.755002 0.757739 0.233393
C38   C     C_R   0.951934 0.718765 0.652746 -0.112719
C39   C     C_R   0.901530 0.713494 0.652035 -0.102242
O12   O     O_2   0.800064 0.697804 0.644808 -0.520078
C40   C     C_R   0.058250 0.690932 0.700427 0.269103
H9    H     H_    0.969980 0.804205 0.688010 0.181936
H10   H     H_    0.648288 0.476153 0.722311 0.212535
H11   H     H_    0.882957 0.791956 0.691861 0.203155
H12   H     H_    0.445763 0.115835 0.366080 0.218863
C41   C     C_R   0.581309 0.135421 0.640576 -0.207518
H13   H     H_    0.582885 0.237200 0.642772 0.140398
C42   C     C_R   0.617707 0.071120 0.707958 0.053526
C43   C     C_R   0.617761 0.940119 0.703956 -0.135458
H14   H     H_    0.646165 0.889425 0.754469 0.168225
C44   C     C_R   0.581458 0.873303 0.633408 -0.180171
H15   H     H_    0.583892 0.772219 0.629901 0.149781
C45   C     C_R   0.543700 0.936720 0.566984 0.135949
C46   C     C_R   0.543896 0.068668 0.570192 0.110990
C47   C     C_R   0.506512 0.129514 0.501120 -0.089225
C48   C     C_R   0.472449 0.065002 0.422371 -0.117972
C49   C     C_R   0.471925 0.936897 0.417205 -0.063163
C50   C     C_R   0.506065 0.872536 0.494507 -0.118582
C51   C     C_R   0.439281 0.323005 0.132362 -0.135773
C52   C     C_R   0.433493 0.200115 0.080087 0.115130
C53   C     C_R   0.457700 0.178559 0.960616 0.153532
C54   C     C_R   0.462073 0.283645 0.872449 0.201403
C55   C     C_R   0.479430 0.398107 0.930814 0.004546
C56   C     C_R   0.474581 0.406218 0.072732 0.017449
N3    N     N_R   0.499540 0.498800 0.142780 -0.122703
C57   C     C_R   0.523290 0.592848 0.069494 0.034792
H16   H     H_    0.539546 0.671883 0.871608 0.151296
C58   C     C_R   0.521756 0.594723 0.926769 -0.064212
N4    N     N_R   0.499520 0.498720 0.857170 -0.109337
N5    N     N_R   0.337853 0.283223 0.520339 0.255362
O13   O     O_R   0.377317 0.253543 0.461694 -0.364337
O14   O     O_R   0.310465 0.193827 0.574213 -0.290147
N6    N     N_R   0.741251 0.467890 0.779447 0.242015
O15   O     O_R   0.718504 0.503282 0.884577 -0.320236
O16   O     O_R   0.780885 0.407332 0.796551 -0.339248
N7    N     N_R   0.038524 0.739159 0.820515 0.195543
O17   O     O_R   0.009373 0.667932 0.893434 -0.349204
O18   O     O_R   0.055580 0.845319 0.868436 -0.362925
C59   C     C_1   0.655332 0.139908 0.780469 0.188359
N8    N     N_1   0.685557 0.195072 0.838931 -0.084927
C60   C     C_1   0.435602 0.874309 0.332867 0.300691
N9    N     N_1   0.406833 0.824542 0.264509 -0.099016
C61   C     C_1   0.549543 0.693767 0.136110 0.279272
N10   N     N_1   0.570884 0.775330 0.188685 -0.178981
C62   C     C_1   0.395005 0.378883 0.170417 0.441410
N11   N     N_1   0.358827 0.422909 0.196798 -0.126247
N12   N     N_R   0.394184 0.113555 0.120560 0.229069
O19   O     O_R   0.372334 0.125855 0.233549 -0.346282
O20   O     O_R   0.374950 0.034094 0.035440 -0.260082
N13   N     N_R   0.465474 0.052614 0.917746 0.266819
O21   O     O_R   0.468671 0.961754 0.006353 -0.363609
O22   O     O_R   0.478850 0.032484 0.796226 -0.354772
N14   N     N_R   0.423403 0.289150 0.775897 0.251812
O23   O     O_R   0.387670 0.360823 0.800693 -0.366042
O24   O     O_R   0.414622 0.193070 0.699487 -0.268412
C63   C     C_1   0.655958 0.515935 0.256850 0.361029
N15   N     N_1   0.639801 0.522341 0.149456 -0.153163
N16   N     N_R   0.757671 0.526086 0.288612 0.219534
O25   O     O_R   0.752072 0.450444 0.188193 -0.279042
O26   O     O_R   0.792136 0.613438 0.285464 -0.356482

loop_
_geom_bond_atom_site_label_1
_geom_bond_atom_site_label_2
_geom_bond_distance
_ccdc_geom_bond_type
C46   C47   1.406900 A    
C56   N3    1.374110 A    
N5    O13   1.298742 A    
C10   H1    1.083220 S    
N2    C27   1.367130 A    
C41   C46   1.414509 A    
C7    C8    1.389564 A    
C12   C15   1.405698 A    
C4    C17   1.478588 S    
C30   C31   1.392009 A    
N14   O23   1.302292 A    
Zn1   O7    2.010751 S    
N1    C11   1.430836 S    
C26   O12   1.349695 S    
C44   C45   1.415894 A    
C39   H11   1.083288 S    
C49   C60   1.448652 S    
C22   C23   1.398140 A    
O4    C2    1.302249 A    
Zn2   O6    1.993143 S    
O7    C4    1.307994 A    
C5    C13   1.395364 A    
C61   N10   1.157602 T    
C51   C56   1.417516 A    
C3    C50   1.416252 S    
C62   N11   1.157702 T    
C5    N1    1.367898 A    
C23   C27   1.395995 A    
C41   C42   1.397098 A    
O5    C3    1.292506 A    
N12   O19   1.298888 A    
C22   H3    1.083398 S    
C53   C54   1.410626 A    
C40   N7    1.437276 S    
C2    C16   1.450728 S    
C52   C53   1.403745 A    
N6    O16   1.301255 A    
C57   C61   1.437606 S    
C51   C62   1.441753 S    
C57   C58   1.424939 A    
C28   N16   1.439385 S    
C38   C39   1.390908 A    
C36   H5    1.079633 S    
C6    O11   1.349623 S    
H12   C48   1.077685 S    
N5    O14   1.301678 A    
O1    Zn1   1.993143 S    
C9    C10   1.394574 A    
C21   H4    1.079736 S    
C59   N8    1.157074 T    
O3    Zn1   1.999424 S    
C60   N9    1.157372 T    
C19   C20   1.416412 A    
C12   C34   1.410837 A    
C17   C29   1.417593 A    
C6    C15   1.402425 A    
C18   C21   1.411461 A    
C12   C13   1.407923 A    
C43   C44   1.394310 A    
C15   C37   1.398287 A    
C58   N4    1.365187 A    
C55   C56   1.430065 A    
C49   C50   1.402303 A    
C37   H8    1.083506 S    
C8    C16   1.400810 A    
C29   C63   1.447733 S    
C7    H7    1.082774 S    
C13   C14   1.397489 A    
C54   C55   1.421351 A    
C51   C52   1.418411 A    
O1    C1    1.293009 A    
C21   C22   1.388256 A    
C18   C20   1.413651 A    
C7    C11   1.397018 A    
C28   C29   1.405226 A    
C23   C24   1.407908 A    
C14   C36   1.386194 A    
N7    O17   1.301708 A    
Zn2   O8    1.999421 S    
C33   C36   1.410517 A    
N6    O15   1.301578 A    
N1    C6    1.368405 A    
N2    C32   1.429980 S    
C52   N12   1.449442 S    
C34   C35   1.419777 A    
C27   O10   1.350153 S    
C45   C46   1.403610 A    
N16   O25   1.301225 A    
O3    C2    1.299519 A    
C26   N2    1.368222 A    
N7    O18   1.301501 A    
C9    C16   1.411105 A    
O8    C4    1.308174 A    
C14   H2    1.083458 S    
C8    H6    1.081534 S    
C44   H15   1.080987 S    
C25   C26   1.399335 A    
C37   C40   1.398381 A    
N13   O21   1.301745 A    
Zn1   O5    1.978008 S    
C25   C39   1.399338 A    
C31   C32   1.406619 A    
C20   C24   1.410836 A    
C42   C59   1.439670 S    
C54   N14   1.430622 S    
O2    Zn2   1.978006 S    
C35   C40   1.426109 A    
C43   H14   1.083721 S    
O6    C3    1.288941 A    
C45   C50   1.416489 A    
O4    Zn2   2.010753 S    
C63   N15   1.157329 T    
C19   C35   1.418586 A    
O2    C1    1.288549 A    
C42   C43   1.394191 A    
C53   N13   1.439739 S    
C55   N4    1.386389 A    
C47   C48   1.384971 A    
H16   C58   1.082970 S    
C24   C25   1.407357 A    
C9    N5    1.437635 S    
Zn1   N4    2.037432 S    
N14   O24   1.299566 A    
C41   H13   1.081728 S    
N12   O20   1.301967 A    
C18   C33   1.409434 A    
N16   O26   1.301177 A    
C48   C49   1.363424 A    
C38   H9    1.079885 S    
C31   N6    1.441058 S    
N3    C57   1.376140 A    
C19   C38   1.410978 A    
C33   C34   1.418777 A    
C17   C30   1.406206 A    
C30   H10   1.082898 S    
C10   C11   1.400741 A    
Zn2   N3    2.038067 S    
C1    C47   1.411238 S    
C28   C32   1.410477 A    
C5    O9    1.350564 S    
N13   O22   1.298162 A    
