data_mof_unit_55757.cif
_audit_creation_date              2012-12-11T15:37:17-0500
_audit_creation_method            fapswitch 2.2
_symmetry_space_group_name_H-M    P1
_symmetry_Int_Tables_number       1
_space_group_crystal_system       monoclinic
_cell_length_a                    16.706212
_cell_length_b                    7.420131
_cell_length_c                    15.015194
_cell_angle_alpha                 90.0
_cell_angle_beta                  94.469965
_cell_angle_gamma                 90.0
_cell_volume                      1855.65618411

loop_
_atom_site_label
_atom_site_type_symbol
_atom_type_description
_atom_site_fract_x
_atom_site_fract_y
_atom_site_fract_z
_atom_type_partial_charge
O1    O     O_R   0.578230 0.505720 0.424270 -0.531646
O2    O     O_R   0.421770 0.005720 0.575730 -0.531646
O3    O     O_R   0.412470 0.173950 0.404530 -0.488662
O4    O     O_R   0.587530 0.673950 0.595470 -0.488662
C1    C     C_R   0.387043 0.345496 0.381433 0.940960
C2    C     C_R   0.612957 0.845496 0.618567 0.940960
O5    O     O_R   0.577030 0.175880 0.413670 -0.533161
O6    O     O_R   0.422970 0.675880 0.586330 -0.533161
O7    O     O_R   0.587510 0.007580 0.584940 -0.529719
O8    O     O_R   0.412490 0.507580 0.415060 -0.529719
C3    C     C_R   0.602703 0.344274 0.394027 0.721738
C4    C     C_R   0.397297 0.844274 0.605973 0.721737
O9    O     O_3   0.503240 0.339850 0.556180 -0.380066
O10   O     O_3   0.496760 0.839850 0.443820 -0.380066
V1    V     V_3+5 0.499400 0.064230 0.489580 1.712410
V2    V     V_3+5 0.500600 0.564230 0.510420 1.712411
C5    C     C_1   0.334183 0.854082 0.668230 -0.080226
C6    C     C_1   0.665817 0.354082 0.331769 -0.080226
C7    C     C_1   0.281091 0.865310 0.719626 0.044591
C8    C     C_1   0.718909 0.365310 0.280374 0.044591
C9    C     C_1   0.218478 0.879694 0.779947 0.025732
C10   C     C_1   0.781522 0.379694 0.220053 0.025732
C11   C     C_1   0.165504 0.890867 0.831469 -0.164998
C12   C     C_1   0.834496 0.390867 0.168531 -0.164999
C13   C     C_3   0.752420 0.710062 0.833741 -0.097017
C14   C     C_3   0.247581 0.210062 0.166259 -0.097016
C15   C     C_3   0.675858 0.712557 0.763078 1.041656
C16   C     C_3   0.324142 0.212557 0.236922 1.041655
C17   C     C_3   0.844691 0.883518 0.708827 0.000627
C18   C     C_3   0.155309 0.383518 0.291173 0.000627
C19   C     C_3   0.754121 0.041197 0.817892 0.964811
C20   C     C_3   0.245879 0.541197 0.182108 0.964812
C21   C     C_3   0.811924 0.878598 0.811559 -0.374774
C22   C     C_3   0.188076 0.378598 0.188441 -0.374777
C23   C     C_3   0.684319 0.858999 0.689075 -0.481204
C24   C     C_3   0.315681 0.358999 0.310925 -0.481207
C25   C     C_3   0.764891 0.852363 0.639402 0.902921
C26   C     C_3   0.235109 0.352363 0.360598 0.902924
C27   C     C_3   0.685953 0.042557 0.740399 0.336008
C28   C     C_3   0.314047 0.542557 0.259601 0.336009
H1    H     H_    0.695300 0.152110 0.692748 0.139240
H2    H     H_    0.304699 0.652110 0.307252 0.139239
O11   O     O_R   0.087480 0.241090 0.084980 -0.567204
O12   O     O_R   0.912520 0.741090 0.915020 -0.567205
O13   O     O_R   0.922960 0.569060 0.086330 -0.541331
O14   O     O_R   0.077040 0.069060 0.913670 -0.541331
C29   C     C_R   0.897303 0.400655 0.105950 0.682360
C30   C     C_R   0.102697 0.900655 0.894050 0.682360
O15   O     O_R   0.087520 0.570920 0.095480 -0.486734
O16   O     O_R   0.912480 0.070920 0.904520 -0.486735
O17   O     O_R   0.078240 0.739160 0.924260 -0.519942
O18   O     O_R   0.921760 0.239160 0.075740 -0.519942
C31   C     C_R   0.115848 0.400256 0.116592 0.807751
C32   C     C_R   0.884152 0.900256 0.883408 0.807751
O19   O     O_3   0.996740 0.404980 0.943840 -0.388159
O20   O     O_3   0.003260 0.904980 0.056160 -0.388159
V3    V     V_3+5 0.000600 0.680640 0.010420 1.429407
V4    V     V_3+5 0.999400 0.180640 0.989580 1.429407
C33   C     C_3   0.791222 0.523098 0.830012 -0.183171
C34   C     C_3   0.815680 0.463516 0.740402 -0.608757
H3    H     H_    0.769323 0.381882 0.704482 0.271052
H4    H     H_    0.815141 0.565338 0.695992 0.260240
H5    H     H_    0.876185 0.402538 0.746694 0.209794
H6    H     H_    0.839153 0.494338 0.882891 0.223063
H7    H     H_    0.743008 0.428896 0.844624 0.296763
C35   C     C_3   0.208778 0.023098 0.169988 -0.183171
C36   C     C_3   0.184321 0.963516 0.259598 -0.608759
H8    H     H_    0.230677 0.881882 0.295517 0.271052
H9    H     H_    0.184860 0.065339 0.304008 0.260238
H10   H     H_    0.123815 0.902539 0.253306 0.209795
H11   H     H_    0.160847 0.994338 0.117109 0.223064
H12   H     H_    0.256992 0.928895 0.155375 0.296763
C37   C     C_3   0.881555 0.072416 0.683873 -0.235244
C38   C     C_3   0.928417 0.090866 0.599457 -0.708025
H13   H     H_    0.987317 0.021538 0.606257 0.216340
H14   H     H_    0.892915 0.044324 0.538408 0.280567
H15   H     H_    0.942234 0.234968 0.588952 0.193199
H16   H     H_    0.832593 0.164675 0.669275 0.228417
H17   H     H_    0.922116 0.122776 0.740415 0.196081
C39   C     C_3   0.118445 0.572416 0.316127 -0.235244
C40   C     C_3   0.071583 0.590867 0.400543 -0.708024
H18   H     H_    0.012683 0.521541 0.393742 0.216339
H19   H     H_    0.107085 0.544323 0.461592 0.280567
H20   H     H_    0.057767 0.734970 0.411049 0.193199
H21   H     H_    0.167407 0.664675 0.330725 0.228417
H22   H     H_    0.077884 0.622776 0.259585 0.196081
F1    F     F_    0.757702 0.988646 0.575756 -0.707062
F2    F     F_    0.242298 0.488646 0.424244 -0.707061
C41   C     C_3   0.724276 0.722565 0.934115 -0.260931
C42   C     C_3   0.690633 0.553345 0.977632 -0.652788
H23   H     H_    0.641059 0.493238 0.933752 0.301630
H24   H     H_    0.738443 0.452018 0.993784 0.217414
H25   H     H_    0.666127 0.590922 0.041805 0.226267
H26   H     H_    0.774273 0.771804 0.980732 0.185386
H27   H     H_    0.673970 0.817484 0.938822 0.307958
C43   C     C_3   0.275724 0.222566 0.065885 -0.260930
C44   C     C_3   0.309367 0.053345 0.022368 -0.652790
H28   H     H_    0.358940 0.993238 0.066248 0.301630
H29   H     H_    0.261557 0.952019 0.006215 0.217414
H30   H     H_    0.333873 0.090923 0.958195 0.226267
H31   H     H_    0.225728 0.271805 0.019268 0.185386
H32   H     H_    0.326030 0.317484 0.061177 0.307957
F3    F     F_    0.606448 0.749673 0.804899 -0.620598
F4    F     F_    0.393552 0.249674 0.195101 -0.620596
F5    F     F_    0.659836 0.545421 0.724952 -0.655964
F6    F     F_    0.340164 0.045421 0.275047 -0.655964
C45   C     C_3   0.923770 0.761387 0.704077 -0.254107
C46   C     C_3   0.938040 0.672549 0.613489 -0.659740
H33   H     H_    0.914194 0.533893 0.608894 0.221047
H34   H     H_    0.910178 0.747767 0.555675 0.276148
H35   H     H_    0.003545 0.662966 0.606034 0.187435
H36   H     H_    0.978888 0.840017 0.724812 0.145283
H37   H     H_    0.932074 0.661981 0.758097 0.170681
C47   C     C_3   0.076230 0.261386 0.295923 -0.254105
C48   C     C_3   0.061960 0.172546 0.386511 -0.659748
H38   H     H_    0.085811 0.033897 0.391109 0.221055
H39   H     H_    0.089817 0.247769 0.444325 0.276141
H40   H     H_    0.996457 0.162950 0.393962 0.187435
H41   H     H_    0.021112 0.340017 0.275189 0.145284
H42   H     H_    0.067926 0.161982 0.241903 0.170681
F7    F     F_    0.765517 0.701048 0.585310 -0.675167
F8    F     F_    0.234483 0.201049 0.414690 -0.675165
F9    F     F_    0.801131 0.180253 0.814437 -0.770076
F10   F     F_    0.198869 0.680253 0.185563 -0.770075
F11   F     F_    0.723161 0.068127 0.899291 -0.647531
F12   F     F_    0.276839 0.568127 0.100709 -0.647531
F13   F     F_    0.612535 0.079574 0.773736 -0.560972
F14   F     F_    0.387465 0.579574 0.226265 -0.560972

loop_
_geom_bond_atom_site_label_1
_geom_bond_atom_site_label_2
_ccdc_geom_bond_type
C3    C6    S    
O4    V2    S    
C43   H32   S    
C45   H36   S    
C20   F10   S    
O1    C3    A    
O2    C4    A    
C44   H30   S    
C2    O7    A    
C47   C48   S    
C27   H1    S    
C46   H33   S    
O5    C3    A    
O13   V3    S    
C33   H6    S    
O16   C32   A    
C38   H14   S    
C34   H5    S    
C23   C25   S    
C17   C37   S    
C15   F5    S    
C48   H38   S    
C28   F14   S    
C1    C24   S    
C17   C21   S    
O15   V3    S    
C2    C23   S    
C18   C26   S    
C34   H4    S    
C37   C38   S    
C20   F12   S    
C41   H26   S    
C45   H37   S    
C39   H22   S    
O11   V4    S    
C44   H29   S    
O11   C31   A    
C30   O17   A    
C35   H12   S    
C16   F6    S    
C48   H39   S    
C38   H15   S    
C4    C5    S    
C45   C46   S    
C19   C21   S    
O17   V3    S    
C47   H41   S    
C18   C39   S    
C28   H2    S    
C35   C36   S    
C33   C34   S    
O6    V2    S    
C43   H31   S    
O14   V4    S    
C40   H19   S    
C14   C22   S    
C44   H28   S    
O13   C29   A    
C14   C43   S    
O14   C30   A    
C27   F13   S    
C38   H13   S    
C18   C22   S    
C36   H8    S    
C14   C35   S    
C24   C28   S    
O4    C2    A    
O5    V1    S    
C15   C23   S    
C37   H16   S    
C40   H18   S    
C26   F2    S    
C34   H3    S    
C36   H9    S    
C20   C22   S    
C41   H27   S    
C23   C27   S    
C39   H21   S    
C16   F4    S    
C42   H24   S    
C35   H11   S    
O12   V3    S    
O6    C4    A    
C48   H40   S    
C43   C44   S    
C37   H17   S    
O16   V4    S    
O1    V2    S    
O2    V1    S    
C26   F8    S    
O18   V4    S    
C25   F7    S    
C8    C10   S    
O19   V3    S    
C10   C12   T    
O19   V4    S    
O20   V3    S    
C19   F11   S    
C24   C26   S    
C40   H20   S    
O3    V1    S    
C42   H25   S    
C18   C47   S    
C21   C32   S    
C11   C30   S    
C7    C9    S    
C12   C29   S    
C14   C16   S    
C25   F1    S    
C39   C40   S    
O3    C1    A    
C46   H34   S    
C29   O18   A    
C13   C15   S    
C13   C41   S    
C46   H35   S    
C36   H10   S    
C9    C11   T    
O7    V1    S    
C19   F9    S    
C1    O8    A    
O8    V2    S    
C33   H7    S    
C42   H23   S    
O15   C31   A    
C15   F3    S    
C5    C7    T    
O20   V4    S    
C6    C8    T    
C20   C28   S    
O12   C32   A    
C16   C24   S    
C22   C31   S    
O9    V2    S    
C17   C25   S    
C19   C27   S    
O10   V1    S    
C17   C45   S    
C13   C33   S    
C41   C42   S    
C47   H42   S    
C13   C21   S    
