data_mof_unit_8391.cif
_audit_creation_date              2012-12-10T19:47:56-0500
_audit_creation_method            fapswitch 2.2
_symmetry_space_group_name_H-M    P1
_symmetry_Int_Tables_number       1
_space_group_crystal_system       triclinic
_cell_length_a                    14.955889
_cell_length_b                    14.144342
_cell_length_c                    10.661897
_cell_angle_alpha                 89.988823
_cell_angle_beta                  89.475652
_cell_angle_gamma                 89.946306
_cell_volume                      2255.33510381

loop_
_atom_site_label
_atom_site_type_symbol
_atom_type_description
_atom_site_fract_x
_atom_site_fract_y
_atom_site_fract_z
_atom_type_partial_charge
C1    C     C_R   0.327200 0.500135 0.504330 0.871178
C2    C     C_R   0.482645 0.795807 0.608279 0.030650
C3    C     C_R   0.535240 0.204411 0.598786 0.024226
C4    C     C_R   0.517982 0.795754 0.391859 0.025643
C5    C     C_R   0.500273 0.053369 0.499977 0.142152
C6    C     C_R   0.500323 0.946846 0.500025 0.141453
C7    C     C_R   0.499697 0.499869 0.260634 0.879957
C8    C     C_R   0.498653 0.499773 0.739367 0.861269
C9    C     C_R   0.662361 0.529999 0.127194 -0.164813
C10   C     C_R   0.340737 0.446287 0.872854 -0.179272
C11   C     C_R   0.660528 0.537219 0.866764 -0.152392
C12   C     C_R   0.672985 0.500004 0.505181 0.866787
C13   C     C_R   0.338933 0.456155 0.133243 -0.155938
C14   C     C_R   0.741325 0.547357 0.060577 -0.156033
C15   C     C_R   0.262489 0.425982 0.939407 -0.135411
C16   C     C_R   0.740270 0.551655 0.930416 -0.142618
C17   C     C_R   0.261433 0.431483 0.069529 -0.148692
C18   C     C_R   0.579804 0.518358 0.933051 0.071731
C19   C     C_R   0.419380 0.476289 0.066922 0.072317
C20   C     C_R   0.580468 0.516393 0.063918 0.073413
C21   C     C_R   0.419783 0.473407 0.935998 0.065779
C22   C     C_R   0.499064 0.498413 0.871574 -0.195097
C23   C     C_R   0.048275 0.496063 0.579534 0.084227
C24   C     C_R   0.499561 0.498853 0.128366 -0.196371
C25   C     C_R   0.099113 0.573033 0.618307 -0.265300
C26   C     C_R   0.901665 0.418995 0.603501 -0.261643
C27   C     C_R   0.908917 0.584848 0.549406 -0.254854
C28   C     C_R   0.088794 0.420165 0.517347 -0.241485
C29   C     C_R   0.189778 0.577335 0.590153 0.176580
C30   C     C_R   0.811537 0.416682 0.574172 0.176702
C31   C     C_R   0.818174 0.585960 0.524455 0.169432
C32   C     C_R   0.179993 0.420270 0.493384 0.158137
C33   C     C_R   0.231169 0.499961 0.527728 -0.132008
C34   C     C_R   0.951237 0.501075 0.584214 0.081105
C35   C     C_R   0.768979 0.500298 0.530991 -0.142967
C36   C     C_3   0.274073 0.665575 0.742788 -0.752820
C37   C     C_3   0.772562 0.266476 0.483897 -0.742453
C38   C     C_3   0.785727 0.701255 0.364366 -0.767760
C39   C     C_3   0.231792 0.259121 0.501915 -0.736066
C40   C     C_R   0.464763 0.105011 0.399029 -0.294946
C41   C     C_R   0.482779 0.895222 0.610427 -0.289835
C42   C     C_R   0.535695 0.105005 0.600897 -0.296410
C43   C     C_R   0.517991 0.895179 0.389693 -0.290663
C44   C     C_R   0.464984 0.204422 0.401135 0.019058
H1    H     H_    0.200561 0.416191 0.121333 0.126688
H2    H     H_    0.934179 0.354701 0.634607 0.140136
H3    H     H_    0.946897 0.649122 0.534540 0.141284
H4    H     H_    0.049196 0.361883 0.482373 0.142508
H5    H     H_    0.435641 0.068917 0.319765 0.137539
H6    H     H_    0.467885 0.931330 0.697675 0.135036
H7    H     H_    0.564915 0.068911 0.680152 0.137129
H8    H     H_    0.533163 0.931267 0.302523 0.136054
H9    H     H_    0.436597 0.243182 0.323610 0.140054
H10   H     H_    0.468533 0.757451 0.693829 0.132951
H11   H     H_    0.563587 0.243161 0.676270 0.138774
H12   H     H_    0.801499 0.565104 0.878466 0.138276
H13   H     H_    0.532743 0.757350 0.306508 0.135323
H14   H     H_    0.200466 0.722432 0.598576 0.218316
H15   H     H_    0.221258 0.653560 0.815080 0.230174
H16   H     H_    0.304600 0.736001 0.758927 0.220622
H17   H     H_    0.327291 0.611866 0.751781 0.253110
H18   H     H_    0.778557 0.296297 0.673335 0.213451
H19   H     H_    0.842911 0.242315 0.472449 0.214223
H20   H     H_    0.750796 0.302144 0.396434 0.253195
H21   H     H_    0.729271 0.203787 0.499679 0.234777
H22   H     H_    0.795975 0.728050 0.553879 0.219513
H23   H     H_    0.202483 0.406329 0.889743 0.139545
H24   H     H_    0.856995 0.713968 0.339242 0.222069
H25   H     H_    0.747138 0.767160 0.348060 0.236093
H26   H     H_    0.758414 0.645290 0.303358 0.240393
H27   H     H_    0.185193 0.327838 0.344522 0.209354
H28   H     H_    0.166447 0.229884 0.533658 0.214617
H29   H     H_    0.273229 0.275678 0.585060 0.258378
H30   H     H_    0.267055 0.204615 0.445174 0.229610
H31   H     H_    0.803549 0.557051 0.109981 0.133970
H32   H     H_    0.666258 0.525641 0.228186 0.123642
H33   H     H_    0.338244 0.441122 0.771793 0.136392
H34   H     H_    0.663201 0.539695 0.765581 0.132575
H35   H     H_    0.335066 0.459090 0.234470 0.136051
H36   H     H_    0.067686 0.632023 0.666370 0.137695
N1    N     N_R   0.500000 0.252470 0.500000 -0.088308
N2    N     N_R   0.500000 0.747530 0.500000 -0.083902
N3    N     N_2   0.236726 0.662222 0.618371 -0.278316
N4    N     N_2   0.764575 0.329927 0.589884 -0.282183
N5    N     N_2   0.777380 0.674042 0.494558 -0.272194
N6    N     N_2   0.218411 0.342952 0.426480 -0.295849
O1    O     O_R   0.369060 0.579480 0.500010 -0.587692
O2    O     O_R   0.630940 0.420520 0.499990 -0.587710
O3    O     O_R   0.630940 0.579480 0.499990 -0.589308
O4    O     O_R   0.369060 0.420520 0.500010 -0.602302
O5    O     O_R   0.499990 0.579480 0.316780 -0.629559
O6    O     O_R   0.500010 0.420520 0.683220 -0.627586
O7    O     O_R   0.500010 0.579480 0.683220 -0.636193
O8    O     O_R   0.499990 0.420520 0.316780 -0.625659
Zn1   Zn    Zn3+2 0.500000 0.606140 0.500000 0.954259
Zn2   Zn    Zn3+2 0.500000 0.393860 0.500000 0.947039

loop_
_geom_bond_atom_site_label_1
_geom_bond_atom_site_label_2
_ccdc_geom_bond_type
C1    O1    A    
C5    C42   A    
C38   H26   S    
C3    C42   A    
C1    O4    A    
C31   N5    S    
C25   H36   S    
C36   H15   S    
H22   N5    S    
O2    Zn2   S    
C1    C33   S    
C11   C18   A    
C30   C35   A    
C19   C21   A    
C17   H1    S    
C29   N3    S    
C10   C15   A    
C5    C6    S    
C43   H8    S    
C2    C41   A    
C7    C24   S    
C29   C33   A    
O6    Zn2   S    
C13   H35   S    
C39   H30   S    
C3    H11   S    
C44   H9    S    
C26   C34   A    
C20   C24   A    
C6    C41   A    
C37   H21   S    
C4    H13   S    
C3    N1    A    
C8    C22   S    
C39   H28   S    
C37   N4    S    
C8    O6    A    
C9    H32   S    
C18   C20   A    
C42   H7    S    
C39   H29   S    
C38   H25   S    
C15   H23   S    
C27   C34   A    
C21   C22   A    
C37   H19   S    
C10   H33   S    
C10   C21   A    
C25   C29   A    
C13   C19   A    
C38   N5    S    
C27   C31   A    
C12   O3    A    
C28   C32   A    
C44   N1    A    
C2    H10   S    
N1    Zn2   S    
C12   O2    A    
O1    Zn1   S    
O3    Zn1   S    
C9    C14   A    
C16   H12   S    
C11   H34   S    
H27   N6    S    
C11   C16   A    
C9    C20   A    
C23   C34   S    
C32   N6    S    
C23   C28   A    
C12   C35   S    
O8    Zn2   S    
C38   H24   S    
C26   C30   A    
C6    C43   A    
C31   C35   A    
C2    N2    A    
C36   H17   S    
C41   H6    S    
C37   H20   S    
C27   H3    S    
C15   C17   A    
C7    O8    A    
H18   N4    S    
C28   H4    S    
N2    Zn1   S    
C18   C22   A    
C8    O7    A    
C36   H16   S    
O4    Zn2   S    
C4    C43   A    
C13   C17   A    
C14   H31   S    
C19   C24   A    
H14   N3    S    
C32   C33   A    
C7    O5    A    
C14   C16   A    
C23   C25   A    
C30   N4    S    
C26   H2    S    
O5    Zn1   S    
C40   C44   A    
C4    N2    A    
O7    Zn1   S    
C5    C40   A    
C36   N3    S    
C39   N6    S    
C40   H5    S    
