data_mof_unit_51017.cif
_audit_creation_date              2012-12-10T17:29:20-0500
_audit_creation_method            fapswitch 2.2
_symmetry_space_group_name_H-M    P1
_symmetry_Int_Tables_number       1
_space_group_crystal_system       triclinic
_cell_length_a                    12.08098
_cell_length_b                    12.863155
_cell_length_c                    12.972438
_cell_angle_alpha                 85.828091
_cell_angle_beta                  111.909121
_cell_angle_gamma                 93.936708
_cell_volume                      1863.48156203

loop_
_atom_site_label
_atom_site_type_symbol
_atom_type_description
_atom_site_fract_x
_atom_site_fract_y
_atom_site_fract_z
_atom_type_partial_charge
C1    C     C_R   0.476968 0.299831 0.497710 0.913172
C2    C     C_R   0.610571 0.488726 0.830020 -0.094888
C3    C     C_R   0.540775 0.812013 0.510355 -0.160429
C4    C     C_R   0.565436 0.493348 0.708673 0.930378
C5    C     C_R   0.462956 0.188493 0.496739 -0.013912
C6    C     C_R   0.341394 0.031996 0.438589 -0.142090
C7    C     C_R   0.350248 0.139083 0.447809 -0.150727
C8    C     C_R   0.565993 0.131641 0.540704 -0.165518
C9    C     C_R   0.558130 0.025413 0.531330 0.092722
C10   C     C_R   0.445266 0.975403 0.478900 0.158093
C11   C     C_R   0.437865 0.869500 0.467787 -0.275253
C12   C     C_R   0.573353 0.456931 0.999553 0.049820
C13   C     C_R   0.654009 0.861797 0.563342 0.389881
C14   C     C_R   0.661675 0.968926 0.572774 -0.211546
C15   C     C_R   0.018072 0.613991 0.407454 -0.207812
C16   C     C_R   0.523856 0.700386 0.503638 0.937477
C17   C     C_R   0.134903 0.597357 0.412450 0.371490
C18   C     C_R   0.153422 0.452981 0.541387 0.437129
C19   C     C_R   0.037293 0.466976 0.542417 -0.021928
C20   C     C_R   0.966131 0.544551 0.469167 -0.076248
C21   C     C_R   0.845843 0.549898 0.461616 0.120657
C22   C     C_R   0.866946 0.410046 0.594841 -0.049428
C23   C     C_R   0.549795 0.430568 0.890279 -0.040024
C24   C     C_R   0.988325 0.405809 0.613083 -0.088470
C25   C     C_R   0.434291 0.497285 0.291961 0.873452
C26   C     C_R   0.303125 0.332561 0.040676 0.445118
C27   C     C_R   0.396330 0.464389 0.177620 -0.182350
C28   C     C_R   0.712684 0.550652 0.886726 -0.158893
C29   C     C_R   0.754403 0.553164 0.002015 -0.161908
C30   C     C_R   0.687255 0.503693 0.060529 0.002602
C31   C     C_2   0.219371 0.354175 0.188207 0.530712
C32   C     C_2   0.958210 0.708473 0.342392 0.473822
C33   C     C_2   0.061405 0.352194 0.718450 0.534109
C34   C     C_R   0.481886 0.434819 0.041650 0.045334
C35   C     C_2   0.749015 0.484205 0.182195 0.419826
C36   C     C_R   0.390902 0.358031 0.993858 -0.028598
C37   C     C_R   0.393208 0.307222 0.902305 -0.089235
C38   C     C_R   0.470988 0.344145 0.849359 0.400436
C39   C     C_R   0.476208 0.492746 0.125493 -0.116155
C40   C     C_R   0.305850 0.385546 0.133777 -0.140155
Cl1   Cl    Cl    0.787501 0.794598 0.624701 -0.583409
Cl2   Cl    Cl    0.189193 0.670335 0.319465 -0.616847
Cl3   Cl    Cl    0.226881 0.338027 0.600412 -0.542214
Cl4   Cl    Cl    0.197643 0.227548 0.990415 -0.550278
Cl5   Cl    Cl    0.490812 0.263698 0.754272 -0.578216
H1    H     H_    0.254287 0.993801 0.398965 0.162892
H2    H     H_    0.839892 0.592339 0.045590 0.179067
H3    H     H_    0.350953 0.831784 0.426780 0.221162
H4    H     H_    0.248912 0.344348 0.277829 0.049996
H5    H     H_    0.011350 0.779991 0.342342 0.127944
H6    H     H_    0.029772 0.278093 0.745401 0.098215
H7    H     H_    0.834029 0.524037 0.224704 0.112230
H8    H     H_    0.748163 0.007809 0.613618 0.184078
H9    H     H_    0.270217 0.183286 0.414120 0.178174
H10   H     H_    0.652889 0.170320 0.580796 0.161322
H11   H     H_    0.787745 0.608082 0.409295 0.184940
H12   H     H_    0.828656 0.362708 0.646831 0.133028
H13   H     H_    0.333827 0.240613 0.869614 0.234431
H14   H     H_    0.540344 0.557159 0.156538 0.167254
H15   H     H_    0.762236 0.594337 0.842091 0.193484
N1    N     N_R   0.798200 0.480260 0.519790 -0.100665
N2    N     N_R   0.201820 0.519740 0.480210 -0.154617
O1    O     O_R   0.579910 0.341070 0.505280 -0.628490
O2    O     O_2   0.852008 0.707567 0.285013 -0.608990
O3    O     O_2   0.153223 0.394769 0.780047 -0.529326
O4    O     O_2   0.711247 0.417871 0.234542 -0.553613
O5    O     O_R   0.388440 0.353740 0.492580 -0.568452
O6    O     O_R   0.643280 0.490550 0.663120 -0.611251
O7    O     O_R   0.451810 0.503220 0.650420 -0.566377
O8    O     O_R   0.611560 0.646260 0.507420 -0.581913
O9    O     O_R   0.420090 0.658930 0.494720 -0.583708
O10   O     O_R   0.548190 0.496780 0.349580 -0.589341
O11   O     O_R   0.356720 0.509450 0.336880 -0.581602
O12   O     O_2   0.113227 0.340402 0.133046 -0.489334
Zn1   Zn    Zn3+2 0.627850 0.491540 0.508480 1.021147
Zn2   Zn    Zn3+2 0.372150 0.508460 0.491520 1.058619

loop_
_geom_bond_atom_site_label_1
_geom_bond_atom_site_label_2
_ccdc_geom_bond_type
C19   C20   A    
C22   H12   S    
C13   Cl1   S    
C33   O3    D    
C15   C32   S    
N1    Zn1   S    
O6    Zn1   S    
C12   C23   A    
C37   C38   A    
C30   C35   S    
C29   H2    S    
C1    C5    S    
C36   C37   A    
C25   O11   A    
O9    Zn2   S    
C31   C40   S    
O7    Zn2   S    
C18   C19   A    
C17   Cl2   S    
C38   Cl5   S    
C27   C39   A    
C8    C9    A    
C9    C10   A    
C21   N1    A    
C37   H13   S    
C3    C13   A    
C13   C14   A    
N2    Zn2   S    
C11   H3    S    
C16   O9    A    
C31   H4    S    
O10   Zn1   S    
C1    O1    A    
C8    H10   S    
C4    O7    A    
C28   H15   S    
C15   C20   A    
C26   Cl4   S    
C34   C39   A    
C16   O8    A    
C32   O2    D    
C4    O6    A    
C18   N2    A    
C31   O12   D    
C35   O4    D    
C2    C4    S    
C9    C14   A    
C29   C30   A    
C17   N2    A    
C5    C8    A    
C27   C40   A    
C39   H14   S    
C25   O10   A    
C32   H5    S    
C26   C36   A    
O11   Zn2   S    
C22   C24   A    
C33   H6    S    
C12   C34   A    
O8    Zn1   S    
C5    C7    A    
C15   C17   A    
C28   C29   A    
C6    H1    S    
C12   C30   A    
C6    C10   A    
C21   H11   S    
C6    C7    A    
C25   C27   S    
C23   C38   A    
C24   C33   S    
C19   C24   A    
C18   Cl3   S    
C22   N1    A    
C35   H7    S    
C26   C40   A    
O1    Zn1   S    
C1    O5    A    
C34   C36   A    
C3    C11   A    
C10   C11   A    
C14   H8    S    
C20   C21   A    
C2    C23   A    
C2    C28   A    
O5    Zn2   S    
C7    H9    S    
C3    C16   S    
