data_mof_unit_65214.cif
_audit_creation_date              2012-12-10T20:13:34-0500
_audit_creation_method            fapswitch 2.2
_symmetry_space_group_name_H-M    P1
_symmetry_Int_Tables_number       1
_space_group_crystal_system       tetragonal
_cell_length_a                    15.920258
_cell_length_b                    15.920258
_cell_length_c                    39.729337
_cell_angle_alpha                 90.0
_cell_angle_beta                  90.0
_cell_angle_gamma                 90.0
_cell_volume                      10069.5838051

loop_
_atom_site_label
_atom_site_type_symbol
_atom_type_description
_atom_site_fract_x
_atom_site_fract_y
_atom_site_fract_z
_atom_type_partial_charge
C1    C     C_R   1.000000 0.500000 0.948739 0.020130
C2    C     C_1   1.000000 0.500000 0.015138 -0.012875
C3    C     C_2   0.569392 0.854222 0.120333 0.228371
C4    C     C_2   0.145774 0.430600 0.879667 0.228372
C5    C     C_2   0.854223 0.569394 0.120333 0.228369
C6    C     C_2   0.569394 0.854223 0.879667 0.228369
C7    C     C_2   0.430608 0.145778 0.120333 0.228371
C8    C     C_2   0.645777 0.069394 0.379667 0.228369
C9    C     C_2   0.354223 0.930606 0.620333 0.228369
C10   C     C_2   0.930606 0.354223 0.379667 0.228369
C11   C     C_2   0.069394 0.645777 0.620333 0.228369
C12   C     C_2   0.354223 0.930606 0.379667 0.228369
C13   C     C_1   0.500000 0.000000 0.984862 -0.012875
C14   C     C_2   0.645777 0.069394 0.620333 0.228371
C15   C     C_2   0.069394 0.645777 0.379667 0.228370
C16   C     C_2   0.930606 0.354223 0.620333 0.228369
C17   C     C_1   0.500000 0.000000 0.015138 -0.012875
C18   C     C_1   0.500000 0.000000 0.484862 -0.012875
C19   C     C_1   0.500000 0.000000 0.515138 -0.012875
C20   C     C_1   0.000000 0.500000 0.484862 -0.012875
C21   C     C_1   0.000000 0.500000 0.515138 -0.012875
C22   C     C_R   0.500000 0.000000 0.840965 0.618322
C23   C     C_R   0.500000 0.000000 0.159035 0.618323
C24   C     C_R   0.000000 0.500000 0.840965 0.618320
C25   C     C_R   0.000000 0.500000 0.051261 0.020130
C26   C     C_R   0.000000 0.500000 0.159035 0.618322
C27   C     C_R   0.000000 0.500000 0.340965 0.618322
C28   C     C_R   0.000000 0.500000 0.659035 0.618322
C29   C     C_R   0.500000 0.000000 0.340965 0.618322
C30   C     C_R   0.500000 0.000000 0.659035 0.618322
C31   C     C_R   0.660111 0.160083 0.749991 0.530657
C32   C     C_R   0.339889 0.839917 0.250009 0.530657
C33   C     C_R   0.839889 0.660083 0.750009 0.530657
C34   C     C_R   0.160111 0.339917 0.249991 0.530657
C35   C     C_R   0.339889 0.839917 0.749991 0.530657
C36   C     C_R   0.500000 0.000000 0.948739 0.020130
C37   C     C_R   0.660111 0.160083 0.250009 0.530657
C38   C     C_R   0.160111 0.339917 0.750009 0.530657
C39   C     C_R   0.839889 0.660083 0.249991 0.530657
C40   C     C_R   0.660083 0.839889 0.249991 0.530657
C41   C     C_R   0.339917 0.160111 0.750009 0.530657
C42   C     C_R   0.839917 0.339889 0.250009 0.530657
C43   C     C_R   0.160083 0.660111 0.749991 0.530657
C44   C     C_R   0.339917 0.160111 0.249991 0.530657
C45   C     C_R   0.660083 0.839889 0.750009 0.530657
C46   C     C_R   0.160083 0.660111 0.250009 0.530657
C47   C     C_R   0.500000 0.000000 0.051261 0.020130
C48   C     C_R   0.839917 0.339889 0.749991 0.530657
C49   C     C_1   0.276661 0.223384 0.750018 0.002155
C50   C     C_1   0.723339 0.776616 0.249982 0.002155
C51   C     C_1   0.776661 0.276616 0.749982 0.002155
C52   C     C_1   0.223339 0.723384 0.250018 0.002155
C53   C     C_1   0.723339 0.776616 0.750018 0.002155
C54   C     C_1   0.276661 0.223384 0.249982 0.002155
C55   C     C_1   0.223339 0.723384 0.749982 0.002155
C56   C     C_1   0.776661 0.276616 0.250018 0.002155
C57   C     C_1   0.276616 0.776661 0.250018 0.002155
C58   C     C_R   0.500000 0.000000 0.448739 0.020130
C59   C     C_1   0.723384 0.223339 0.749982 0.002155
C60   C     C_1   0.776616 0.723339 0.249982 0.002155
C61   C     C_1   0.223384 0.276661 0.750018 0.002155
C62   C     C_1   0.723384 0.223339 0.250018 0.002155
C63   C     C_1   0.276616 0.776661 0.749982 0.002155
C64   C     C_1   0.223384 0.276661 0.249982 0.002155
C65   C     C_1   0.776616 0.723339 0.750018 0.002155
C66   C     C_R   0.932698 0.535062 0.931276 -0.139420
C67   C     C_R   0.067304 0.464941 0.068724 -0.139419
C68   C     C_R   0.464941 0.067304 0.931276 -0.139420
C69   C     C_R   0.500000 0.000000 0.551261 0.020130
C70   C     C_R   0.535058 0.932696 0.068724 -0.139419
C71   C     C_R   0.067302 0.464938 0.931276 -0.139419
C72   C     C_R   0.932696 0.535059 0.068724 -0.139419
C73   C     C_R   0.535059 0.932696 0.931276 -0.139419
C74   C     C_R   0.464942 0.067304 0.068724 -0.139419
C75   C     C_R   0.567304 0.035059 0.431276 -0.139419
C76   C     C_R   0.432696 0.964941 0.568724 -0.139419
C77   C     C_R   0.964941 0.432696 0.431276 -0.139419
C78   C     C_R   0.035059 0.567303 0.568724 -0.139419
C79   C     C_R   0.432696 0.964941 0.431276 -0.139419
C80   C     C_R   0.000000 0.500000 0.448739 0.020130
C81   C     C_R   0.567304 0.035059 0.568724 -0.139419
C82   C     C_R   0.035059 0.567304 0.431276 -0.139420
C83   C     C_R   0.964941 0.432696 0.568724 -0.139419
C84   C     C_R   0.930890 0.534692 0.896013 -0.016820
C85   C     C_R   0.069112 0.465310 0.103986 -0.016821
C86   C     C_R   0.465310 0.069112 0.896013 -0.016821
C87   C     C_R   0.534689 0.930888 0.103986 -0.016821
C88   C     C_R   0.069110 0.465308 0.896013 -0.016820
C89   C     C_R   0.930888 0.534690 0.103986 -0.016821
C90   C     C_R   0.534690 0.930888 0.896013 -0.016821
C91   C     C_R   0.000000 0.500000 0.551261 0.020130
C92   C     C_R   0.465311 0.069112 0.103986 -0.016821
C93   C     C_R   0.569111 0.034690 0.396014 -0.016821
C94   C     C_R   0.430888 0.965310 0.603986 -0.016821
C95   C     C_R   0.965310 0.430888 0.396014 -0.016821
C96   C     C_R   0.034690 0.569111 0.603986 -0.016821
C97   C     C_R   0.430888 0.965310 0.396014 -0.016821
C98   C     C_R   0.569112 0.034689 0.603986 -0.016821
C99   C     C_R   0.034690 0.569111 0.396014 -0.016821
C100  C     C_R   0.965310 0.430888 0.603986 -0.016821
C101  C     C_R   0.000000 0.500000 0.877986 0.062787
C102  C     C_1   1.000000 0.500000 0.984862 -0.012875
C103  C     C_R   0.000000 0.500000 0.122014 0.062788
C104  C     C_R   0.500000 0.000000 0.877986 0.062788
C105  C     C_R   0.500000 0.000000 0.122014 0.062788
C106  C     C_R   0.500000 0.000000 0.377986 0.062788
C107  C     C_R   0.500000 0.000000 0.622014 0.062788
C108  C     C_R   0.000000 0.500000 0.377986 0.062788
C109  C     C_R   0.000000 0.500000 0.622014 0.062788
C110  C     C_2   0.854226 0.569399 0.879667 0.228371
C111  C     C_2   0.145777 0.430605 0.120333 0.228371
C112  C     C_2   0.430606 0.145777 0.879667 0.228369
H1    H     H_    0.880566 0.561512 0.945313 0.102369
H2    H     H_    0.380563 0.938493 0.554687 0.102368
H3    H     H_    0.938492 0.380563 0.445313 0.102368
H4    H     H_    0.061508 0.619437 0.554687 0.102368
H5    H     H_    0.380563 0.938492 0.445313 0.102368
H6    H     H_    0.619437 0.061507 0.554687 0.102368
H7    H     H_    0.061508 0.619437 0.445313 0.102368
H8    H     H_    0.938492 0.380563 0.554687 0.102368
H9    H     H_    0.810504 0.606580 0.894433 0.105997
H10   H     H_    0.189501 0.393427 0.105566 0.105998
H11   H     H_    0.393428 0.189501 0.894434 0.105998
H12   H     H_    0.119437 0.438492 0.054687 0.102368
H13   H     H_    0.606568 0.810496 0.105566 0.105998
H14   H     H_    0.189496 0.393419 0.894433 0.105998
H15   H     H_    0.810499 0.606572 0.105566 0.105998
H16   H     H_    0.606572 0.810499 0.894434 0.105998
H17   H     H_    0.393432 0.189503 0.105566 0.105998
H18   H     H_    0.689501 0.106572 0.394434 0.105998
H19   H     H_    0.310498 0.893428 0.605566 0.105998
H20   H     H_    0.893428 0.310499 0.394434 0.105998
H21   H     H_    0.106572 0.689501 0.605566 0.105998
H22   H     H_    0.310499 0.893428 0.394434 0.105998
H23   H     H_    0.438492 0.119437 0.945313 0.102368
H24   H     H_    0.689502 0.106572 0.605566 0.105998
H25   H     H_    0.106572 0.689501 0.394434 0.105998
H26   H     H_    0.893428 0.310499 0.605566 0.105998
H27   H     H_    0.561505 0.880562 0.054687 0.102368
H28   H     H_    0.119434 0.438488 0.945313 0.102368
H29   H     H_    0.880563 0.561508 0.054687 0.102368
H30   H     H_    0.561508 0.880563 0.945313 0.102368
H31   H     H_    0.438495 0.119438 0.054687 0.102368
H32   H     H_    0.619437 0.061508 0.445313 0.102368
O1    O     O_3   0.500000 0.000000 0.750000 -0.468203
O2    O     O_R   0.430670 0.000000 0.175110 -0.506249
O3    O     O_R   0.000000 0.569330 0.824890 -0.506249
O4    O     O_R   0.000000 0.430670 0.175110 -0.506249
O5    O     O_R   0.930670 0.500000 0.324890 -0.506249
O6    O     O_R   0.069330 0.500000 0.675110 -0.506249
O7    O     O_R   0.500000 0.930670 0.324890 -0.506249
O8    O     O_R   0.500000 0.069330 0.675110 -0.506249
O9    O     O_R   0.069330 0.500000 0.324890 -0.506249
O10   O     O_R   0.930670 0.500000 0.675110 -0.506249
O11   O     O_R   0.500000 0.069330 0.324890 -0.506249
O12   O     O_3   0.500000 0.000000 0.250000 -0.468203
O13   O     O_R   0.500000 0.930670 0.675110 -0.506249
O14   O     O_R   0.666560 0.097440 0.769680 -0.534596
O15   O     O_R   0.333440 0.902560 0.230320 -0.534596
O16   O     O_R   0.902560 0.666560 0.769680 -0.518752
O17   O     O_R   0.097440 0.333440 0.230320 -0.518752
O18   O     O_R   0.333440 0.902560 0.769680 -0.534596
O19   O     O_R   0.666560 0.097440 0.230320 -0.534596
O20   O     O_R   0.097440 0.333440 0.769680 -0.518752
O21   O     O_R   0.902560 0.666560 0.230320 -0.518752
O22   O     O_R   0.666560 0.902560 0.230320 -0.518752
O23   O     O_3   0.000000 0.500000 0.750000 -0.468203
O24   O     O_R   0.333440 0.097440 0.769680 -0.518752
O25   O     O_R   0.902560 0.333440 0.230320 -0.534596
O26   O     O_R   0.097440 0.666560 0.769680 -0.534597
O27   O     O_R   0.333440 0.097440 0.230320 -0.518752
O28   O     O_R   0.666560 0.902560 0.769680 -0.518752
O29   O     O_R   0.097440 0.666560 0.230320 -0.534596
O30   O     O_R   0.902560 0.333440 0.769680 -0.534597
O31   O     O_R   0.166560 0.597440 0.269680 -0.518752
O32   O     O_R   0.833440 0.402560 0.730320 -0.518752
O33   O     O_R   0.402560 0.166560 0.269680 -0.534596
O34   O     O_3   0.000000 0.500000 0.250000 -0.468203
O35   O     O_R   0.597440 0.833440 0.730320 -0.534596
O36   O     O_R   0.833440 0.402560 0.269680 -0.518752
O37   O     O_R   0.166560 0.597440 0.730320 -0.518752
O38   O     O_R   0.597440 0.833440 0.269680 -0.534596
O39   O     O_R   0.402560 0.166560 0.730320 -0.534596
O40   O     O_R   0.166560 0.402560 0.730320 -0.534597
O41   O     O_R   0.833440 0.597440 0.269680 -0.534596
O42   O     O_R   0.402560 0.833440 0.730320 -0.518752
O43   O     O_R   0.597440 0.166560 0.269680 -0.518752
O44   O     O_R   0.833440 0.597440 0.730320 -0.534597
O45   O     O_R   0.430670 0.000000 0.824890 -0.506249
O46   O     O_R   0.166560 0.402560 0.269680 -0.534596
O47   O     O_R   0.597440 0.166560 0.730320 -0.518752
O48   O     O_R   0.402560 0.833440 0.269680 -0.518752
O49   O     O_2   0.837060 0.555246 0.850270 -0.499018
O50   O     O_2   0.162941 0.444758 0.149730 -0.499019
O51   O     O_2   0.444758 0.162941 0.850270 -0.499019
O52   O     O_2   0.555240 0.837058 0.149730 -0.499020
O53   O     O_2   0.162940 0.444754 0.850270 -0.499018
O54   O     O_2   0.837059 0.555242 0.149730 -0.499019
O55   O     O_2   0.555242 0.837059 0.850270 -0.499018
O56   O     O_R   0.569330 0.000000 0.175110 -0.506249
O57   O     O_2   0.444760 0.162941 0.149730 -0.499020
O58   O     O_2   0.662941 0.055242 0.350270 -0.499019
O59   O     O_2   0.337059 0.944758 0.649730 -0.499019
O60   O     O_2   0.944758 0.337059 0.350270 -0.499019
O61   O     O_2   0.055242 0.662941 0.649730 -0.499019
O62   O     O_2   0.337059 0.944758 0.350270 -0.499019
O63   O     O_2   0.662941 0.055242 0.649730 -0.499020
O64   O     O_2   0.055242 0.662941 0.350270 -0.499019
O65   O     O_2   0.944758 0.337059 0.649730 -0.499019
O66   O     O_R   0.000000 0.430670 0.824890 -0.506249
O67   O     O_R   0.000000 0.569330 0.175110 -0.506249
O68   O     O_R   0.569330 0.000000 0.824890 -0.506249
Zn1   Zn    Zn3+2 0.500000 0.098940 0.722030 1.018177
Zn2   Zn    Zn3+2 0.000000 0.401060 0.777970 1.018176
Zn3   Zn    Zn3+2 0.401060 0.000000 0.222030 1.018177
Zn4   Zn    Zn3+2 0.598940 0.000000 0.777970 1.018177
Zn5   Zn    Zn3+2 0.000000 0.401060 0.222030 1.018177
Zn6   Zn    Zn3+2 0.000000 0.598940 0.777970 1.018176
Zn7   Zn    Zn3+2 0.598940 0.000000 0.222030 1.018177
Zn8   Zn    Zn3+2 0.401060 0.000000 0.777970 1.018177
Zn9   Zn    Zn3+2 0.500000 0.901060 0.277970 1.018177
Zn10  Zn    Zn3+2 0.901060 0.500000 0.722030 1.018176
Zn11  Zn    Zn3+2 0.098940 0.500000 0.277970 1.018177
Zn12  Zn    Zn3+2 0.500000 0.901060 0.722030 1.018177
Zn13  Zn    Zn3+2 0.500000 0.098940 0.277970 1.018177
Zn14  Zn    Zn3+2 0.098940 0.500000 0.722030 1.018176
Zn15  Zn    Zn3+2 0.901060 0.500000 0.277970 1.018177
Zn16  Zn    Zn3+2 0.000000 0.598940 0.222030 1.018177

loop_
_geom_bond_atom_site_label_1
_geom_bond_atom_site_label_2
_ccdc_geom_bond_type
C11   C96   S    
O39   Zn1   S    
C30   O13   A    
O25   Zn5   S    
C74   H31   S    
C28   O6    A    
O6    Zn14  S    
C66   H1    S    
O17   Zn5   S    
C30   C107  S    
C68   C86   A    
C82   C99   A    
O34   Zn5   S    
C25   C67   A    
O40   Zn14  S    
C34   O17   A    
C86   C104  A    
C67   H12   S    
C71   C88   A    
C37   C62   S    
C33   C65   S    
C47   C70   A    
O1    Zn12  S    
C99   C108  A    
C1    C71   A    
C12   C97   S    
O32   Zn10  S    
C32   C57   S    
C16   O65   D    
C73   C90   A    
O9    Zn11  S    
O2    Zn3   S    
C16   H26   S    
O12   Zn7   S    
C11   H21   S    
C110  H9    S    
C6    O55   D    
O43   Zn13  S    
C81   C98   A    
C2    C102  T    
O28   Zn4   S    
C74   C92   A    
O41   Zn15  S    
C41   O24   A    
C31   O47   A    
C22   C104  S    
C32   O48   A    
C69   C76   A    
C24   C101  S    
C18   C19   T    
C31   C59   S    
O12   Zn13  S    
O26   Zn6   S    
C9    O59   D    
C42   C56   S    
C18   C58   S    
C48   C51   S    
O16   Zn6   S    
O68   Zn4   S    
C78   C96   A    
C55   C63   T    
O13   Zn12  S    
C76   H2    S    
C26   O67   A    
O44   Zn10  S    
C2    C25   S    
C53   C65   T    
O4    Zn5   S    
O23   Zn6   S    
O34   Zn16  S    
C15   O64   D    
C85   C103  A    
O45   Zn8   S    
C37   O19   A    
C32   O15   A    
O27   Zn3   S    
C38   O20   A    
C45   C53   S    
C100  C109  A    
C27   O5    A    
C12   H22   S    
C14   O63   D    
C89   C103  A    
C111  H10   S    
C28   O10   A    
C84   C101  A    
C27   C108  S    
C82   H7    S    
C110  O49   D    
C70   C87   A    
C41   C49   S    
C43   O26   A    
C58   C75   A    
C14   C98   S    
C40   O38   A    
C73   H30   S    
C9    H19   S    
C72   H29   S    
C23   O2    A    
O18   Zn8   S    
C94   C107  A    
C67   C85   A    
C35   O18   A    
C49   C61   T    
C20   C80   S    
O8    Zn1   S    
C3    C87   S    
C10   O60   D    
C34   O46   A    
O15   Zn3   S    
C13   C36   S    
C80   C82   A    
C36   C73   A    
C42   O36   A    
C24   O66   A    
C16   C100  S    
O23   Zn14  S    
O20   Zn2   S    
O66   Zn2   S    
O33   Zn13  S    
C23   O56   A    
C77   C95   A    
O21   Zn16  S    
C84   C110  S    
C98   C107  A    
O7    Zn9   S    
C22   O68   A    
O12   Zn9   S    
O30   Zn2   S    
C12   O62   D    
C83   H8    S    
C39   O21   A    
C38   O40   A    
C86   C112  S    
C112  O51   D    
C42   O25   A    
C95   C108  A    
C26   C103  S    
C29   O7    A    
O1    Zn4   S    
C30   O8    A    
C27   O9    A    
C87   C105  A    
O37   Zn14  S    
C5    H15   S    
O12   Zn3   S    
C34   C64   S    
C1    C66   A    
C88   C101  A    
C46   O29   A    
C25   C72   A    
O24   Zn8   S    
C22   O45   A    
C26   O4    A    
O10   Zn10  S    
C90   C104  A    
O34   Zn15  S    
C71   H28   S    
C58   C79   A    
C112  H11   S    
C48   O30   A    
O1    Zn1   S    
C97   C106  A    
C43   C55   S    
C4    O53   D    
O67   Zn16  S    
C93   C106  A    
C8    H18   S    
O5    Zn15  S    
C56   C62   T    
O34   Zn11  S    
C19   C69   S    
C81   H6    S    
C51   C59   T    
C52   C57   T    
C45   O28   A    
C75   C93   A    
C21   C91   S    
C77   C80   A    
O42   Zn12  S    
O11   Zn13  S    
O38   Zn9   S    
C33   O16   A    
O22   Zn7   S    
C46   O31   A    
C40   O22   A    
C79   C97   A    
C68   H23   S    
C78   H4    S    
C8    C93   S    
C17   C47   S    
C47   C74   A    
C15   C99   S    
C85   C111  S    
C24   O3    A    
C44   O33   A    
O48   Zn9   S    
C36   C68   A    
C5    O54   D    
C4    C88   S    
C76   C94   A    
C28   C109  S    
C83   C91   A    
C96   C109  A    
O35   Zn12  S    
O36   Zn15  S    
C3    O52   D    
C4    H14   S    
C3    H13   S    
C83   C100  A    
C50   C60   T    
C38   C61   S    
C8    O58   D    
C44   O27   A    
C6    H16   S    
C7    O57   D    
O3    Zn6   S    
C6    C90   S    
O46   Zn11  S    
O47   Zn1   S    
C46   C52   S    
C72   C89   A    
O29   Zn16  S    
C37   O43   A    
O1    Zn8   S    
C14   H24   S    
C10   C95   S    
C39   C60   S    
C35   O42   A    
C40   C50   S    
C7    C92   S    
C79   H5    S    
C43   O37   A    
C33   O44   A    
O23   Zn10  S    
C9    C94   S    
C29   C106  S    
C10   H20   S    
C7    H17   S    
C31   O14   A    
C69   C81   A    
C75   H32   S    
C45   O35   A    
C111  O50   D    
C66   C84   A    
C13   C17   T    
C39   O41   A    
C44   C54   S    
C92   C105  A    
C70   H27   S    
C20   C21   T    
C54   C64   T    
C29   O11   A    
O56   Zn7   S    
O31   Zn11  S    
C78   C91   A    
C41   O39   A    
C35   C63   S    
C11   O61   D    
O23   Zn2   S    
C15   H25   S    
C77   H3    S    
O14   Zn4   S    
C1    C102  S    
C5    C89   S    
O19   Zn7   S    
C48   O32   A    
C23   C105  S    
