data_mof_unit_10617.cif
_audit_creation_date              2012-12-11T16:26:32-0500
_audit_creation_method            fapswitch 2.2
_symmetry_space_group_name_H-M    P1
_symmetry_Int_Tables_number       1
_space_group_crystal_system       triclinic
_cell_length_a                    6.932586
_cell_length_b                    17.602386
_cell_length_c                    19.44476
_cell_angle_alpha                 108.606322
_cell_angle_beta                  89.392002
_cell_angle_gamma                 90.845799
_cell_volume                      2248.53550268

loop_
_atom_site_label
_atom_site_type_symbol
_atom_type_description
_atom_site_fract_x
_atom_site_fract_y
_atom_site_fract_z
_atom_type_partial_charge
O1    O     O_R   0.494330 0.415720 0.413720 -0.538650
O2    O     O_R   0.819330 0.430070 0.560210 -0.537675
O3    O     O_R   0.994320 0.584280 0.586280 -0.537599
C1    C     C_R   0.649948 0.415971 0.582777 0.733657
O4    O     O_R   0.823730 0.406300 0.412670 -0.541794
O5    O     O_R   0.998760 0.560340 0.437690 -0.542474
C2    C     C_R   0.654850 0.383441 0.385037 0.686100
O6    O     O_R   0.489890 0.439660 0.562310 -0.529272
O7    O     O_3   0.662340 0.550560 0.508380 -0.373359
V1    V     V_3+5 0.935370 0.490620 0.498450 1.448642
O8    O     O_R   0.328750 0.569930 0.439790 -0.551158
C3    C     C_R   0.161045 0.584973 0.418006 0.695555
O9    O     O_R   0.324340 0.593700 0.587330 -0.532668
C4    C     C_R   0.154809 0.616422 0.615204 0.708421
V2    V     V_3+5 0.435940 0.509380 0.501550 1.447722
O10   O     O_3   0.159100 0.449440 0.491620 -0.362771
H1    H     H_    0.451668 0.857903 0.582271 0.113492
C5    C     C_R   0.952347 0.601916 0.742763 -0.126015
C6    C     C_R   0.864663 0.591481 0.803900 -0.064709
C7    C     C_R   0.864954 0.653660 0.869185 -0.135314
C8    C     C_R   0.950595 0.727035 0.873493 -0.134412
C9    C     C_R   0.036561 0.740255 0.811722 0.078916
C10   C     C_R   0.042059 0.675708 0.745226 0.032404
C11   C     C_R   0.119887 0.815664 0.815895 -0.184180
C12   C     C_R   0.210609 0.826323 0.753699 0.072818
C13   C     C_R   0.222510 0.760961 0.687868 0.079212
C14   C     C_R   0.141085 0.685157 0.683805 -0.198320
C15   C     C_R   0.285838 0.902118 0.755021 -0.146249
C16   C     C_R   0.373690 0.912790 0.693985 -0.127649
C17   C     C_R   0.385582 0.849069 0.629889 -0.120238
C18   C     C_R   0.309583 0.774235 0.626343 -0.135866
H2    H     H_    0.951214 0.550581 0.694326 0.164873
H3    H     H_    0.798626 0.534344 0.800773 0.144343
H4    H     H_    0.799380 0.644919 0.916925 0.116210
H5    H     H_    0.950195 0.772579 0.926162 0.110571
H6    H     H_    0.275479 0.954486 0.802623 0.113139
H7    H     H_    0.430680 0.971144 0.696237 0.118585
H8    H     H_    0.317131 0.727744 0.574328 0.107205
C19   C     C_R   0.990786 0.629378 0.324210 -0.210967
C20   C     C_R   0.153439 0.634019 0.368345 -0.081973
C21   C     C_R   0.307984 0.685400 0.364457 -0.233749
C22   C     C_R   0.299794 0.732331 0.318018 0.091944
C23   C     C_R   0.136807 0.726717 0.273636 0.051007
C24   C     C_R   0.982263 0.674731 0.276531 0.087148
C25   C     C_R   0.451516 0.785025 0.315265 -0.184319
C26   C     C_R   0.443209 0.830967 0.268375 -0.189001
C27   C     C_R   0.282850 0.825178 0.223392 0.087536
C28   C     C_R   0.128309 0.773190 0.226285 0.051154
C29   C     C_R   0.965324 0.767575 0.181902 0.091918
C30   C     C_R   0.813605 0.714879 0.184653 -0.183344
C31   C     C_R   0.821908 0.668939 0.231546 -0.188509
C32   C     C_R   0.274320 0.870538 0.175718 -0.210423
C33   C     C_R   0.111667 0.865898 0.131585 -0.084572
C34   C     C_R   0.957131 0.814509 0.135466 -0.233049
H9    H     H_    0.871483 0.589581 0.326226 0.122679
H10   H     H_    0.433579 0.689738 0.398315 0.125390
H11   H     H_    0.577439 0.790387 0.349112 0.133356
H12   H     H_    0.562992 0.870743 0.267006 0.128789
H13   H     H_    0.393618 0.910337 0.173707 0.123364
H14   H     H_    0.831536 0.810169 0.101607 0.126408
H15   H     H_    0.687685 0.709515 0.150805 0.133947
H16   H     H_    0.702125 0.629164 0.232915 0.128928
C35   C     C_R   0.472032 0.187097 0.870528 -0.232023
C36   C     C_R   0.624805 0.135355 0.870172 -0.086273
C37   C     C_R   0.781653 0.130691 0.822510 -0.219084
C38   C     C_R   0.784021 0.176043 0.774609 0.087788
C39   C     C_R   0.629687 0.227925 0.775470 0.063546
C40   C     C_R   0.474524 0.233828 0.824250 0.095777
C41   C     C_R   0.937606 0.170382 0.725749 -0.189325
C42   C     C_R   0.938130 0.215419 0.678055 -0.170468
C43   C     C_R   0.786059 0.267568 0.678819 0.092860
C44   C     C_R   0.631158 0.274370 0.727947 0.034471
C45   C     C_R   0.480263 0.328731 0.730939 0.016693
C46   C     C_R   0.328060 0.334241 0.781123 -0.164713
C47   C     C_R   0.324412 0.286725 0.826388 -0.195317
C48   C     C_R   0.787429 0.313099 0.631417 -0.188146
C49   C     C_R   0.640119 0.368021 0.633706 -0.155590
C50   C     C_R   0.488939 0.377769 0.685475 -0.047762
H17   H     H_    0.351408 0.191729 0.907564 0.128897
H18   H     H_    0.899608 0.090604 0.821624 0.124447
H19   H     H_    0.057489 0.131096 0.724402 0.130947
H20   H     H_    0.058699 0.209988 0.640928 0.131660
H21   H     H_    0.905016 0.306109 0.592744 0.144513
H22   H     H_    0.209488 0.374805 0.785850 0.161570
H23   H     H_    0.204241 0.291937 0.863671 0.131817
H24   H     H_    0.831314 0.133013 0.427527 0.112728
C51   C     C_R   0.542025 0.406664 0.250314 -0.144149
C52   C     C_R   0.486715 0.419948 0.186469 -0.122074
C53   C     C_R   0.475164 0.356350 0.122110 -0.117109
C54   C     C_R   0.518843 0.278974 0.121085 -0.134727
C55   C     C_R   0.573871 0.263421 0.185176 0.069192
C56   C     C_R   0.585714 0.328629 0.251201 0.069439
C57   C     C_R   0.620502 0.184795 0.183965 -0.184303
C58   C     C_R   0.678877 0.171441 0.248872 0.069107
C59   C     C_R   0.690719 0.236648 0.314896 0.070036
C60   C     C_R   0.644119 0.315276 0.316105 -0.181822
C61   C     C_R   0.722557 0.093405 0.249759 -0.143496
C62   C     C_R   0.777856 0.080120 0.313605 -0.121590
C63   C     C_R   0.789406 0.143719 0.377964 -0.118573
C64   C     C_R   0.745734 0.221095 0.378989 -0.135171
H25   H     H_    0.551466 0.458408 0.298642 0.103035
H26   H     H_    0.453790 0.480043 0.186898 0.114952
H27   H     H_    0.433247 0.367054 0.072547 0.115210
H28   H     H_    0.510248 0.231823 0.069395 0.100753
H29   H     H_    0.713113 0.041661 0.201432 0.103757
H30   H     H_    0.810774 0.020025 0.313177 0.114442
H31   H     H_    0.754316 0.268246 0.430681 0.097352
O11   O     O_R   0.775200 0.060470 0.937800 -0.538841
O12   O     O_R   0.441110 0.093720 0.087350 -0.538835
O13   O     O_R   0.266330 0.939630 0.062280 -0.539268
C65   C     C_R   0.609930 0.116634 0.115025 0.697360
O14   O     O_R   0.445750 0.069950 0.939820 -0.549290
O15   O     O_R   0.271000 0.915700 0.913700 -0.536006
C66   C     C_R   0.615465 0.085151 0.918416 0.706261
O16   O     O_R   0.770530 0.084400 0.086380 -0.535475
O17   O     O_3   0.602830 0.949510 0.991680 -0.368551
V3    V     V_3+5 0.329710 0.009370 0.001550 1.412920
O18   O     O_R   0.940990 0.906170 0.912570 -0.539904
C67   C     C_R   0.109901 0.883684 0.884796 0.693288
O19   O     O_R   0.936350 0.929940 0.060100 -0.548329
C68   C     C_R   0.104051 0.914952 0.081929 0.706132
V4    V     V_3+5 0.829160 0.990450 0.998310 1.413729
O20   O     O_3   0.105910 0.050480 0.008320 -0.367898
C69   C     C_2   0.357788 0.446301 0.698583 0.730769
O21   O     O_2   0.185218 0.435065 0.686764 -0.582915
O22   O     O_R   0.435285 0.523900 0.723683 -0.671253
H32   H     H_    0.334106 0.566666 0.732677 0.287674

loop_
_geom_bond_atom_site_label_1
_geom_bond_atom_site_label_2
_ccdc_geom_bond_type
C51   C52   A    
C57   C58   A    
C21   C22   A    
C59   C60   A    
C1    O6    A    
O14   C66   A    
C61   C62   A    
O12   V3    S    
C35   H17   S    
C33   C34   A    
O19   C68   A    
C40   C47   A    
C2    C60   S    
C25   H11   S    
C13   C14   A    
O22   H32   S    
O17   V4    S    
C15   C16   A    
C39   C44   A    
O12   C65   A    
O13   C68   A    
O18   V4    S    
C17   C18   A    
C38   C41   A    
C29   C34   A    
C62   C63   A    
C56   C60   A    
O17   V3    S    
C48   H21   S    
C5    C6    A    
C45   C46   A    
O11   C66   A    
O18   C67   A    
O15   C67   A    
O8    V2    S    
C47   H23   S    
C19   H9    S    
C63   C64   A    
C11   C67   S    
C45   C50   A    
C42   C43   A    
O1    V2    S    
C10   C14   A    
C4    C14   S    
C50   C69   S    
C23   C28   A    
C61   H29   S    
C52   C53   A    
C38   C39   A    
C13   C18   A    
C37   H18   S    
C51   H25   S    
C8    C9    A    
C53   H27   S    
H1    C17   S    
C41   C42   A    
C31   H16   S    
O13   V3    S    
O19   V4    S    
C36   C66   S    
C46   C47   A    
C39   C40   A    
C11   C12   A    
C6    H3    S    
C46   H22   S    
C19   C20   A    
O4    C2    A    
C59   C64   A    
C34   H14   S    
C58   C61   A    
C12   C13   A    
C49   C50   A    
C5    C10   A    
C12   C15   A    
C22   C25   A    
C3    C20   S    
O2    C1    A    
C23   C24   A    
C21   H10   S    
C16   C17   A    
C32   H13   S    
C55   C57   A    
C65   O16   A    
C27   C28   A    
C30   C31   A    
C48   C49   A    
H24   C63   S    
C54   H28   S    
C27   C32   A    
O3    C4    A    
C57   C65   S    
O15   V3    S    
C24   C31   A    
C28   C29   A    
C37   C38   A    
O6    V2    S    
O9    V2    S    
C9    C11   A    
C5    H2    S    
C22   C23   A    
O2    V1    S    
C43   C48   A    
C55   C56   A    
C51   C56   A    
C32   C33   A    
C69   O22   S    
O7    V1    S    
C26   C27   A    
C20   C21   A    
C64   H31   S    
O1    C2    A    
O11   V4    S    
C44   C45   A    
O5    V1    S    
C52   H26   S    
O8    C3    A    
V4    O20   S    
C19   C24   A    
C8    H5    S    
C35   C40   A    
C62   H30   S    
C18   H8    S    
C36   C37   A    
C6    C7    A    
V3    O20   S    
C7    H4    S    
C1    C49   S    
O3    V1    S    
C33   C68   S    
O5    C3    A    
C54   C55   A    
O14   V3    S    
O7    V2    S    
C58   C59   A    
C42   H20   S    
C41   H19   S    
C35   C36   A    
C25   C26   A    
O4    V1    S    
C43   C44   A    
C7    C8    A    
C15   H6    S    
C29   C30   A    
C16   H7    S    
O16   V4    S    
C30   H15   S    
C9    C10   A    
V1    O10   S    
C53   C54   A    
O9    C4    A    
C26   H12   S    
V2    O10   S    
C69   O21   D    
