data_mof_unit_9940.cif
_audit_creation_date              2012-12-11T14:46:25-0500
_audit_creation_method            fapswitch 2.2
_symmetry_space_group_name_H-M    P1
_symmetry_Int_Tables_number       1
_space_group_crystal_system       triclinic
_cell_length_a                    17.44451
_cell_length_b                    17.68549
_cell_length_c                    6.933923
_cell_angle_alpha                 90.022532
_cell_angle_beta                  90.876727
_cell_angle_gamma                 89.938147
_cell_volume                      2138.96538778

loop_
_atom_site_label
_atom_site_type_symbol
_atom_type_description
_atom_site_fract_x
_atom_site_fract_y
_atom_site_fract_z
_atom_type_partial_charge
O1    O     O_R   0.796490 0.328940 0.373020 -0.547453
O2    O     O_R   0.203510 0.671060 0.626980 -0.520530
O3    O     O_R   0.203510 0.828940 0.626980 -0.547135
O4    O     O_R   0.796490 0.171060 0.373020 -0.544582
O5    O     O_R   0.805560 0.173330 0.702970 -0.525395
O6    O     O_R   0.194440 0.826670 0.297030 -0.533106
O7    O     O_R   0.194440 0.673330 0.297030 -0.524009
O8    O     O_R   0.805560 0.326670 0.702970 -0.532789
O9    O     O_R   0.658440 0.172360 0.870170 -0.539547
O10   O     O_R   0.341560 0.827640 0.129830 -0.540445
O11   O     O_R   0.341560 0.672360 0.129830 -0.540442
O12   O     O_R   0.658440 0.327640 0.870170 -0.538891
C1    C     C_R   0.824013 0.146088 0.536090 0.680728
C2    C     C_R   0.176151 0.853536 0.463901 0.672596
C3    C     C_R   0.176533 0.645670 0.464074 0.692673
C4    C     C_R   0.824035 0.353400 0.536071 0.682394
O13   O     O_3   0.679200 0.250000 0.537050 -0.371878
O14   O     O_3   0.320800 0.750000 0.462950 -0.377760
V1    V     V_3+5 0.736420 0.250000 0.813120 1.481242
V2    V     V_3+5 0.263580 0.750000 0.186880 1.501239
O15   O     O_R   0.649370 0.327980 0.199650 -0.537241
O16   O     O_R   0.350630 0.672020 0.800350 -0.536422
O17   O     O_R   0.350630 0.827980 0.800350 -0.540482
O18   O     O_R   0.649370 0.172020 0.199650 -0.535376
C5    C     C_R   0.630566 0.354432 0.029650 0.731856
C6    C     C_R   0.369426 0.645563 0.970346 0.736135
C7    C     C_R   0.369439 0.854443 0.970404 0.718533
C8    C     C_R   0.630558 0.145561 0.029600 0.732226
V3    V     V_3+5 0.718510 0.250000 0.312740 1.455674
V4    V     V_3+5 0.281490 0.750000 0.687260 1.475564
O19   O     O_3   0.775740 0.250000 0.038930 -0.370357
O20   O     O_3   0.224260 0.750000 0.961070 -0.352006
C9    C     C_1   0.574133 0.083141 0.016914 -0.180510
C10   C     C_1   0.425849 0.916878 0.983104 -0.172069
C11   C     C_1   0.425844 0.583141 0.982969 -0.182195
C12   C     C_1   0.574150 0.416857 0.017020 -0.175195
C13   C     C_1   0.527481 0.030908 0.006294 0.022618
C14   C     C_1   0.472491 0.969119 0.993737 0.025398
C15   C     C_1   0.472505 0.530893 0.993655 0.022965
C16   C     C_1   0.527492 0.469107 0.006327 0.023487
C17   C     C_R   0.880964 0.082796 0.536951 -0.233117
C18   C     C_R   0.119930 0.916689 0.466351 -0.235215
C19   C     C_R   0.120306 0.581795 0.464682 -0.204378
C20   C     C_R   0.880218 0.416618 0.534790 -0.232894
C21   C     C_R   0.077169 0.039851 0.345530 0.213231
C22   C     C_R   0.933700 0.970058 0.696577 0.229814
C23   C     C_R   0.928115 0.533411 0.681499 0.180512
C24   C     C_R   0.064020 0.473594 0.294716 0.206587
C25   C     C_R   0.134554 0.983193 0.360708 -0.067382
C26   C     C_R   0.875992 0.026063 0.680484 -0.021136
C27   C     C_R   0.869823 0.478316 0.660382 -0.045056
C28   C     C_R   0.124823 0.525700 0.320072 -0.049428
C29   C     C_R   0.050300 0.908763 0.565230 -0.024032
C30   C     C_R   0.943109 0.081869 0.407286 -0.050745
C31   C     C_R   0.946640 0.412241 0.421550 -0.022484
C32   C     C_R   0.058481 0.581139 0.594957 -0.035779
C33   C     C_R   0.995839 0.968837 0.566032 0.049599
C34   C     C_R   0.004969 0.029963 0.435897 0.038348
C35   C     C_R   0.002384 0.471328 0.427442 0.055069
C36   C     C_R   0.996441 0.528978 0.570171 0.007342
N1    N     N_3   0.095267 0.111705 0.260852 -0.610157
H1    H     H_    0.104502 0.104595 0.113456 0.298937
H2    H     H_    0.144601 0.133620 0.327574 0.258997
N2    N     N_3   0.932562 0.917296 0.854154 -0.628908
H3    H     H_    0.938595 0.946678 0.984306 0.286944
H4    H     H_    0.880882 0.887406 0.850904 0.273380
N3    N     N_3   0.915167 0.597105 0.805306 -0.665349
H5    H     H_    0.913425 0.578814 0.948464 0.281935
H6    H     H_    0.863790 0.623837 0.765848 0.267284
N4    N     N_3   0.061791 0.425985 0.126736 -0.635202
H7    H     H_    0.060430 0.459668 0.002842 0.281057
H8    H     H_    0.109839 0.390617 0.127160 0.287603
C37   C     C_2   0.939650 0.131045 0.233787 0.548313
H9    H     H_    0.923761 0.189811 0.245753 0.043205
O21   O     O_2   0.952400 0.105131 0.074218 -0.527424
C38   C     C_2   0.031279 0.833431 0.644276 0.417354
H10   H     H_    0.070943 0.805136 0.741872 0.044020
O22   O     O_2   0.971598 0.802077 0.596451 -0.527835
C39   C     C_2   0.061752 0.632963 0.762210 0.453821
H11   H     H_    0.027031 0.683440 0.763114 0.091743
O23   O     O_2   0.102073 0.618052 0.902301 -0.506837
C40   C     C_2   0.961409 0.340526 0.318024 0.423532
H12   H     H_    0.922557 0.321841 0.204263 0.061552
O24   O     O_2   0.017156 0.301905 0.361126 -0.523239
C41   C     C_2   0.806321 0.022041 0.802821 0.423990
H13   H     H_    0.750766 0.037078 0.741404 0.024449
O25   O     O_2   0.810065 0.004590 0.972991 -0.533350
C42   C     C_2   0.211431 0.993362 0.272307 0.386454
H14   H     H_    0.261554 0.966765 0.337615 0.041311
O26   O     O_2   0.219667 0.029021 0.123463 -0.537493
C43   C     C_2   0.196966 0.518835 0.206782 0.476891
H15   H     H_    0.250924 0.537648 0.270213 0.012901
O27   O     O_2   0.197655 0.493809 0.042800 -0.524579
C44   C     C_2   0.795783 0.485608 0.764530 0.388560
H16   H     H_    0.742926 0.466513 0.695814 0.039378
O28   O     O_2   0.793055 0.509888 0.929058 -0.541608

loop_
_geom_bond_atom_site_label_1
_geom_bond_atom_site_label_2
_ccdc_geom_bond_type
O10   C7    A    
C31   C35   A    
O13   V3    S    
C37   H9    S    
V1    O19   S    
C1    C17   S    
C41   H13   S    
C32   C39   S    
C38   O22   D    
C18   C29   A    
C30   C34   A    
C19   C28   A    
O6    C2    A    
O4    C1    A    
N1    H2    S    
O18   V3    S    
C26   C41   S    
C23   C36   A    
O9    V1    S    
O10   V2    S    
N4    H7    S    
O14   V4    S    
O17   C7    A    
C4    C20   S    
O5    C1    A    
O4    V3    S    
C2    C18   S    
O7    C3    A    
C35   C36   A    
O8    C4    A    
C37   O21   D    
C25   C42   S    
C44   H16   S    
C23   N3    S    
C41   O25   D    
C7    C10   S    
C21   C34   A    
O11   V2    S    
O8    V1    S    
N3    H5    S    
O17   V4    S    
C12   C16   T    
C38   H10   S    
C43   H15   S    
C39   O23   D    
C29   C33   A    
C23   C27   A    
C18   C25   A    
O11   C6    A    
O15   V3    S    
C9    C13   T    
C32   C36   A    
C22   N2    S    
N3    H6    S    
N2    H4    S    
O3    V4    S    
C11   C15   T    
C13   C14   S    
C43   O27   D    
C30   C37   S    
C19   C32   A    
C21   C25   A    
O1    V3    S    
O1    C4    A    
C31   C40   S    
C44   O28   D    
O2    C3    A    
O3    C2    A    
C20   C27   A    
C42   O26   D    
C8    C9    S    
O7    V2    S    
C40   O24   D    
C22   C33   A    
C29   C38   S    
C17   C26   A    
C15   C16   S    
C24   C35   A    
V2    O20   S    
O15   C5    A    
O16   V4    S    
C5    C12   S    
C10   C14   T    
O18   C8    A    
C24   N4    S    
O5    V1    S    
O6    V2    S    
C22   C26   A    
O12   C5    A    
O2    V4    S    
N2    H3    S    
C3    C19   S    
V3    O19   S    
V4    O20   S    
C20   C31   A    
C33   C34   A    
O12   V1    S    
C21   N1    S    
O13   V1    S    
O14   V2    S    
N1    H1    S    
C17   C30   A    
C27   C44   S    
C39   H11   S    
C6    C11   S    
C24   C28   A    
C42   H14   S    
C40   H12   S    
O16   C6    A    
C28   C43   S    
N4    H8    S    
O9    C8    A    
