data_mof_unit_56650.cif
_audit_creation_date              2012-12-10T19:48:01-0500
_audit_creation_method            fapswitch 2.2
_symmetry_space_group_name_H-M    P1
_symmetry_Int_Tables_number       1
_space_group_crystal_system       triclinic
_cell_length_a                    14.95593
_cell_length_b                    14.134672
_cell_length_c                    10.659381
_cell_angle_alpha                 90.047397
_cell_angle_beta                  90.006795
_cell_angle_gamma                 89.915945
_cell_volume                      2253.35971274

loop_
_atom_site_label
_atom_site_type_symbol
_atom_type_description
_atom_site_fract_x
_atom_site_fract_y
_atom_site_fract_z
_atom_type_partial_charge
C1    C     C_R   0.327271 0.499859 0.496834 0.992025
C2    C     C_R   0.542496 0.795553 0.593474 -0.093444
C3    C     C_R   0.457419 0.205044 0.593599 -0.113447
C4    C     C_R   0.457554 0.795619 0.406564 -0.090188
C5    C     C_R   0.499357 0.053480 0.500477 -0.009939
C6    C     C_R   0.499259 0.946850 0.500681 -0.015029
C7    C     C_R   0.499789 0.500008 0.260682 0.872766
C8    C     C_R   0.499785 0.500068 0.739417 0.858999
C9    C     C_R   0.661962 0.534509 0.130574 -0.077987
C10   C     C_R   0.335464 0.478473 0.870036 -0.104019
C11   C     C_R   0.663391 0.526140 0.870085 -0.106203
C12   C     C_R   0.672665 0.499939 0.495893 0.993896
C13   C     C_R   0.336631 0.470092 0.130520 -0.090542
C14   C     C_R   0.741693 0.547869 0.065554 -0.131706
C15   C     C_R   0.255759 0.464492 0.935260 -0.101030
C16   C     C_R   0.742582 0.542676 0.935430 -0.102932
C17   C     C_R   0.256481 0.459469 0.065444 -0.140542
C18   C     C_R   0.581349 0.514354 0.934764 0.052722
C19   C     C_R   0.418100 0.485502 0.065654 0.067634
C20   C     C_R   0.580954 0.516631 0.065679 0.066369
C21   C     C_R   0.417761 0.487884 0.934738 0.050815
C22   C     C_R   0.499668 0.500408 0.871727 -0.165107
C23   C     C_R   0.048722 0.489231 0.433587 -0.161514
C24   C     C_R   0.499673 0.500255 0.128563 -0.163691
C25   C     C_R   0.098186 0.564044 0.381923 0.470162
C26   C     C_R   0.899052 0.429657 0.377057 0.466238
C27   C     C_R   0.914613 0.565906 0.517655 0.490836
C28   C     C_R   0.090102 0.415389 0.499824 0.426699
C29   C     C_R   0.189868 0.567244 0.401643 0.243051
C30   C     C_R   0.807274 0.430553 0.396618 0.246369
C31   C     C_R   0.822323 0.569604 0.532772 0.220827
C32   C     C_R   0.180896 0.422414 0.527668 0.216142
C33   C     C_R   0.231247 0.497860 0.477423 -0.378119
C34   C     C_R   0.952317 0.496563 0.439115 -0.137987
C35   C     C_R   0.768633 0.499683 0.476036 -0.390427
C36   C     C_3   0.034755 0.623442 0.203486 -0.238875
C37   C     C_3   0.956975 0.383696 0.188044 -0.281971
C38   C     C_3   0.992090 0.599877 0.695986 -0.224420
C39   C     C_3   0.054209 0.257440 0.496606 -0.096664
C40   C     C_3   0.673375 0.087629 0.287339 -0.220256
C41   C     C_3   0.679325 0.946461 0.662970 -0.241830
C42   C     C_3   0.323843 0.089902 0.709976 -0.239253
C43   C     C_3   0.320309 0.949370 0.339750 -0.244435
C44   C     C_R   0.544761 0.103840 0.405669 0.408041
C45   C     C_R   0.544404 0.895466 0.594953 0.425364
C46   C     C_R   0.453838 0.104701 0.594668 0.412641
C47   C     C_R   0.454751 0.895433 0.405857 0.424684
C48   C     C_R   0.541688 0.204201 0.406155 -0.115618
Cl1   Cl    Cl    0.249677 0.659706 0.327951 -0.609042
Cl2   Cl    Cl    0.743238 0.345532 0.314319 -0.636938
Cl3   Cl    Cl    0.777405 0.661297 0.627050 -0.633673
Cl4   Cl    Cl    0.227114 0.341574 0.636985 -0.688405
H1    H     H_    0.194815 0.447907 0.116287 0.117454
H2    H     H_    0.575822 0.756309 0.667024 0.197761
H3    H     H_    0.426063 0.245607 0.667481 0.189756
H4    H     H_    0.425121 0.756525 0.332230 0.212371
H5    H     H_    0.971215 0.583440 0.197430 0.121972
H6    H     H_    0.089421 0.586083 0.152417 0.142032
H7    H     H_    0.023829 0.691919 0.155095 0.203824
H8    H     H_    0.020930 0.423217 0.186172 0.126508
H9    H     H_    0.902089 0.425479 0.144268 0.161919
H10   H     H_    0.966492 0.319455 0.129729 0.205036
H11   H     H_    0.031907 0.533593 0.690969 0.152476
H12   H     H_    0.804661 0.551840 0.884996 0.148473
H13   H     H_    0.932396 0.588887 0.756168 0.163837
H14   H     H_    0.034393 0.654142 0.742019 0.190092
H15   H     H_    0.990290 0.217807 0.492709 0.186967
H16   H     H_    0.101348 0.214863 0.553771 0.179739
H17   H     H_    0.079876 0.262765 0.398520 0.146461
H18   H     H_    0.709718 0.106090 0.375319 0.159101
H19   H     H_    0.670869 0.149126 0.222705 0.205918
H20   H     H_    0.712434 0.031277 0.239813 0.194656
H21   H     H_    0.691586 0.983560 0.572479 0.150913
H22   H     H_    0.709541 0.874506 0.661036 0.204116
H23   H     H_    0.193355 0.457449 0.884657 0.165178
H24   H     H_    0.713544 0.987325 0.737706 0.200202
H25   H     H_    0.288429 0.106955 0.620760 0.151679
H26   H     H_    0.325447 0.152513 0.772925 0.197407
H27   H     H_    0.284356 0.034383 0.758150 0.196099
H28   H     H_    0.310029 0.989476 0.428561 0.144571
H29   H     H_    0.288694 0.878309 0.346231 0.206952
H30   H     H_    0.285892 0.988808 0.263831 0.198085
H31   H     H_    0.802876 0.561970 0.116399 0.120815
H32   H     H_    0.664542 0.538492 0.231700 0.140786
H33   H     H_    0.331948 0.482607 0.768966 0.157665
H34   H     H_    0.667092 0.522657 0.768941 0.152316
H35   H     H_    0.333963 0.466554 0.231670 0.134071
H36   H     H_    0.572281 0.244019 0.331257 0.202195
N1    N     N_R   0.500000 0.252470 0.500000 -0.132971
N2    N     N_R   0.500000 0.747530 0.500000 -0.144315
O1    O     O_R   0.369060 0.579480 0.500010 -0.571281
O2    O     O_3   0.936806 0.355033 0.311320 -0.563568
O3    O     O_3   0.968218 0.632872 0.575594 -0.522786
O4    O     O_3   0.037980 0.345772 0.555030 -0.580308
O5    O     O_3   0.586436 0.053033 0.310462 -0.573685
O6    O     O_3   0.587356 0.942545 0.691199 -0.562641
O7    O     O_3   0.411100 0.054830 0.689559 -0.570075
O8    O     O_3   0.411797 0.942268 0.309410 -0.558441
O9    O     O_R   0.630940 0.420520 0.499990 -0.571979
O10   O     O_R   0.630940 0.579480 0.499990 -0.579843
O11   O     O_R   0.369060 0.420520 0.500010 -0.583552
O12   O     O_R   0.499990 0.579480 0.316780 -0.614952
O13   O     O_R   0.500010 0.420520 0.683220 -0.616066
O14   O     O_R   0.500010 0.579480 0.683220 -0.616077
O15   O     O_R   0.499990 0.420520 0.316780 -0.613897
O16   O     O_3   0.056055 0.642116 0.329836 -0.514031
Zn1   Zn    Zn3+2 0.500000 0.606140 0.500000 1.003579
Zn2   Zn    Zn3+2 0.500000 0.393860 0.500000 0.996441

loop_
_geom_bond_atom_site_label_1
_geom_bond_atom_site_label_2
_ccdc_geom_bond_type
C15   H23   S    
C10   H33   S    
C40   H19   S    
C1    O11   A    
C39   H16   S    
C43   O8    S    
C36   H7    S    
C37   H10   S    
C1    C33   S    
C11   C18   A    
C29   Cl1   S    
O9    Zn2   S    
C47   O8    S    
C40   H18   S    
C30   C35   A    
C6    C45   A    
N2    Zn1   S    
C36   H6    S    
C10   C15   A    
C5    C6    S    
C41   O6    S    
C11   H34   S    
C26   O2    S    
C7    C24   S    
C29   C33   A    
C38   O3    S    
C28   O4    S    
C2    N2    A    
C20   C24   A    
C32   Cl4   S    
C12   O9    A    
C41   H22   S    
C3    H3    S    
C26   C34   A    
C38   H14   S    
C7    O12   A    
C8    C22   S    
C7    O15   A    
O13   Zn2   S    
C18   C20   A    
O11   Zn2   S    
C30   Cl2   S    
C42   H27   S    
C27   C34   A    
C21   C22   A    
C4    H4    S    
C14   H31   S    
C25   O16   S    
C4    N2    A    
C10   C21   A    
C25   C29   A    
O15   Zn2   S    
C6    C47   A    
C13   C19   A    
C36   O16   S    
O1    Zn1   S    
C28   C32   A    
C36   H5    S    
C2    H2    S    
C42   O7    S    
C43   H28   S    
C27   C31   A    
C9    C14   A    
C39   O4    S    
C11   C16   A    
C9    C20   A    
C38   H13   S    
C23   C34   S    
C13   H35   S    
C48   H36   S    
C39   H17   S    
O12   Zn1   S    
C23   C28   A    
C12   C35   S    
C8    O14   A    
C46   O7    S    
C26   C30   A    
C48   N1    A    
C43   H29   S    
C14   C16   A    
C27   O3    S    
C40   O5    S    
C17   H1    S    
C38   H11   S    
C15   C17   A    
O10   Zn1   S    
C40   H20   S    
C37   O2    S    
C19   C21   A    
C18   C22   A    
C39   H15   S    
C5    C44   A    
C31   Cl3   S    
C37   H9    S    
C42   H26   S    
C5    C46   A    
C3    C46   A    
C13   C17   A    
C3    N1    A    
C32   C33   A    
C19   C24   A    
C44   O5    S    
C41   H24   S    
N1    Zn2   S    
C31   C35   A    
C23   C25   A    
C8    O13   A    
C12   O10   A    
C37   H8    S    
C2    C45   A    
C9    H32   S    
C41   H21   S    
C42   H25   S    
C1    O1    A    
C43   H30   S    
C16   H12   S    
C45   O6    S    
O14   Zn1   S    
C44   C48   A    
C4    C47   A    
