data_mof_unit_66128.cif
_audit_creation_date              2012-12-10T19:26:09-0500
_audit_creation_method            fapswitch 2.2
_symmetry_space_group_name_H-M    P1
_symmetry_Int_Tables_number       1
_space_group_crystal_system       triclinic
_cell_length_a                    15.863425
_cell_length_b                    16.469637
_cell_length_c                    17.727796
_cell_angle_alpha                 89.969739
_cell_angle_beta                  90.538782
_cell_angle_gamma                 70.172343
_cell_volume                      4356.84590373

loop_
_atom_site_label
_atom_site_type_symbol
_atom_type_description
_atom_site_fract_x
_atom_site_fract_y
_atom_site_fract_z
_atom_type_partial_charge
C1    C     C_R   0.498869 0.500256 0.644640 0.936673
C2    C     C_R   0.501131 0.499744 0.355360 0.936688
C3    C     C_R   0.092837 0.398160 0.477209 0.568513
C4    C     C_R   0.907162 0.601840 0.522789 0.568510
C5    C     C_R   0.051088 0.336796 0.484003 0.617782
C6    C     C_R   0.948912 0.663204 0.515995 0.617783
C7    C     C_R   0.452807 0.456161 0.153762 0.601154
C8    C     C_R   0.547165 0.543863 0.846239 0.601153
C9    C     C_R   0.453501 0.456085 0.232418 0.529687
C10   C     C_R   0.546477 0.543933 0.767584 0.529687
C11   C     C_R   0.502306 0.499574 0.272469 -0.362314
C12   C     C_R   0.497690 0.500428 0.727531 -0.362322
C13   C     C_R   0.551374 0.542546 0.232222 0.341795
C14   C     C_R   0.448634 0.457442 0.767779 0.341804
C15   C     C_R   0.550154 0.542142 0.153500 -0.216559
C16   C     C_R   0.449849 0.457851 0.846501 -0.216568
C17   C     C_R   0.500951 0.499345 0.114451 -0.200728
C18   C     C_R   0.499034 0.500667 0.885550 -0.200727
C19   C     C_1   0.500273 0.499793 0.033823 0.170052
C20   C     C_1   0.499709 0.500220 0.966178 0.170052
C21   C     C_R   0.441073 0.190259 0.453239 0.535854
C22   C     C_R   0.558927 0.809740 0.546760 0.535857
C23   C     C_R   0.672487 0.448002 0.499920 0.853224
C24   C     C_R   0.327513 0.551998 0.500080 0.853220
C25   C     C_R   0.442221 0.275626 0.453940 0.662834
C26   C     C_R   0.557780 0.724374 0.546059 0.662848
C27   C     C_R   0.557718 0.237901 0.546155 0.723898
C28   C     C_R   0.442281 0.762099 0.453846 0.723886
C29   C     C_R   0.558601 0.151846 0.546902 -0.355095
C30   C     C_R   0.441398 0.848154 0.453099 -0.355098
C31   C     C_R   0.499859 0.126891 0.500083 -0.218755
C32   C     C_R   0.500141 0.873109 0.499917 -0.218756
C33   C     C_1   0.500018 0.037248 0.500083 0.212028
C34   C     C_1   0.499982 0.962752 0.499917 0.212028
C35   C     C_R   0.770821 0.416854 0.500581 -0.154459
C36   C     C_R   0.229179 0.583145 0.499418 -0.154459
C37   C     C_R   0.913926 0.300789 0.503074 0.471860
C38   C     C_R   0.086074 0.699211 0.496924 0.471859
C39   C     C_R   0.820577 0.329029 0.506007 -0.197643
C40   C     C_R   0.179423 0.670971 0.493992 -0.197641
C41   C     C_R   0.815002 0.476745 0.496252 -0.023602
C42   C     C_R   0.184998 0.523255 0.503746 -0.023607
C43   C     C_R   0.908609 0.451577 0.501553 0.001079
C44   C     C_R   0.091391 0.548423 0.498445 0.001081
C45   C     C_R   0.958894 0.361895 0.497812 -0.197624
C46   C     C_R   0.041106 0.638105 0.502186 -0.197624
C47   C     C_R   0.953031 0.513661 0.505758 -0.199129
C48   C     C_R   0.046969 0.486339 0.494239 -0.199130
Cu1   Cu    Cu3+1 0.500000 0.419580 0.500020 1.126069
Cu2   Cu    Cu3+1 0.500000 0.580420 0.499980 1.126070
H1    H     H_    0.605038 0.105027 0.583932 0.247270
H2    H     H_    0.394960 0.894973 0.416070 0.247270
H3    H     H_    0.224943 0.457190 0.515511 0.233112
H4    H     H_    0.775057 0.542809 0.484487 0.233114
H5    H     H_    0.213098 0.718034 0.489517 0.218991
H6    H     H_    0.786903 0.281966 0.510483 0.218990
H7    H     H_    0.588075 0.574844 0.122723 0.235719
H8    H     H_    0.411938 0.425139 0.877278 0.235719
N1    N     N_R   0.500020 0.298780 0.500030 -0.337393
N2    N     N_R   0.499980 0.701220 0.499970 -0.337394
O1    O     O_R   0.500010 0.432060 0.608760 -0.513535
O2    O     O_R   0.499990 0.567940 0.391240 -0.513541
O3    O     O_R   0.500000 0.567880 0.608730 -0.524980
O4    O     O_R   0.500000 0.432120 0.391270 -0.524987
O5    O     O_R   0.629840 0.394000 0.500020 -0.566319
O6    O     O_R   0.370160 0.606000 0.499980 -0.566318
O7    O     O_R   0.629830 0.529820 0.499990 -0.537809
O8    O     O_R   0.370170 0.470180 0.500010 -0.537809
F1    F     F_    0.100998 0.253408 0.469948 -0.516876
F2    F     F_    0.899002 0.746592 0.530050 -0.516876
F3    F     F_    0.382718 0.169801 0.406907 -0.529699
F4    F     F_    0.617284 0.830198 0.593091 -0.529697
F5    F     F_    0.384791 0.335208 0.408009 -0.499684
F6    F     F_    0.615210 0.664792 0.591989 -0.499684
F7    F     F_    0.615194 0.260018 0.591992 -0.599394
F8    F     F_    0.384804 0.739982 0.408009 -0.599397
Cl1   Cl    Cl    0.969673 0.188219 0.507866 -0.373434
Cl2   Cl    Cl    0.030328 0.811781 0.492133 -0.373434
F9    F     F_    0.176439 0.370149 0.447784 -0.559252
F10   F     F_    0.823561 0.629851 0.552214 -0.559255
F11   F     F_    0.404798 0.414543 0.115929 -0.566261
F12   F     F_    0.595156 0.585498 0.884072 -0.566261
F13   F     F_    0.404601 0.415346 0.269345 -0.520371
F14   F     F_    0.595366 0.584686 0.730657 -0.520371
Cl3   Cl    Cl    0.618806 0.594050 0.277564 -0.516681
Cl4   Cl    Cl    0.381225 0.405915 0.722437 -0.516665

loop_
_geom_bond_atom_site_label_1
_geom_bond_atom_site_label_2
_ccdc_geom_bond_type
C38   C40   A    
C6    F2    S    
Cu1   O8    S    
C27   C29   A    
C41   C43   A    
C36   C42   A    
C19   C20   T    
C3    F9    S    
C21   C31   A    
C24   C36   S    
C22   C32   A    
C21   F3    S    
C8    F12   S    
C4    F10   S    
C42   H3    S    
C3    C48   A    
C7    C9    A    
C23   O7    A    
C30   H2    S    
C17   C19   S    
Cu1   O5    S    
C47   C48   A    
C44   C46   A    
C7    C17   A    
C5    F1    S    
C31   C33   S    
Cu2   O7    S    
C18   C20   S    
C24   O6    A    
Cu1   O4    S    
Cu2   O3    S    
C15   H7    S    
C1    C12   S    
C42   C44   A    
C27   F7    S    
C2    C11   S    
C1    O3    A    
C22   F4    S    
C2    O4    A    
C28   N2    A    
Cu1   O1    S    
C36   C40   A    
C14   Cl4   S    
C4    C6    A    
C38   Cl2   S    
C37   Cl1   S    
C8    C18   A    
C32   C34   S    
C35   C39   A    
Cu2   O6    S    
C39   H6    S    
C29   C31   A    
C40   H5    S    
C33   C34   T    
C16   H8    S    
C43   C45   A    
C9    C11   A    
C10   C12   A    
C9    F13   S    
C16   C18   A    
C7    F11   S    
C12   C14   A    
C23   C35   S    
C13   C15   A    
Cu2   O2    S    
C14   C16   A    
C37   C45   A    
C28   F8    S    
C26   N2    A    
C29   H1    S    
C15   C17   A    
C21   C25   A    
C6    C46   A    
C3    C5    A    
C1    O1    A    
Cu1   N1    S    
Cu2   N2    S    
C23   O5    A    
C28   C30   A    
C37   C39   A    
C27   N1    A    
C30   C32   A    
C11   C13   A    
C5    C45   A    
C10   F14   S    
C26   F6    S    
C25   F5    S    
C35   C41   A    
C41   H4    S    
C38   C46   A    
C24   O8    A    
C2    O2    A    
C8    C10   A    
Cu1   Cu2   S    
C22   C26   A    
C13   Cl3   S    
C25   N1    A    
C43   C47   A    
C44   C48   A    
C4    C47   A    
