data_mof_unit_33786.cif
_audit_creation_date              2012-10-26T19:02:58-0400
_audit_creation_method            fapswitch 2.2
_symmetry_space_group_name_H-M    P1
_symmetry_Int_Tables_number       1
_space_group_crystal_system       triclinic
_cell_length_a                    15.09447
_cell_length_b                    11.040201
_cell_length_c                    9.812842
_cell_angle_alpha                 111.081726
_cell_angle_beta                  97.751161
_cell_angle_gamma                 91.155797
_cell_volume                      1507.70032273

loop_
_atom_site_label
_atom_site_type_symbol
_atom_type_description
_atom_site_fract_x
_atom_site_fract_y
_atom_site_fract_z
_atom_type_partial_charge
C1    C     C_R   0.493500 0.254140 0.440683 0.560867
C2    C     C_2   0.492332 0.489765 0.918880 -0.004463
C3    C     C_R   0.329054 0.502525 0.502627 0.549271
C4    C     C_R   0.670946 0.497475 0.497373 0.549271
C5    C     C_R   0.824675 0.575881 0.618271 -0.144529
C6    C     C_R   0.175324 0.424119 0.381729 -0.144529
C7    C     C_R   0.767285 0.494925 0.492807 -0.022519
C8    C     C_R   0.232715 0.505075 0.507193 -0.022519
C9    C     C_R   0.802362 0.413207 0.367668 -0.031910
C10   C     C_R   0.197638 0.586792 0.632332 -0.031910
C11   C     C_R   0.896013 0.415384 0.369737 0.002142
C12   C     C_R   0.506500 0.745860 0.559317 0.560867
C13   C     C_R   0.103987 0.584616 0.630263 0.002142
C14   C     C_R   0.953168 0.498471 0.497775 0.052229
C15   C     C_R   0.046832 0.501529 0.502225 0.052229
C16   C     C_R   0.916924 0.578391 0.621748 0.011069
C17   C     C_R   0.083076 0.421608 0.378252 0.011069
C18   C     C_R   0.934259 0.336466 0.247533 -0.127999
C19   C     C_R   0.065740 0.663534 0.752467 -0.127999
C20   C     C_1   0.742851 0.324072 0.240637 0.206326
C21   C     C_1   0.257149 0.675928 0.759363 0.206326
C22   C     C_R   0.026708 0.339770 0.252014 -0.130947
C23   C     C_R   0.973292 0.660230 0.747986 -0.130947
C24   C     C_2   0.489990 0.114853 0.407249 -0.121108
C25   C     C_2   0.510009 0.885147 0.592750 -0.121108
C26   C     C_2   0.501683 0.069554 0.516624 -0.158325
C27   C     C_2   0.498317 0.930446 0.483376 -0.158325
C28   C     C_2   0.507668 0.510235 0.081120 -0.004463
Cu1   Cu    Cu3+1 0.515770 0.521810 0.644910 0.967489
Cu2   Cu    Cu3+1 0.484230 0.478190 0.355090 0.967489
H1    H     H_    0.797139 0.638538 0.713642 0.128612
H2    H     H_    0.477806 0.048838 0.292401 0.117185
H3    H     H_    0.439914 0.418062 0.846259 0.146500
H4    H     H_    0.560086 0.581938 0.153741 0.146500
H5    H     H_    0.588855 0.622036 0.934012 0.204309
H6    H     H_    0.411145 0.377964 0.065988 0.204309
H7    H     H_    0.202861 0.361461 0.286358 0.128612
H8    H     H_    0.893234 0.271769 0.147459 0.131052
H9    H     H_    0.106766 0.728231 0.852541 0.131052
H10   H     H_    0.054201 0.278019 0.156272 0.114353
H11   H     H_    0.945799 0.721981 0.843728 0.114353
H12   H     H_    0.486161 0.864720 0.368333 0.161733
H13   H     H_    0.513838 0.135279 0.631667 0.161733
H14   H     H_    0.522194 0.951161 0.707599 0.117185
N1    N     N_2   0.460520 0.445420 0.137370 -0.346244
N2    N     N_2   0.539480 0.554580 0.862630 -0.346244
N3    N     N_1   0.695410 0.252995 0.139399 -0.295418
N4    N     N_1   0.304590 0.747004 0.860601 -0.295418
O1    O     O_R   0.508410 0.332340 0.577400 -0.501699
O2    O     O_R   0.491590 0.667660 0.422600 -0.501699
O3    O     O_R   0.481780 0.295500 0.332650 -0.482169
O4    O     O_R   0.518220 0.704500 0.667350 -0.482169
O5    O     O_R   0.383570 0.518390 0.622380 -0.486557
O6    O     O_R   0.616430 0.481610 0.377620 -0.486557
O7    O     O_R   0.356940 0.481550 0.377630 -0.499251
O8    O     O_R   0.643060 0.518450 0.622370 -0.499251

loop_
_geom_bond_atom_site_label_1
_geom_bond_atom_site_label_2
_ccdc_geom_bond_type
C19   C23   A    
Cu2   O3    S    
C24   H2    S    
C11   C18   A    
C15   C17   A    
Cu1   Cu2   S    
Cu1   O8    S    
C25   C27   D    
Cu2   O6    S    
Cu2   O7    S    
Cu1   N2    S    
C9    C20   S    
C12   O2    A    
C17   C22   A    
C23   H11   S    
C12   C25   S    
C9    C11   A    
C21   N4    T    
C22   H10   S    
C18   H8    S    
C6    H7    S    
C28   H4    S    
H6    N1    S    
Cu1   O1    S    
C2    N2    D    
C3    O5    A    
C27   H12   S    
C26   C27   S    
Cu1   O5    S    
C4    C7    S    
C6    C8    A    
C19   H9    S    
C2    H3    S    
C12   O4    A    
C24   C26   D    
C26   H13   S    
C16   C23   A    
C5    C7    A    
C13   C15   A    
C10   C21   S    
Cu2   O2    S    
C11   C14   A    
C14   C16   A    
C28   N1    D    
C20   N3    T    
C13   C19   A    
C25   H14   S    
C1    C24   S    
C8    C10   A    
C3    C8    S    
C7    C9    A    
C6    C17   A    
C14   C15   A    
C5    C16   A    
C2    C28   S    
C1    O3    A    
Cu2   N1    S    
C4    O6    A    
C18   C22   A    
H5    N2    S    
C3    O7    A    
C10   C13   A    
C4    O8    A    
C5    H1    S    
Cu1   O4    S    
C1    O1    A    
