data_mof_unit_64371.cif
_audit_creation_date              2012-12-10T17:16:44-0500
_audit_creation_method            fapswitch 2.2
_symmetry_space_group_name_H-M    P1
_symmetry_Int_Tables_number       1
_space_group_crystal_system       triclinic
_cell_length_a                    18.875463
_cell_length_b                    18.857168
_cell_length_c                    18.765055
_cell_angle_alpha                 108.96652
_cell_angle_beta                  109.652617
_cell_angle_gamma                 109.619624
_cell_volume                      5152.53672112

loop_
_atom_site_label
_atom_site_type_symbol
_atom_type_description
_atom_site_fract_x
_atom_site_fract_y
_atom_site_fract_z
_atom_type_partial_charge
C1    C     C_R   0.618805 0.117043 0.997985 0.794262
C2    C     C_R   0.832484 0.251529 0.019242 0.031711
C3    C     C_R   0.816278 0.313870 0.001304 -0.133019
C4    C     C_R   0.734750 0.309033 0.979805 0.066812
C5    C     C_R   0.671180 0.243434 0.978582 -0.258156
C6    C     C_R   0.685787 0.181101 0.994930 -0.173436
C7    C     C_R   0.529516 0.759681 0.833542 0.433599
C8    C     C_R   0.528610 0.696667 0.767837 -0.308963
C9    C     C_R   0.496651 0.686393 0.684359 -0.062177
C10   C     C_R   0.462770 0.737642 0.663762 0.091504
C11   C     C_R   0.464466 0.801209 0.729576 -0.286487
C12   C     C_R   0.498011 0.115831 0.118815 0.714620
C13   C     C_R   0.497986 0.813019 0.814200 -0.093456
C14   C     C_R   0.326924 0.818618 0.086146 0.119121
C15   C     C_R   0.265311 0.746729 0.080855 0.351756
C16   C     C_R   0.186559 0.685444 0.001231 -0.250575
C17   C     C_R   0.172630 0.691846 0.925257 0.373938
C18   C     C_R   0.238149 0.757538 0.929297 -0.194975
C19   C     C_R   0.314957 0.820637 0.007966 -0.225009
C20   C     C_R   0.618646 0.500737 0.619624 0.789358
C21   C     C_R   0.496807 0.385743 0.381676 0.821693
C22   C     C_R   0.381365 0.503991 0.384817 0.769536
C23   C     C_R   0.381456 0.885024 0.004318 0.822296
C24   C     C_R   0.498857 0.620927 0.619934 0.802687
C25   C     C_R   0.879234 0.498551 0.881574 0.783988
C26   C     C_R   0.882598 0.381312 0.001342 0.784999
C27   C     C_R   0.120178 0.500909 0.118281 0.757916
C28   C     C_R   0.118306 0.618535 0.999513 0.770295
C29   C     C_R   0.757760 0.574266 0.753355 -0.223430
C30   C     C_R   0.819581 0.573611 0.818383 -0.201331
C31   C     C_R   0.809658 0.495224 0.813984 -0.111523
C32   C     C_R   0.735860 0.415499 0.743727 0.051446
C33   C     C_R   0.674235 0.416222 0.676658 0.389014
C34   C     C_R   0.499173 0.880917 0.881454 0.830400
C35   C     C_R   0.684877 0.496509 0.683062 -0.136388
C36   C     C_R   0.327617 0.510162 0.249251 -0.206348
C37   C     C_R   0.264757 0.509509 0.182688 0.090434
C38   C     C_R   0.189238 0.503598 0.185925 -0.035878
C39   C     C_R   0.178992 0.500060 0.255510 -0.198163
C40   C     C_R   0.241067 0.498650 0.319951 -0.192442
C41   C     C_R   0.315401 0.503824 0.316891 -0.040990
C42   C     C_2   0.425778 0.240279 0.257936 -0.126708
C43   C     C_2   0.489927 0.322788 0.306203 -0.260146
C44   C     C_2   0.422429 0.178512 0.182265 0.051167
C45   C     C_2   0.496582 0.177989 0.189672 0.223417
C46   C     C_R   0.765141 0.182535 0.011390 0.382582
Cu1   Cu    Cu3+1 0.438200 0.000380 0.938580 0.933473
Cu2   Cu    Cu3+1 0.561800 0.999620 0.061420 0.996514
Cu3   Cu    Cu3+1 0.438220 0.441470 0.503160 0.964811
Cu4   Cu    Cu3+1 0.561830 0.565070 0.503150 0.946514
Cu5   Cu    Cu3+1 0.999900 0.438590 0.938490 0.930874
Cu6   Cu    Cu3+1 0.999930 0.561410 0.061340 0.950804
H1    H     H_    0.373572 0.218346 0.271883 0.151791
H2    H     H_    0.553204 0.655548 0.781729 0.132145
H3    H     H_    0.439434 0.841589 0.714480 0.171157
H4    H     H_    0.228245 0.759563 0.869780 0.191916
H5    H     H_    0.766113 0.635849 0.758661 0.166372
H6    H     H_    0.876094 0.634612 0.871986 0.161261
H7    H     H_    0.537237 0.346553 0.286972 0.183176
H8    H     H_    0.385953 0.514811 0.247897 0.141334
H9    H     H_    0.121704 0.496275 0.258781 0.147530
H10   H     H_    0.231715 0.494715 0.372722 0.146267
H11   H     H_    0.609615 0.241159 0.964824 0.169411
O1    O     O_R   0.537990 0.090490 0.948120 -0.590014
O2    O     O_R   0.642390 0.554900 0.592760 -0.579868
O3    O     O_R   0.447840 0.361480 0.413570 -0.582682
O4    O     O_R   0.552220 0.465860 0.413560 -0.587959
O5    O     O_R   0.357660 0.451630 0.413550 -0.588575
O6    O     O_R   0.462040 0.556010 0.413540 -0.592359
O7    O     O_R   0.447820 0.540680 0.592750 -0.582700
O8    O     O_R   0.552200 0.645050 0.592740 -0.587942
O9    O     O_R   0.909730 0.448730 0.858460 -0.583996
O10   O     O_R   0.909750 0.552440 0.962210 -0.587260
O11   O     O_R   0.909720 0.357980 0.948050 -0.601003
O12   O     O_R   0.642370 0.089850 0.051860 -0.564883
O13   O     O_R   0.909750 0.461690 0.051790 -0.582298
O14   O     O_R   0.090070 0.447560 0.037620 -0.594128
O15   O     O_R   0.090100 0.551270 0.141360 -0.580028
O16   O     O_R   0.090070 0.538310 0.948030 -0.578313
O17   O     O_R   0.090100 0.642020 0.051770 -0.564495
O18   O     O_R   0.447800 0.089920 0.037730 -0.597503
O19   O     O_R   0.552180 0.089280 0.141460 -0.587117
O20   O     O_R   0.357630 0.910150 0.948140 -0.590787
O21   O     O_R   0.462010 0.909510 0.051880 -0.586618
O22   O     O_R   0.447820 0.910720 0.858540 -0.604120
O23   O     O_R   0.552200 0.910080 0.962270 -0.522155
O24   O     O_R   0.538000 0.450530 0.592770 -0.566998
C47   C     C_3   0.421397 0.723731 0.572248 -0.396622
C48   C     C_3   0.485504 0.788078 0.560664 -0.339565
C49   C     C_3   0.445070 0.771505 0.467368 -0.806552
H12   H     H_    0.427160 0.705463 0.421245 0.265709
H13   H     H_    0.386136 0.778074 0.450178 0.255149
H14   H     H_    0.492565 0.819380 0.460961 0.239139
H15   H     H_    0.505002 0.855258 0.605692 0.214522
H16   H     H_    0.544717 0.782021 0.576392 0.239069
H17   H     H_    0.397518 0.656512 0.523384 0.184396
H18   H     H_    0.363245 0.731602 0.558615 0.195312
C50   C     C_3   0.403137 0.891276 0.176217 -0.326012
C51   C     C_3   0.374310 0.935449 0.236462 -0.322118
C52   C     C_3   0.335268 0.985465 0.204797 -0.839810
H19   H     H_    0.383973 0.035427 0.201789 0.250716
H20   H     H_    0.276222 0.941330 0.139431 0.254920
H21   H     H_    0.317307 0.017981 0.250944 0.245461
H22   H     H_    0.432187 0.981784 0.302452 0.206985
H23   H     H_    0.326880 0.888245 0.243368 0.269179
H24   H     H_    0.439255 0.863748 0.206981 0.193165
H25   H     H_    0.450637 0.943462 0.174685 0.200763
O25   O     O_3   0.284736 0.738537 0.154847 -0.751079
H26   H     H_    0.247180 0.678598 0.139502 0.316864
O26   O     O_3   0.096684 0.636147 0.845857 -0.716818
H27   H     H_    0.049640 0.602515 0.853445 0.327745
C53   C     C_3   0.720086 0.329374 0.739740 -0.354779
C54   C     C_3   0.743676 0.280542 0.677038 -0.284514
C55   C     C_3   0.733459 0.197138 0.678026 -0.849822
H28   H     H_    0.777417 0.211941 0.744209 0.262617
H29   H     H_    0.665275 0.153903 0.658073 0.255713
H30   H     H_    0.750392 0.162871 0.631805 0.241023
H31   H     H_    0.700983 0.264054 0.609703 0.247516
H32   H     H_    0.811972 0.321909 0.695869 0.230707
H33   H     H_    0.757326 0.338373 0.804996 0.176386
H34   H     H_    0.650691 0.289040 0.718584 0.220244
O27   O     O_3   0.605016 0.337759 0.606197 -0.740159
H35   H     H_    0.585395 0.344667 0.554151 0.330595
C56   C     C_3   0.282319 0.518330 0.112097 -0.396390
C57   C     C_3   0.263682 0.431749 0.045230 -0.334775
C58   C     C_3   0.277860 0.439173 0.971984 -0.821042
H36   H     H_    0.233443 0.457923 0.937221 0.265504
H37   H     H_    0.346149 0.488299 0.998530 0.253051
H38   H     H_    0.264283 0.375748 0.924823 0.236502
H39   H     H_    0.307263 0.410874 0.077537 0.206936
H40   H     H_    0.195367 0.381330 0.016829 0.235438
H41   H     H_    0.243246 0.542107 0.078818 0.201097
H42   H     H_    0.351407 0.567993 0.142150 0.196977
C59   C     C_3   0.333082 0.113627 0.102670 -0.451614
C60   C     C_3   0.309011 0.151336 0.043201 -0.311523
C61   C     C_3   0.220608 0.085678 0.961432 -0.827731
H43   H     H_    0.221674 0.027233 0.923646 0.260073
H44   H     H_    0.169370 0.066473 0.979071 0.251666
H45   H     H_    0.204688 0.114916 0.919954 0.235056
H46   H     H_    0.306894 0.209942 0.078801 0.209363
H47   H     H_    0.358723 0.170728 0.023739 0.232223
H48   H     H_    0.328577 0.051095 0.066544 0.213037
H49   H     H_    0.284178 0.097698 0.123808 0.197957
O28   O     O_3   0.571787 0.230760 0.270439 -0.736398
H50   H     H_    0.621831 0.230678 0.264140 0.333562
O29   O     O_3   0.778574 0.116945 0.018777 -0.734070
H51   H     H_    0.722737 0.061621 0.979853 0.325288
C62   C     C_3   0.920238 0.255663 0.046314 -0.355313
C63   C     C_3   0.968031 0.283249 0.143154 -0.333378
C64   C     C_3   0.050797 0.277331 0.167720 -0.832678
H52   H     H_    0.034335 0.208857 0.133467 0.259312
H53   H     H_    0.093349 0.315960 0.149923 0.258809
H54   H     H_    0.086849 0.302676 0.238960 0.248698
H55   H     H_    0.985172 0.351060 0.182809 0.199507
H56   H     H_    0.925907 0.241422 0.159030 0.265387
H57   H     H_    0.909987 0.191121 0.005929 0.230051
H58   H     H_    0.963944 0.301347 0.035239 0.197091
C65   C     C_3   0.711917 0.370913 0.955620 -0.389130
C66   C     C_3   0.717479 0.439666 0.032059 -0.317399
C67   C     C_3   0.698416 0.504260 0.009128 -0.834074
H59   H     H_    0.746521 0.538239 0.993391 0.264651
H60   H     H_    0.632049 0.470414 0.952414 0.252109
H61   H     H_    0.702574 0.553081 0.065408 0.240256
H62   H     H_    0.669835 0.408079 0.049509 0.209399
H63   H     H_    0.783629 0.475289 0.089665 0.236714
H64   H     H_    0.754675 0.403228 0.934327 0.189505
H65   H     H_    0.644952 0.333717 0.898844 0.187925
O30   O     O_3   0.559351 0.768959 0.915947 -0.712537
H66   H     H_    0.578544 0.726335 0.917807 0.318367

loop_
_geom_bond_atom_site_label_1
_geom_bond_atom_site_label_2
_ccdc_geom_bond_type
C16   C28   S    
C7    O30   S    
C47   H17   S    
C25   C31   S    
C58   H36   S    
Cu3   O5    S    
C21   O3    A    
Cu3   O24   S    
Cu5   O11   S    
C63   H55   S    
C27   O15   A    
C17   O26   S    
C55   H28   S    
C24   O7    A    
C60   C61   S    
C2    C46   A    
Cu2   O21   S    
C5    H11   S    
C29   C30   A    
C23   O20   A    
C56   H42   S    
C5    C6    A    
Cu1   O22   S    
C36   C37   A    
Cu4   O6    S    
O29   H51   S    
C42   H1    S    
C38   C39   A    
C22   C41   S    
C27   C38   S    
C2    C62   S    
C15   C16   A    
C20   O24   A    
C40   H10   S    
O25   H26   S    
C56   H41   S    
C18   C19   A    
C34   O23   A    
C48   H15   S    
C28   O16   A    
O26   H27   S    
C13   C34   S    
C26   O11   A    
C59   H49   S    
C21   C43   S    
C20   C35   S    
C57   H39   S    
C4    C65   S    
C66   C67   S    
C16   C17   A    
C64   H54   S    
C45   O28   S    
C26   O13   A    
C65   C66   S    
Cu1   O20   S    
C32   C53   S    
Cu4   O4    S    
C22   O6    A    
C47   H18   S    
C18   H4    S    
Cu1   Cu2   S    
C51   H22   S    
C54   H32   S    
C21   O4    A    
Cu2   O12   S    
C36   C41   A    
C42   C44   S    
C61   H45   S    
Cu6   O15   S    
C53   C54   S    
C65   H65   S    
C14   C50   S    
C44   C59   S    
C60   H46   S    
C51   H23   S    
Cu3   O3    S    
Cu5   Cu6   S    
C1    O12   A    
C67   H61   S    
C20   O2    A    
C7    C8    A    
C62   C63   S    
C61   H44   S    
Cu6   O10   S    
C23   O21   A    
C8    H2    S    
Cu1   O1    S    
C53   H33   S    
C8    C9    A    
C58   H38   S    
C36   H8    S    
C52   H21   S    
C50   H25   S    
C1    C6    S    
C34   O22   A    
C67   H60   S    
C15   O25   S    
C48   H16   S    
C19   C23   S    
Cu4   O8    S    
Cu5   O14   S    
C37   C38   A    
C64   H53   S    
C59   H48   S    
C37   C56   S    
C57   H40   S    
C49   H13   S    
C31   C32   A    
C14   C15   A    
C7    C13   A    
C30   C31   A    
C10   C47   S    
C52   H20   S    
C17   C18   A    
C12   O19   A    
C25   O9    A    
C22   O5    A    
O30   H66   S    
C29   H5    S    
C50   C51   S    
Cu3   O7    S    
Cu6   O13   S    
C57   C58   S    
Cu2   O23   S    
C42   C43   D    
C3    C4    A    
C1    O1    A    
C39   C40   A    
C39   H9    S    
C11   H3    S    
C44   C45   D    
C65   H64   S    
C49   H14   S    
C54   C55   S    
C9    C10   A    
C40   C41   A    
C58   H37   S    
C6    C46   A    
C66   H62   S    
C14   C19   A    
C3    C26   S    
O28   H50   S    
C27   O14   A    
C55   H29   S    
C9    C24   S    
C59   C60   S    
C12   C45   S    
C43   H7    S    
C29   C35   A    
C50   H24   S    
C51   C52   S    
C32   C33   A    
C2    C3    A    
C63   H56   S    
C53   H34   S    
C63   C64   S    
C67   H59   S    
C11   C13   A    
C49   H12   S    
C46   O29   S    
C4    C5    A    
C30   H6    S    
C52   H19   S    
C33   C35   A    
Cu2   O19   S    
C12   O18   A    
C25   O10   A    
C62   H58   S    
Cu1   O18   S    
C28   O17   A    
Cu4   O2    S    
Cu5   O16   S    
C55   H30   S    
C10   C11   A    
C54   H31   S    
C66   H63   S    
C60   H47   S    
C47   C48   S    
Cu3   Cu4   S    
Cu5   O9    S    
O27   H35   S    
C33   O27   S    
C64   H52   S    
C61   H43   S    
C62   H57   S    
C48   C49   S    
Cu6   O17   S    
C24   O8    A    
C56   C57   S    
