data_mof_unit_65824.cif
_audit_creation_date              2012-12-10T19:34:18-0500
_audit_creation_method            fapswitch 2.2
_symmetry_space_group_name_H-M    P1
_symmetry_Int_Tables_number       1
_space_group_crystal_system       triclinic
_cell_length_a                    18.811498
_cell_length_b                    18.643262
_cell_length_c                    18.633628
_cell_angle_alpha                 109.078652
_cell_angle_beta                  109.923884
_cell_angle_gamma                 109.426572
_cell_volume                      5029.44522695

loop_
_atom_site_label
_atom_site_type_symbol
_atom_type_description
_atom_site_fract_x
_atom_site_fract_y
_atom_site_fract_z
_atom_type_partial_charge
C1    C     C_R   0.619493 0.620395 0.499565 0.869409
C2    C     C_R   0.826703 0.749660 0.514114 0.145322
C3    C     C_3   0.844402 0.686045 0.460475 -0.510371
C4    C     C_R   0.379763 0.500123 0.378967 0.870493
C5    C     C_3   0.772774 0.614556 0.457638 -0.467213
C6    C     C_R   0.674513 0.428742 0.695421 0.130080
C7    C     C_R   0.687717 0.502687 0.687977 -0.087379
C8    C     C_R   0.768609 0.580208 0.748273 -0.225033
C9    C     C_R   0.834251 0.580148 0.813055 -0.220591
C10   C     C_R   0.817697 0.503107 0.818545 -0.112282
C11   C     C_R   0.736212 0.429299 0.758894 0.140287
C12   C     C_3   0.198124 0.417698 0.183402 0.256131
C13   C     C_3   0.680659 0.335834 0.730659 -0.468232
C14   C     C_3   0.609556 0.335619 0.658213 -0.526699
C15   C     C_R   0.308212 0.235025 0.483172 0.137269
C16   C     C_R   0.379569 0.379842 0.499536 0.882210
C17   C     C_R   0.312174 0.314342 0.498003 -0.108202
C18   C     C_R   0.248588 0.329374 0.513073 -0.215103
C19   C     C_R   0.183523 0.264443 0.512587 -0.222487
C20   C     C_R   0.183947 0.185982 0.499629 -0.087590
C21   C     C_R   0.247742 0.174236 0.485733 0.128259
C22   C     C_3   0.280683 0.111890 0.467655 -0.508534
C23   C     C_3   0.214776 0.445811 0.277829 -0.193691
C24   C     C_3   0.350762 0.182004 0.465415 -0.478784
C25   C     C_R   0.004301 0.620291 0.124043 0.879327
C26   C     C_R   0.124348 0.499406 0.124050 0.886329
C27   C     C_R   0.004715 0.379991 0.884820 0.885937
C28   C     C_R   0.620763 0.500392 0.621144 0.885292
C29   C     C_R   0.883133 0.500886 0.883393 0.884170
C30   C     C_R   0.999785 0.120310 0.619481 0.880995
C31   C     C_R   0.880209 0.879885 0.500326 0.875430
C32   C     C_R   0.000905 0.880129 0.380301 0.877936
C33   C     C_R   0.119540 0.119766 0.499653 0.881439
C34   C     C_3   0.312670 0.499124 0.311249 -0.081328
C35   C     C_R   0.931095 0.696057 0.168169 0.087401
C36   C     C_R   0.004975 0.687680 0.188642 -0.113591
C37   C     C_R   0.083263 0.752688 0.267101 -0.212735
C38   C     C_R   0.082756 0.817718 0.330304 -0.216622
C39   C     C_R   0.004397 0.818522 0.313277 -0.095398
C40   C     C_3   0.304754 0.579145 0.316962 0.280086
C41   C     C_R   0.930737 0.761360 0.229560 0.089889
C42   C     C_3   0.838306 0.703630 0.202774 -0.485453
C43   C     C_3   0.839209 0.630806 0.135748 0.016542
C44   C     C_R   0.927782 0.244521 0.746045 0.136922
C45   C     C_R   0.762081 0.684976 0.511770 0.109284
C46   C     C_R   0.005138 0.314646 0.819641 -0.097139
C47   C     C_R   0.084363 0.321436 0.827042 -0.223174
C48   C     C_R   0.083047 0.256868 0.760780 -0.214355
C49   C     C_R   0.002583 0.187429 0.686217 -0.099781
C50   C     C_R   0.926603 0.184485 0.681170 0.134048
C51   C     C_3   0.829606 0.133591 0.626784 -0.490529
C52   C     C_3   0.207019 0.527863 0.284416 -0.208940
C53   C     C_3   0.830994 0.203438 0.700758 -0.498465
C54   C     C_3   0.191109 0.498757 0.190413 -0.026553
C55   C     C_3   0.289186 0.552020 0.223646 -0.262792
C56   C     C_R   0.686655 0.687914 0.502456 -0.087093
C57   C     C_3   0.296523 0.469900 0.217168 -0.212506
C58   C     C_3   0.342736 0.732355 0.385843 -0.802974
C59   C     C_3   0.792223 0.656213 0.007123 -0.734823
C60   C     C_3   0.135840 0.325406 0.105277 -0.908843
C61   C     C_R   0.680824 0.761913 0.505723 -0.217714
C62   C     C_R   0.745063 0.826152 0.505547 -0.220327
C63   C     C_R   0.815890 0.817095 0.504887 -0.089213
H1    H     H_    0.169730 0.552216 0.310408 0.138667
H2    H     H_    0.552601 0.328979 0.667042 0.198870
H3    H     H_    0.248713 0.390218 0.524232 0.164835
H4    H     H_    0.134342 0.275824 0.523567 0.154697
H5    H     H_    0.307344 0.101601 0.524229 0.210972
H6    H     H_    0.233292 0.051256 0.402769 0.202236
H7    H     H_    0.417784 0.212265 0.520820 0.196656
H8    H     H_    0.344235 0.161660 0.399344 0.211463
H9    H     H_    0.143075 0.750426 0.281046 0.147651
H10   H     H_    0.142298 0.865204 0.392906 0.161407
H11   H     H_    0.833183 0.691246 0.255770 0.162209
H12   H     H_    0.910388 0.696296 0.498730 0.210295
H13   H     H_    0.793891 0.726041 0.173949 0.216307
H14   H     H_    0.834218 0.576599 0.150422 0.132434
H15   H     H_    0.318679 0.596331 0.201562 0.160770
H16   H     H_    0.146341 0.375409 0.883814 0.157355
H17   H     H_    0.144104 0.261577 0.767179 0.160761
H18   H     H_    0.805296 0.134686 0.564000 0.210964
H19   H     H_    0.802030 0.067711 0.620731 0.196541
H20   H     H_    0.808491 0.245484 0.680872 0.193862
H21   H     H_    0.803300 0.177789 0.736841 0.211618
H22   H     H_    0.333674 0.445490 0.190972 0.158517
H23   H     H_    0.714666 0.568166 0.390626 0.214885
H24   H     H_    0.186251 0.401901 0.300740 0.140554
H25   H     H_    0.624783 0.767594 0.503764 0.151450
H26   H     H_    0.738524 0.881222 0.503732 0.153163
H27   H     H_    0.828041 0.681139 0.395165 0.192853
H28   H     H_    0.429487 0.685637 0.408355 0.216726
H29   H     H_    0.390669 0.796183 0.447328 0.240389
H30   H     H_    0.276895 0.713957 0.377954 0.242041
H31   H     H_    0.343864 0.739897 0.329432 0.234295
H32   H     H_    0.760913 0.536405 0.002504 0.231810
H33   H     H_    0.734453 0.625369 0.941215 0.238184
H34   H     H_    0.797397 0.583422 0.494112 0.202565
H35   H     H_    0.850157 0.666152 0.999311 0.226501
H36   H     H_    0.801690 0.720488 0.049169 0.242954
H37   H     H_    0.157918 0.280163 0.117595 0.242826
H38   H     H_    0.069139 0.303362 0.095684 0.252148
H39   H     H_    0.134654 0.324697 0.045070 0.234644
H40   H     H_    0.781169 0.639546 0.744444 0.153217
H41   H     H_    0.896740 0.639803 0.858878 0.166434
H42   H     H_    0.706157 0.293836 0.704963 0.194943
H43   H     H_    0.664332 0.328532 0.780771 0.207899
H44   H     H_    0.593720 0.293250 0.590648 0.210207
N1    N     N_2   0.365385 0.666733 0.391431 -0.285512
N2    N     N_2   0.777716 0.599090 0.044312 -0.284292
O1    O     O_R   0.592030 0.539910 0.448670 -0.625469
O2    O     O_R   0.051340 0.091660 0.643070 -0.622749
O3    O     O_R   0.856270 0.908420 0.447910 -0.624968
O4    O     O_R   0.591210 0.643320 0.551340 -0.625420
O5    O     O_R   0.960500 0.908460 0.552180 -0.617875
O6    O     O_R   0.948660 0.908440 0.357030 -0.618181
O7    O     O_R   0.052890 0.908480 0.461300 -0.627631
O8    O     O_R   0.039500 0.091640 0.447920 -0.621776
O9    O     O_R   0.143730 0.091680 0.552190 -0.625220
O10   O     O_R   0.408090 0.448300 0.356360 -0.625520
O11   O     O_R   0.407280 0.551720 0.459030 -0.616531
O12   O     O_R   0.054880 0.643340 0.094730 -0.619755
O13   O     O_R   0.408790 0.356680 0.448660 -0.622795
O14   O     O_R   0.407970 0.460090 0.551330 -0.624318
O15   O     O_R   0.592720 0.448280 0.540970 -0.622665
O16   O     O_R   0.591910 0.551700 0.643640 -0.621007
O17   O     O_R   0.951440 0.539930 0.094760 -0.633821
O18   O     O_R   0.044460 0.448310 0.096120 -0.622375
O19   O     O_R   0.147900 0.551710 0.096100 -0.633220
O20   O     O_R   0.952840 0.356700 0.912890 -0.622040
O21   O     O_R   0.056280 0.460110 0.912860 -0.622010
O22   O     O_R   0.859820 0.448330 0.911520 -0.628303
O23   O     O_R   0.963270 0.551730 0.911500 -0.623118
O24   O     O_R   0.947110 0.091620 0.538800 -0.625028
Zn1   Zn    Zn3+2 0.500550 0.430950 0.431450 0.941088
Zn2   Zn    Zn3+2 0.499450 0.569050 0.568550 0.957382
Zn3   Zn    Zn3+2 0.934790 0.430980 0.003830 0.933566
Zn4   Zn    Zn3+2 0.072930 0.569070 0.003790 0.946319
Zn5   Zn    Zn3+2 0.930400 0.000020 0.430430 0.947518
Zn6   Zn    Zn3+2 0.069600 0.000080 0.569670 0.948005

loop_
_geom_bond_atom_site_label_1
_geom_bond_atom_site_label_2
_ccdc_geom_bond_type
C33   O8    A    
C59   H36   S    
C41   C42   S    
C35   C36   A    
C47   H16   S    
O19   Zn4   S    
O2    Zn6   S    
C7    C8    A    
C39   C41   A    
C29   O22   A    
C28   O16   A    
C12   C23   S    
C62   C63   A    
C53   H21   S    
C34   C40   S    
C36   C37   A    
C1    C56   S    
C38   C39   A    
C29   O23   A    
C62   H26   S    
C20   C33   S    
C18   C19   A    
C32   C39   S    
O12   Zn4   S    
C16   O13   A    
O13   Zn1   S    
C46   C47   A    
C44   C53   S    
O8    Zn5   S    
C45   C56   A    
C52   C54   S    
C8    C9    A    
C34   C57   S    
C31   O3    A    
C4    O10   A    
C19   H4    S    
C35   C43   S    
C9    C10   A    
C51   H18   S    
C22   H6    S    
C40   N1    S    
O7    Zn6   S    
C23   C34   S    
O17   Zn3   S    
C33   O9    A    
C23   H24   S    
C13   C14   S    
C1    O4    A    
C60   H39   S    
C26   C54   S    
C44   C46   A    
C50   C51   S    
C2    C45   A    
C4    C34   S    
C42   H11   S    
O10   Zn1   S    
C24   H7    S    
C31   C63   S    
O18   Zn3   S    
C13   H42   S    
O22   Zn3   S    
H32   N2    S    
C6    C11   A    
C55   H15   S    
C16   C17   S    
C3    C5    S    
O23   Zn4   S    
C40   C52   S    
C5    C45   S    
C7    C28   S    
O14   Zn2   S    
C51   C53   S    
C25   O17   A    
C37   C38   A    
C61   H25   S    
O3    Zn5   S    
C1    O1    A    
C6    C14   S    
O20   Zn3   S    
C47   C48   A    
O6    Zn5   S    
C40   C55   S    
C17   C18   A    
C26   O19   A    
O5    Zn6   S    
C32   O7    A    
O24   Zn5   S    
C51   H19   S    
C22   H5    S    
O4    Zn2   S    
C12   C57   S    
C27   C46   S    
C48   C49   A    
C30   C49   S    
C5    H34   S    
C55   C57   S    
C52   H1    S    
C27   O20   A    
C30   O24   A    
C22   C24   S    
O1    Zn1   S    
C43   H14   S    
C42   C43   S    
C5    H23   S    
C60   H38   S    
C59   H35   S    
C3    H12   S    
C2    C63   A    
C44   C50   A    
C15   C17   A    
C54   C55   S    
C14   H44   S    
C31   O5    A    
H28   N1    S    
C58   H30   S    
C13   H43   S    
C60   H37   S    
C28   O15   A    
C6    C7    A    
C18   H3    S    
C42   H13   S    
O15   Zn1   S    
C30   O2    A    
C53   H20   S    
O11   Zn2   S    
C48   H17   S    
C19   C20   A    
C2    C3    S    
C58   H31   S    
C15   C24   S    
C3    H27   S    
C11   C13   S    
C10   C29   S    
O16   Zn2   S    
C23   C52   S    
C16   O14   A    
C25   O12   A    
C9    H41   S    
C59   N2    S    
C14   H2    S    
C57   H22   S    
C58   N1    S    
C26   O18   A    
C32   O6    A    
C61   C62   A    
C35   C41   A    
C8    H40   S    
C10   C11   A    
C25   C36   S    
C12   C60   S    
C15   C21   A    
C20   C21   A    
C49   C50   A    
C59   H33   S    
C37   H9    S    
C27   O21   A    
C56   C61   A    
C4    O11   A    
C43   N2    S    
C21   C22   S    
O21   Zn4   S    
C58   H29   S    
C12   C54   S    
O9    Zn6   S    
C24   H8    S    
C38   H10   S    
