data_mof_unit_36163.cif
_audit_creation_date              2013-03-05T17:00:47-0500
_audit_creation_method            fapswitch 2.2
_symmetry_space_group_name_H-M    P1
_symmetry_Int_Tables_number       1
_space_group_crystal_system       triclinic
_cell_length_a                    14.829895
_cell_length_b                    16.227187
_cell_length_c                    16.718551
_cell_angle_alpha                 87.071118
_cell_angle_beta                  92.124916
_cell_angle_gamma                 91.449556
_cell_volume                      4014.15466557

loop_
_atom_site_label
_atom_site_type_symbol
_atom_site_description
_atom_site_fract_x
_atom_site_fract_y
_atom_site_fract_z
_atom_type_partial_charge
O1    O     O_R   0.496050 0.422540 0.612660 -0.609847
O2    O     O_R   0.503950 0.577460 0.387340 -0.629332
O3    O     O_R   0.503140 0.561840 0.618900 -0.577387
O4    O     O_R   0.496860 0.438160 0.381100 -0.579717
C1    C     C_R   0.495756 0.488560 0.652603 0.942415
C2    C     C_R   0.498855 0.511065 0.346835 0.930960
O5    O     O_R   0.628610 0.430340 0.496900 -0.582521
O6    O     O_R   0.371390 0.569660 0.503100 -0.598344
O7    O     O_R   0.635690 0.569650 0.503140 -0.600974
O8    O     O_R   0.364310 0.430350 0.496860 -0.585261
C3    C     C_R   0.673040 0.498812 0.503752 0.902803
C4    C     C_R   0.326848 0.500999 0.496004 0.954314
Zn1   Zn    Zn3+2 0.495270 0.406980 0.495830 1.016279
Zn2   Zn    Zn3+2 0.504730 0.593020 0.504170 1.003532
C5    C     C_R   0.181468 0.506903 0.421394 0.433181
C6    C     C_R   0.817080 0.471909 0.575799 0.441910
C7    C     C_R   0.230685 0.500727 0.494466 -0.196130
C8    C     C_R   0.768871 0.495558 0.505119 -0.180057
C9    C     C_R   0.190002 0.479658 0.565935 -0.275996
C10   C     C_R   0.809517 0.505083 0.432214 -0.286060
C11   C     C_R   0.098021 0.462692 0.566887 -0.024180
C12   C     C_R   0.900269 0.489064 0.426802 -0.017234
C13   C     C_R   0.045917 0.473872 0.494923 -0.103792
C14   C     C_R   0.952134 0.472293 0.498016 -0.105267
C15   C     C_R   0.087644 0.491265 0.420644 -0.119036
C16   C     C_R   0.910351 0.459277 0.572832 -0.115341
C17   C     C_R   0.057308 0.435106 0.638682 0.353967
C18   C     C_R   0.940186 0.490697 0.351461 0.352941
C19   C     C_R   0.962872 0.434314 0.641959 0.400157
C20   C     C_R   0.034542 0.492347 0.348335 0.393856
H1    H     H_    0.231555 0.475003 0.620581 0.199640
H2    H     H_    0.768761 0.523113 0.379448 0.177897
C21   C     C_R   0.477427 0.480175 0.737086 -0.199935
C22   C     C_R   0.486665 0.517341 0.260119 -0.216720
C23   C     C_R   0.418647 0.535046 0.770089 0.420062
C24   C     C_R   0.431059 0.459011 0.221006 0.463657
C25   C     C_R   0.402829 0.525582 0.852090 -0.361929
C26   C     C_R   0.412989 0.470003 0.139379 -0.357312
C27   C     C_R   0.448266 0.465469 0.900106 0.161513
C28   C     C_R   0.458615 0.532012 0.094265 0.131545
C29   C     C_R   0.503759 0.409282 0.865983 0.476095
C30   C     C_R   0.518664 0.587223 0.132496 0.501431
C31   C     C_R   0.515820 0.415365 0.783920 -0.398247
C32   C     C_R   0.529849 0.581248 0.215682 -0.436264
N1    N     N_2   0.444271 0.463999 0.983707 -0.171689
N2    N     N_2   0.452512 0.534322 0.010044 -0.178373
H3    H     H_    0.366885 0.426920 0.110563 0.190910
H4    H     H_    0.356160 0.564834 0.879458 0.173738
H5    H     H_    0.558808 0.371890 0.757458 0.202667
H6    H     H_    0.575393 0.624285 0.245171 0.184819
N3    N     N_R   0.511030 0.716920 0.509720 -0.188385
N4    N     N_R   0.488970 0.283080 0.490280 -0.180820
C33   C     C_R   0.456590 0.765471 0.459853 0.381526
C34   C     C_R   0.559373 0.237357 0.522416 0.354434
C35   C     C_R   0.449821 0.850915 0.471027 0.285562
C36   C     C_R   0.551872 0.149738 0.530837 0.270201
C37   C     C_R   0.511947 0.889809 0.524046 0.104563
C38   C     C_R   0.478806 0.108727 0.491961 0.122673
C39   C     C_R   0.570364 0.839271 0.570788 -0.473863
C40   C     C_R   0.411936 0.157160 0.453926 -0.514235
C41   C     C_R   0.566277 0.752387 0.566283 0.526940
C42   C     C_R   0.413901 0.243846 0.458776 0.497206
N5    N     N_2   0.519629 0.977620 0.532503 -0.073570
N6    N     N_2   0.470529 0.020839 0.485558 -0.070359
H7    H     H_    0.618334 0.867513 0.611801 0.194277
H8    H     H_    0.356571 0.127199 0.421756 0.203713
O9    O     O_3   0.226072 0.525078 0.351178 -0.597264
C43   C     C_3   0.223613 0.611171 0.333943 0.156790
H9    H     H_    0.271957 0.642915 0.374633 0.187462
H10   H     H_    0.155317 0.636622 0.341003 0.142625
C44   C     C_3   0.249478 0.630202 0.247598 -0.787446
H11   H     H_    0.196054 0.606896 0.205831 0.270583
H12   H     H_    0.257172 0.697923 0.236176 0.200326
H13   H     H_    0.313775 0.600533 0.235656 0.247148
O10   O     O_3   0.771997 0.456620 0.646190 -0.609100
C45   C     C_3   0.761328 0.531736 0.683465 0.159460
H14   H     H_    0.701855 0.563673 0.655872 0.177504
H15   H     H_    0.821999 0.573679 0.679094 0.140337
C46   C     C_3   0.744575 0.513301 0.771794 -0.865359
H16   H     H_    0.807774 0.493658 0.804068 0.280736
H17   H     H_    0.720171 0.568935 0.799281 0.199169
H18   H     H_    0.693096 0.463142 0.778304 0.254391
O11   O     O_3   0.620111 0.105292 0.570152 -0.587716
C47   C     C_3   0.611596 0.110464 0.653654 0.134353
H19   H     H_    0.542243 0.091723 0.672205 0.131929
H20   H     H_    0.627432 0.174227 0.672341 0.171381
C48   C     C_3   0.677897 0.052593 0.697685 -0.837358
H21   H     H_    0.747727 0.068058 0.679350 0.252369
H22   H     H_    0.674219 0.058590 0.763340 0.209201
H23   H     H_    0.661104 0.987784 0.683717 0.252872
O12   O     O_3   0.385604 0.895677 0.426776 -0.594097
C49   C     C_3   0.303438 0.888767 0.466777 0.137023
H24   H     H_    0.310271 0.917908 0.525610 0.133658
H25   H     H_    0.280970 0.823016 0.476237 0.148921
C50   C     C_3   0.230960 0.933628 0.416118 -0.836695
H26   H     H_    0.221865 0.905396 0.357133 0.251708
H27   H     H_    0.165982 0.929099 0.447163 0.205675
H28   H     H_    0.250647 0.999773 0.406435 0.252970
O13   O     O_3   0.621985 0.702668 0.615202 -0.616002
C51   C     C_3   0.609130 0.714970 0.697452 0.071416
H29   H     H_    0.591672 0.654170 0.727142 0.164910
H30   H     H_    0.552639 0.756415 0.708984 0.128472
C52   C     C_3   0.696522 0.747996 0.737044 -0.372699
H31   H     H_    0.751651 0.704228 0.730029 0.223642
H32   H     H_    0.716737 0.808107 0.707558 0.222802
C53   C     C_3   0.684886 0.759658 0.826065 -0.964666
H33   H     H_    0.634165 0.807501 0.834065 0.267610
H34   H     H_    0.750221 0.779791 0.854205 0.274647
H35   H     H_    0.662282 0.700843 0.856744 0.259378
O14   O     O_3   0.344366 0.289954 0.423912 -0.578385
C54   C     C_3   0.261599 0.269051 0.460803 0.101253
H36   H     H_    0.252963 0.310280 0.510823 0.159542
H37   H     H_    0.256455 0.204471 0.486519 0.107859
C55   C     C_3   0.184042 0.281383 0.399074 -0.322113
H38   H     H_    0.187133 0.345425 0.372641 0.255890
H39   H     H_    0.190634 0.238364 0.350183 0.205592
C56   C     C_3   0.092922 0.264967 0.436758 -1.017724
H40   H     H_    0.086727 0.199423 0.458878 0.273278
H41   H     H_    0.037921 0.277770 0.391331 0.264722
H42   H     H_    0.085249 0.305230 0.487602 0.269200
O15   O     O_3   0.108508 0.418626 0.708622 -0.617891
C57   C     C_3   0.155587 0.344046 0.703702 0.030646
H43   H     H_    0.176897 0.332612 0.642086 0.125729
H44   H     H_    0.111860 0.290838 0.723239 0.124493
C58   C     C_3   0.239726 0.346693 0.759396 -0.285891
H45   H     H_    0.280411 0.403497 0.744799 0.235112
H46   H     H_    0.219050 0.348581 0.822493 0.226760
C59   C     C_3   0.298382 0.271892 0.751127 -0.964180
H47   H     H_    0.259487 0.213997 0.765615 0.260589
H48   H     H_    0.357941 0.275396 0.793183 0.282893
H49   H     H_    0.322610 0.270814 0.689083 0.258363
O16   O     O_3   0.889086 0.501837 0.280640 -0.624474
C60   C     C_3   0.834774 0.430473 0.266084 0.045069
H50   H     H_    0.812777 0.395833 0.321575 0.131860
H51   H     H_    0.873112 0.387046 0.231897 0.125457
C61   C     C_3   0.750983 0.456678 0.216022 -0.299789
H52   H     H_    0.717389 0.507356 0.244742 0.222992
H53   H     H_    0.772012 0.480568 0.156042 0.214494
C62   C     C_3   0.683192 0.385204 0.206803 -1.023041
H54   H     H_    0.715613 0.331715 0.181777 0.273343
H55   H     H_    0.626781 0.405367 0.165480 0.259315
H56   H     H_    0.655407 0.365898 0.265854 0.261599
O17   O     O_3   0.922417 0.416541 0.714446 -0.588803
C63   C     C_3   0.926219 0.331060 0.735644 0.137267
H57   H     H_    0.979996 0.321587 0.782969 0.167124
H58   H     H_    0.940467 0.292209 0.684466 0.089606
C64   C     C_3   0.836538 0.301424 0.770552 -0.318035
H59   H     H_    0.823159 0.337426 0.823258 0.232929
H60   H     H_    0.780568 0.311774 0.725559 0.260190
C65   C     C_3   0.838179 0.209843 0.796091 -1.016605
H61   H     H_    0.853388 0.172792 0.744416 0.265844
H62   H     H_    0.771246 0.189422 0.818364 0.269668
H63   H     H_    0.890067 0.198658 0.844799 0.272960
O18   O     O_3   0.074717 0.503137 0.274886 -0.593974
C66   C     C_3   0.067439 0.429707 0.232729 0.122550
H64   H     H_    0.010465 0.435382 0.188001 0.167985
H65   H     H_    0.056181 0.373012 0.272152 0.097232
C67   C     C_3   0.153833 0.419661 0.187455 -0.300044
H66   H     H_    0.164371 0.474182 0.145607 0.224448
H67   H     H_    0.212437 0.415835 0.230677 0.284481
C68   C     C_3   0.148833 0.342045 0.139561 -1.005794
H68   H     H_    0.144836 0.286163 0.180651 0.263995
H69   H     H_    0.210161 0.339117 0.103838 0.268022
H70   H     H_    0.088856 0.343108 0.097723 0.270848
O19   O     O_3   0.392015 0.391975 0.262276 -0.597018
C69   C     C_3   0.438995 0.319359 0.247496 0.155030
H71   H     H_    0.479110 0.300628 0.302547 0.173408
H72   H     H_    0.487097 0.326402 0.197560 0.105691
C70   C     C_3   0.371357 0.250182 0.227679 -0.347438
H73   H     H_    0.320866 0.243017 0.274857 0.254014
H74   H     H_    0.335544 0.266404 0.169764 0.215229
C71   C     C_3   0.418199 0.168220 0.221371 -0.955217
H75   H     H_    0.467637 0.173217 0.172937 0.266961
H76   H     H_    0.367203 0.119324 0.207241 0.270403
H77   H     H_    0.453783 0.150164 0.279001 0.273785
O20   O     O_3   0.370678 0.590050 0.719028 -0.633070
C72   C     C_3   0.365167 0.668509 0.751330 0.105630
H78   H     H_    0.429557 0.686874 0.782981 0.120734
H79   H     H_    0.308910 0.668150 0.793505 0.146818
C73   C     C_3   0.344843 0.732347 0.683101 -0.316760
H80   H     H_    0.396410 0.729501 0.637032 0.218001
H81   H     H_    0.277821 0.717874 0.654515 0.225565
C74   C     C_3   0.344884 0.819504 0.713304 -1.004675
H82   H     H_    0.292907 0.824063 0.758927 0.273610
H83   H     H_    0.329399 0.864225 0.662580 0.256968
H84   H     H_    0.412184 0.836058 0.740047 0.266089
O21   O     O_3   0.547768 0.348640 0.912448 -0.636178
C75   C     C_3   0.625869 0.383425 0.950125 0.074794
H85   H     H_    0.607931 0.409213 0.007596 0.152180
H86   H     H_    0.658240 0.433636 0.912304 0.127243
C76   C     C_3   0.694507 0.315777 0.968192 -0.313628
H87   H     H_    0.668017 0.270690 0.014367 0.223495
H88   H     H_    0.704630 0.282615 0.912898 0.233560
C77   C     C_3   0.785185 0.351351 0.998049 -0.999510
H89   H     H_    0.813495 0.395958 0.952462 0.267119
H90   H     H_    0.833522 0.300683 0.010124 0.271320
H91   H     H_    0.777074 0.383493 0.054070 0.272240
O22   O     O_3   0.568840 0.646297 0.089655 -0.638147
C78   C     C_3   0.635396 0.607790 0.046627 0.085371
H92   H     H_    0.610649 0.602260 0.983498 0.156186
H93   H     H_    0.652766 0.544909 0.071971 0.116595
C79   C     C_3   0.721625 0.661250 0.047103 -0.335293
H94   H     H_    0.706961 0.723271 0.019032 0.234411
H95   H     H_    0.745958 0.668793 0.110064 0.233241
C80   C     C_3   0.795628 0.622337 0.001420 -0.962346
H96   H     H_    0.813509 0.561380 0.030047 0.266041
H97   H     H_    0.856815 0.663191 0.001831 0.275788
H98   H     H_    0.772946 0.613978 0.938280 0.262957
O23   O     O_3   0.637307 0.276938 0.549431 -0.602697
C81   C     C_3   0.709637 0.260687 0.499482 0.159333
H99   H     H_    0.718877 0.313690 0.455625 0.146538
H100  H     H_    0.699598 0.204543 0.463939 0.127335
C82   C     C_3   0.795821 0.250386 0.551284 -0.322473
H101  H     H_    0.806076 0.304570 0.588270 0.246272
H102  H     H_    0.789092 0.194571 0.592061 0.238392
C83   C     C_3   0.878056 0.242638 0.500511 -1.020323
H103  H     H_    0.870370 0.187729 0.463609 0.279340
H104  H     H_    0.939059 0.235543 0.540523 0.267574
H105  H     H_    0.887082 0.298863 0.460602 0.267974
O24   O     O_3   0.404035 0.730537 0.400369 -0.636061
C84   C     C_3   0.449500 0.737927 0.327126 0.132593
H106  H     H_    0.428283 0.683620 0.293345 0.188926
H107  H     H_    0.524590 0.736021 0.334923 0.118010
C85   C     C_3   0.422148 0.814929 0.275858 -0.372401
H108  H     H_    0.348236 0.823535 0.278509 0.250753
H109  H     H_    0.458259 0.870077 0.298878 0.255516
C86   C     C_3   0.446613 0.807753 0.188590 -0.933573
H110  H     H_    0.520271 0.798628 0.184526 0.284600
H111  H     H_    0.428353 0.865210 0.153450 0.267693
H112  H     H_    0.409144 0.754974 0.162122 0.274757

loop_
_geom_bond_atom_site_label_1
_geom_bond_atom_site_label_2
_geom_bond_distance
_ccdc_geom_bond_type
C77   H90   1.110285 S    
C48   H21   1.109902 S    
C59   H49   1.111390 S    
C3    C8    1.422774 S    
O19   C69   1.420929 S    
C17   C19   1.403295 A    
C6    O10   1.383337 S    
C70   H74   1.109844 S    
C70   H73   1.107406 S    
C33   C35   1.415027 A    
C54   H36   1.110308 S    
N3    C41   1.367869 A    
C83   H105  1.110731 S    
O10   C45   1.412039 S    
C9    H1    1.083359 S    
C85   H108  1.111268 S    
C55   H38   1.108844 S    
C17   O15   1.388447 S    
C50   H28   1.110590 S    
C27   C29   1.399985 A    
O2    C2    1.300663 A    
C82   H101  1.104713 S    
C71   H75   1.110894 S    
C28   N2    1.406241 S    
C82   C83   1.522850 S    
C58   H45   1.110418 S    
C79   H95   1.111729 S    
C75   C76   1.527160 S    
O1    C1    1.291220 A    
C23   O20   1.393080 S    
C12   C14   1.411644 A    
C75   H86   1.115440 S    
C9    C11   1.385248 A    
C47   H20   1.112943 S    
C84   C85   1.533266 S    
C56   H41   1.109860 S    
Zn2   N3    2.017069 S    
C62   H56   1.111134 S    
C5    C15   1.407735 A    
C77   H91   1.106879 S    
C66   H65   1.116743 S    
C53   H33   1.110861 S    
C38   C40   1.395379 A    
O17   C63   1.416031 S    
C19   O17   1.386071 S    
C29   O21   1.383666 S    
C40   C42   1.412636 A    
O4    Zn1   1.959417 S    
O14   C54   1.419772 S    
C49   H24   1.113127 S    
C35   O12   1.381910 S    
C67   C68   1.525422 S    
C7    C9    1.381979 A    
C48   H23   1.109090 S    
C52   H32   1.109670 S    
C34   O23   1.380461 S    
C64   H59   1.108402 S    
C71   H76   1.110336 S    
C43   H9    1.105934 S    
C72   H79   1.111853 S    
C65   H63   1.110720 S    
C1    C21   1.447179 S    
C4    C7    1.425260 S    
C78   C79   1.526982 S    
C13   C14   1.393202 A    
C47   C48   1.520837 S    
C37   N5    1.440337 S    
O22   C78   1.418444 S    
C44   H13   1.108157 S    
C36   C38   1.412422 A    
C52   C53   1.526467 S    
C22   C24   1.409719 A    
C73   C74   1.525842 S    
C27   N1    1.400094 S    
C33   O24   1.376794 S    
C28   C30   1.407196 A    
C77   H89   1.110433 S    
C11   C17   1.410961 A    
C40   H8    1.083306 S    
C78   H92   1.111727 S    
C12   C18   1.410246 A    
C59   H47   1.110698 S    
C66   C67   1.528421 S    
C67   H67   1.110362 S    
C29   C31   1.388351 A    
C69   H71   1.110556 S    
C41   O13   1.385101 S    
C30   C32   1.393206 A    
C63   C64   1.528784 S    
C49   H25   1.114949 S    
O24   C84   1.417943 S    
C68   H69   1.109721 S    
N4    C34   1.373345 A    
C68   H68   1.111028 S    
C82   H102  1.110138 S    
C6    C16   1.406475 A    
C34   C36   1.423528 A    
C39   C41   1.415388 A    
C79   H94   1.111616 S    
N5    N6    1.251110 D    
C76   H87   1.111656 S    
C21   C31   1.398708 A    
C83   H103  1.110562 S    
C30   O22   1.385235 S    
C69   H72   1.117674 S    
C22   C32   1.400155 A    
C45   H14   1.108055 S    
C63   H58   1.117785 S    
C74   H84   1.110761 S    
O12   C49   1.410832 S    
C46   H17   1.108349 S    
C31   H5    1.084152 S    
C38   N6    1.437440 S    
C80   H96   1.110536 S    
C79   C80   1.527410 S    
C49   C50   1.520386 S    
O9    C43   1.413068 S    
C85   H109  1.109682 S    
C75   H85   1.111206 S    
N3    C33   1.372118 A    
C61   C62   1.525597 S    
O5    C3    1.285379 A    
O7    Zn2   1.989059 S    
C76   H88   1.109928 S    
C74   H82   1.110701 S    
C84   H106  1.103728 S    
C60   C61   1.529272 S    
Zn1   N4    2.017068 S    
C86   H110  1.111055 S    
C42   O14   1.383055 S    
C20   O18   1.385815 S    
O6    C4    1.289285 A    
C72   C73   1.527960 S    
C5    O9    1.383796 S    
C64   C65   1.525656 S    
C51   H30   1.115813 S    
O23   C81   1.421518 S    
O18   C66   1.414901 S    
N1    N2    1.245519 D    
C54   H37   1.114097 S    
C6    C8    1.399869 A    
C47   H19   1.115652 S    
C25   H4    1.081485 S    
O7    C3    1.287957 A    
O15   C57   1.419873 S    
O3    Zn2   1.959417 S    
O8    C4    1.285736 A    
C16   C19   1.416955 A    
C61   H53   1.109252 S    
O20   C72   1.413532 S    
C86   H111  1.110294 S    
C10   C12   1.384268 A    
C81   H99   1.110489 S    
C81   H100  1.116779 S    
C35   C37   1.414245 A    
C60   H50   1.114867 S    
C70   C71   1.526140 S    
C65   H62   1.109911 S    
O11   C47   1.413329 S    
O4    C2    1.287977 A    
O1    Zn1   1.981809 S    
C86   H112  1.111077 S    
C57   H44   1.109627 S    
C85   C86   1.527299 S    
C52   H31   1.109782 S    
C68   H70   1.110890 S    
C73   H80   1.108726 S    
C36   O11   1.383992 S    
C60   H51   1.109977 S    
C13   C15   1.420239 A    
C10   H2    1.082661 S    
C80   H98   1.109889 S    
C32   H6    1.083311 S    
C15   C20   1.417693 A    
C5    C7    1.400099 A    
C50   H27   1.110398 S    
O6    Zn2   2.003583 S    
C73   H81   1.111700 S    
C23   C25   1.399496 A    
C14   C16   1.420188 A    
C45   H15   1.116661 S    
C63   H57   1.110232 S    
O3    C1    1.293458 A    
O8    Zn1   1.989061 S    
C59   H48   1.110511 S    
C46   H18   1.105814 S    
C55   H39   1.110266 S    
C62   H54   1.110290 S    
C71   H77   1.110810 S    
C18   C20   1.401738 A    
C81   C82   1.524954 S    
C64   H60   1.109434 S    
O13   C51   1.420042 S    
C26   H3    1.083566 S    
C84   H107  1.117401 S    
C57   C58   1.530021 S    
C11   C13   1.411856 A    
C50   H26   1.110728 S    
C76   C77   1.526792 S    
O21   C75   1.416348 S    
C25   C27   1.401119 A    
N4    C42   1.370042 A    
C56   H40   1.110772 S    
C39   H7    1.079668 S    
C26   C28   1.401812 A    
C62   H55   1.109996 S    
C67   H66   1.111085 S    
C53   H34   1.110301 S    
C43   C44   1.521806 S    
C24   C26   1.384353 A    
C51   H29   1.110570 S    
C21   C23   1.407922 A    
C56   H42   1.109097 S    
O16   C60   1.419884 S    
C54   C55   1.526581 S    
C8    C10   1.379635 A    
C51   C52   1.530516 S    
O2    Zn2   1.981806 S    
C78   H93   1.117180 S    
C55   C56   1.523702 S    
C37   C39   1.397850 A    
C46   H16   1.109586 S    
C2    C22   1.453026 S    
O5    Zn1   2.003582 S    
C45   C46   1.519957 S    
C44   H11   1.108654 S    
C69   C70   1.527228 S    
C43   H10   1.115941 S    
C72   H78   1.115749 S    
C58   C59   1.525977 S    
C44   H12   1.109481 S    
C66   H64   1.109768 S    
C58   H46   1.111534 S    
C48   H22   1.110373 S    
C65   H61   1.110441 S    
C61   H52   1.110792 S    
C74   H83   1.108900 S    
C18   O16   1.388288 S    
C57   H43   1.114495 S    
C80   H97   1.110166 S    
C24   O19   1.384078 S    
C83   H104  1.109808 S    
C53   H35   1.110344 S    
