data_mof_unit_46690.cif
_audit_creation_date              2012-12-10T18:58:14-0500
_audit_creation_method            fapswitch 2.2
_symmetry_space_group_name_H-M    P1
_symmetry_Int_Tables_number       1
_space_group_crystal_system       triclinic
_cell_length_a                    11.048738
_cell_length_b                    10.796485
_cell_length_c                    9.574282
_cell_angle_alpha                 90.233515
_cell_angle_beta                  103.03824
_cell_angle_gamma                 90.431577
_cell_volume                      1112.59790426

loop_
_atom_site_label
_atom_site_type_symbol
_atom_type_description
_atom_site_fract_x
_atom_site_fract_y
_atom_site_fract_z
_atom_type_partial_charge
C1    C     C_R   0.501760 0.262525 0.500474 0.805344
C2    C     C_R   0.511745 0.129488 0.505135 -0.083555
C3    C     C_R   0.564971 0.064902 0.406782 -0.224657
C4    C     C_R   0.564613 0.935657 0.406854 -0.231517
C5    C     C_R   0.511469 0.871010 0.505574 -0.091222
C6    C     C_R   0.474973 0.936810 0.614597 0.118550
C7    C     C_3   0.355597 0.930343 0.663073 -0.474744
C8    C     C_3   0.356422 0.070942 0.663431 -0.472678
C9    C     C_R   0.587878 0.565582 0.096757 0.239115
C10   C     C_R   0.420873 0.424982 0.051035 0.046312
C11   C     C_R   0.421507 0.425974 0.903005 -0.120139
C12   C     C_R   0.262751 0.500103 0.441597 0.870092
C13   C     C_R   0.588274 0.565070 0.949774 0.256636
C14   C     C_3   0.612185 0.701054 0.950082 -0.495270
C15   C     C_3   0.610090 0.701940 0.107909 -0.518357
C16   C     C_R   0.501680 0.737603 0.500799 0.794463
C17   C     C_R   0.737260 0.500003 0.558453 0.857740
C18   C     C_2   0.127471 0.501160 0.408838 -0.358052
C19   C     C_2   0.067483 0.498546 0.515477 -0.156195
C20   C     C_2   0.872566 0.499320 0.591448 -0.357952
C21   C     C_2   0.932624 0.500377 0.484826 -0.154930
C22   C     C_R   0.475252 0.064247 0.614362 0.132816
Cu1   Cu    Cu3+1 0.499990 0.499980 0.640670 0.936166
Cu2   Cu    Cu3+1 0.500010 0.500020 0.359330 0.941654
H1    H     H_    0.882154 0.502513 0.373289 0.177575
H2    H     H_    0.369978 0.111890 0.772684 0.196906
H3    H     H_    0.356929 0.367874 0.828305 0.144421
H4    H     H_    0.705133 0.723226 0.929912 0.191267
H5    H     H_    0.533940 0.753019 0.883372 0.217204
H6    H     H_    0.701475 0.725991 0.179093 0.189739
H7    H     H_    0.529300 0.753048 0.129599 0.214586
H8    H     H_    0.117965 0.495067 0.626943 0.179955
H9    H     H_    0.923264 0.497552 0.702835 0.144367
H10   H     H_    0.076641 0.504814 0.297666 0.141567
H11   H     H_    0.603315 0.113733 0.327921 0.153749
H12   H     H_    0.602835 0.886960 0.328103 0.155971
H13   H     H_    0.278338 0.889003 0.580717 0.195352
H14   H     H_    0.367544 0.890580 0.772116 0.193716
H15   H     H_    0.279478 0.111589 0.581558 0.196216
N1    N     N_R   0.500780 0.500930 0.148120 -0.203674
N2    N     N_R   0.500790 0.500890 0.852210 -0.190372
O1    O     O_R   0.500000 0.319640 0.618810 -0.583455
O2    O     O_R   0.500010 0.319680 0.381230 -0.580361
O3    O     O_R   0.320680 0.500000 0.575130 -0.585156
O4    O     O_R   0.320690 0.500040 0.337550 -0.574427
O5    O     O_R   0.499990 0.680320 0.618770 -0.580736
O6    O     O_R   0.500000 0.680360 0.381190 -0.587135
O7    O     O_R   0.679310 0.499960 0.662450 -0.580924
O8    O     O_R   0.679320 0.500000 0.424870 -0.582984
C23   C     C_R   0.331222 0.339554 0.093395 0.176747
C24   C     C_R   0.207738 0.376065 0.082490 -0.141404
C25   C     C_R   0.120031 0.291459 0.111111 -0.157586
C26   C     C_R   0.154102 0.169098 0.146219 -0.118316
C27   C     C_R   0.275141 0.130485 0.149515 -0.148392
C28   C     C_R   0.362695 0.214802 0.120190 -0.137014
H16   H     H_    0.179877 0.470146 0.053117 0.117057
H17   H     H_    0.025526 0.320602 0.105369 0.125464
H18   H     H_    0.086217 0.103756 0.168516 0.125583
H19   H     H_    0.300823 0.035033 0.173387 0.139392
H20   H     H_    0.455063 0.183192 0.118390 0.115484

loop_
_geom_bond_atom_site_label_1
_geom_bond_atom_site_label_2
_ccdc_geom_bond_type
C2    C22   A    
C8    C22   S    
C26   H18   S    
C4    H12   S    
C15   H7    S    
C6    C7    S    
C12   O4    A    
C8    H15   S    
C11   H3    S    
C8    H2    S    
C23   C28   A    
Cu1   N2    S    
C17   O7    A    
C3    H11   S    
Cu1   Cu2   S    
C19   H8    S    
C6    C22   A    
C13   N2    A    
C23   C24   A    
C7    H13   S    
C7    C8    S    
C12   O3    A    
Cu1   O5    S    
C28   H20   S    
C20   C21   D    
C18   H10   S    
Cu1   O1    S    
Cu2   N1    S    
C20   H9    S    
C16   O6    A    
C19   C21   S    
C7    H14   S    
C11   N2    A    
C2    C3    A    
C27   H19   S    
C9    C15   S    
C5    C6    A    
C10   C11   A    
Cu2   O4    S    
C14   H5    S    
C12   C18   S    
C3    C4    A    
C10   C23   S    
C1    O1    A    
C17   C20   S    
C25   C26   A    
C15   H6    S    
C10   N1    A    
C1    C2    S    
C25   H17   S    
C16   O5    A    
Cu2   O8    S    
Cu2   O2    S    
C9    C13   A    
C27   C28   A    
C18   C19   D    
C5    C16   S    
C21   H1    S    
Cu1   O7    S    
C13   C14   S    
C14   H4    S    
C14   C15   S    
Cu2   O6    S    
C1    O2    A    
C9    N1    A    
C17   O8    A    
Cu1   O3    S    
C24   C25   A    
C26   C27   A    
C4    C5    A    
C24   H16   S    
