data_mof_unit_52718.cif
_audit_creation_date              2012-12-11T14:32:49-0500
_audit_creation_method            fapswitch 2.2
_symmetry_space_group_name_H-M    P1
_symmetry_Int_Tables_number       1
_space_group_crystal_system       triclinic
_cell_length_a                    6.952653
_cell_length_b                    13.8113
_cell_length_c                    17.98255
_cell_angle_alpha                 112.269421
_cell_angle_beta                  95.373383
_cell_angle_gamma                 90.193872
_cell_volume                      1589.54201873

loop_
_atom_site_label
_atom_site_type_symbol
_atom_type_description
_atom_site_fract_x
_atom_site_fract_y
_atom_site_fract_z
_atom_type_partial_charge
O1    O     O_R   0.484560 0.544530 0.414330 -0.535797
O2    O     O_R   0.197040 0.638810 0.585080 -0.523364
O3    O     O_R   0.026800 0.455470 0.585670 -0.548577
C1    C     C_R   0.373270 0.679604 0.608605 0.731881
O4    O     O_R   0.155000 0.556150 0.414940 -0.544531
O5    O     O_R   0.984450 0.372220 0.414320 -0.498308
C2    C     C_R   0.317775 0.564911 0.386707 0.750858
O6    O     O_R   0.526900 0.627780 0.585680 -0.506476
O7    O     O_3   0.339170 0.439750 0.499990 -0.373010
V1    V     V_3+5 0.064350 0.511180 0.500000 1.534980
O8    O     O_R   0.654880 0.361190 0.414920 -0.538365
C3    C     C_R   0.817611 0.324692 0.386421 0.786365
O9    O     O_R   0.696930 0.443850 0.585060 -0.551473
C4    C     C_R   0.873159 0.432312 0.611583 0.703321
V2    V     V_3+5 0.564340 0.488820 0.500000 1.511815
O10   O     O_3   0.839390 0.560250 0.500010 -0.327830
C5    C     C_R   0.042561 0.861812 0.823128 -0.111986
C6    C     C_R   0.906424 0.395425 0.678511 -0.123008
C7    C     C_R   0.921604 0.822700 0.683943 0.599622
C8    C     C_R   0.973017 0.789657 0.746881 -0.239375
C9    C     C_R   0.056724 0.968844 0.836429 -0.217155
C10   C     C_R   0.001228 0.005031 0.773222 0.018770
C11   C     C_R   0.935031 0.929020 0.696144 0.004478
C12   C     C_R   0.005153 0.113468 0.783893 0.111861
C13   C     C_R   0.946004 0.143325 0.717029 0.107952
C14   C     C_R   0.885350 0.063754 0.641694 -0.206234
C15   C     C_R   0.879914 0.959307 0.631745 -0.172300
C16   C     C_R   0.061087 0.193202 0.859706 -0.222236
C17   C     C_R   0.058301 0.297834 0.870413 -0.180677
C18   C     C_R   0.008364 0.328058 0.805674 0.012119
C19   C     C_R   0.948924 0.251839 0.727877 0.023138
C20   C     C_R   0.020751 0.434531 0.818291 0.602055
C21   C     C_R   0.972107 0.467663 0.755245 -0.234545
C22   C     C_R   0.896749 0.288064 0.664470 -0.223141
H1    H     H_    0.829619 0.901629 0.572606 0.173916
H2    H     H_    0.852011 0.235523 0.603424 0.109801
H3    H     H_    0.986671 0.550173 0.766329 0.109255
H4    H     H_    0.098049 0.355871 0.930525 0.181354
H5    H     H_    0.956496 0.707352 0.736204 0.111730
H6    H     H_    0.107561 0.021241 0.896827 0.114929
H7    H     H_    0.838149 0.079445 0.588811 0.125748
H8    H     H_    0.104700 0.177741 0.912999 0.128554
H9    H     H_    0.834751 0.035328 0.194152 0.118047
C23   C     C_2   0.135405 0.036761 0.183143 -0.285595
C24   C     C_2   0.973373 0.077933 0.216677 -0.235750
H10   H     H_    0.678140 0.177963 0.295276 0.107357
C25   C     C_2   0.815742 0.221445 0.318444 -0.441547
C26   C     C_2   0.978536 0.180833 0.284547 0.635531
H11   H     H_    0.274087 0.079134 0.205937 0.176683
C27   C     C_R   0.406770 0.785212 0.675010 -0.105734
C28   C     C_R   0.540119 0.472572 0.827770 -0.039714
C29   C     C_R   0.530606 0.884106 0.813804 0.593227
C30   C     C_R   0.474800 0.789168 0.751474 -0.238259
C31   C     C_R   0.393815 0.880539 0.662042 -0.214145
C32   C     C_R   0.450337 0.979975 0.726005 0.017296
C33   C     C_R   0.522082 0.978424 0.801827 0.010545
C34   C     C_R   0.442120 0.080498 0.718142 0.101214
C35   C     C_R   0.504856 0.176113 0.786013 0.082253
C36   C     C_R   0.593352 0.165357 0.855733 -0.220046
C37   C     C_R   0.594063 0.070344 0.864805 -0.166184
C38   C     C_R   0.378537 0.088288 0.644295 -0.179725
C39   C     C_R   0.378383 0.184075 0.635923 -0.200843
C40   C     C_R   0.433955 0.277395 0.701266 0.085382
C41   C     C_R   0.490816 0.277697 0.779397 0.066827
C42   C     C_R   0.430563 0.370682 0.687707 -0.137972
C43   C     C_R   0.488363 0.465852 0.749178 -0.204248
C44   C     C_R   0.527386 0.379896 0.845260 0.117976
H12   H     H_    0.661136 0.068595 0.921148 0.173259
H13   H     H_    0.486839 0.535740 0.735555 0.100123
H14   H     H_    0.331783 0.185188 0.577005 0.125832
H15   H     H_    0.488315 0.717817 0.762800 0.106421
H16   H     H_    0.343077 0.874413 0.601878 0.116569
H17   H     H_    0.675853 0.228149 0.903009 0.156799
H18   H     H_    0.330454 0.020835 0.590970 0.126537
H19   H     H_    0.385177 0.369813 0.628170 0.146900
H20   H     H_    0.614245 0.590452 0.307542 0.121597
C45   C     C_2   0.314004 0.602003 0.319325 -0.288031
C46   C     C_2   0.475559 0.610643 0.285317 -0.234931
H21   H     H_    0.770120 0.635681 0.206570 0.109255
C47   C     C_2   0.632319 0.655777 0.183535 -0.431711
C48   C     C_2   0.469779 0.647096 0.217407 0.638250
H22   H     H_    0.175338 0.621804 0.296835 0.177245
O11   O     O_R   0.421600 0.630430 0.917010 -0.512985
O12   O     O_R   0.793840 0.702190 0.087630 -0.536611
O13   O     O_R   0.964010 0.886170 0.088190 -0.543656
C49   C     C_R   0.630754 0.693129 0.115961 0.772521
O14   O     O_R   0.751460 0.619510 0.917500 -0.520618
O15   O     O_R   0.921330 0.802900 0.916840 -0.506050
C50   C     C_R   0.574719 0.580240 0.891895 0.710623
O16   O     O_R   0.464290 0.713700 0.088350 -0.501217
O17   O     O_3   0.609200 0.818520 0.002630 -0.340969
V3    V     V_3+5 0.884140 0.747190 0.002530 1.611573
O18   O     O_R   0.251150 0.814630 0.917340 -0.525994
C51   C     C_R   0.075053 0.825559 0.890505 0.733776
O19   O     O_R   0.293530 0.897310 0.087470 -0.551845
C52   C     C_R   0.131168 0.933660 0.115743 0.725747
V4    V     V_3+5 0.384070 0.769710 0.002370 1.600155
O20   O     O_3   0.109180 0.698190 0.002460 -0.312308
F1    F     F_    0.085066 0.506599 0.891871 -0.687636
F2    F     F_    0.152729 0.234059 0.311948 -0.678965
C53   C     C_3   0.524110 0.397017 0.933527 -0.789280
H23   H     H_    0.441362 0.333979 0.941840 0.211057
H24   H     H_    0.674028 0.406729 0.963418 0.199212
H25   H     H_    0.446326 0.468393 0.965901 0.229245
F3    F     F_    0.597103 0.884092 0.886700 -0.687121
F4    F     F_    0.295316 0.672303 0.189975 -0.676289
F5    F     F_    0.854461 0.750673 0.610793 -0.685171

loop_
_geom_bond_atom_site_label_1
_geom_bond_atom_site_label_2
_ccdc_geom_bond_type
C23   H11   S    
C13   C19   A    
C32   C33   A    
C40   C42   A    
C30   H15   S    
O18   C51   A    
C4    C6    S    
O2    C1    A    
O19   C52   A    
C1    O6    A    
V4    O20   S    
V3    O20   S    
C45   C46   D    
C23   C24   D    
C14   C15   A    
C27   C31   A    
C9    C10   A    
C16   C17   A    
O12   C49   A    
O5    C3    A    
C18   C19   A    
O13   C52   A    
C43   H13   S    
V2    O10   S    
C5    C8    A    
C39   H14   S    
C47   C49   S    
H10   C25   S    
O8    V2    S    
O15   V3    S    
C17   H4    S    
O1    V2    S    
C11   C15   A    
O7    V1    S    
C36   H17   S    
O16   V4    S    
C2    C45   S    
C36   C37   A    
C53   H24   S    
O9    C4    A    
C3    C25   S    
C26   F2    S    
O13   V3    S    
C35   C41   A    
O11   C50   A    
O15   C51   A    
C27   C30   A    
C53   H23   S    
C12   C13   A    
C49   O16   A    
O17   V3    S    
O4    C2    A    
C8    H5    S    
C15   H1    S    
C35   C36   A    
C21   H3    S    
C33   C37   A    
C1    C27   S    
C28   C43   A    
C7    C11   A    
C41   C44   A    
C17   C18   A    
C23   C52   S    
C6    C22   A    
C25   C26   D    
O9    V2    S    
C39   C40   A    
C19   C22   A    
C28   C44   A    
O17   V4    S    
H9    C24   S    
O3    C4    A    
C29   F3    S    
C53   H25   S    
O14   C50   A    
C10   C12   A    
H21   C47   S    
O2    V1    S    
O18   V4    S    
O14   V3    S    
C29   C30   A    
C44   C53   S    
C24   C26   S    
C31   C32   A    
O1    C2    A    
C12   C16   A    
H20   C46   S    
C47   C48   D    
O5    V1    S    
O8    C3    A    
O19   V4    S    
C34   C38   A    
C38   H18   S    
O6    V2    S    
C42   H19   S    
C20   F1    S    
C20   C21   A    
C7    C8    A    
C32   C34   A    
C13   C14   A    
O4    V1    S    
O3    V1    S    
V1    O10   S    
C28   C50   S    
C18   C20   A    
C46   C48   S    
C34   C35   A    
C9    H6    S    
C45   H22   S    
C16   H8    S    
C22   H2    S    
O7    V2    S    
C38   C39   A    
C6    C21   A    
C5    C9    A    
C40   C41   A    
C31   H16   S    
C37   H12   S    
C42   C43   A    
O11   V4    S    
C10   C11   A    
C5    C51   S    
O12   V3    S    
C48   F4    S    
C29   C33   A    
C14   H7    S    
C7    F5    S    
