data_mof_unit_26079.cif
_audit_creation_date              2013-03-05T16:00:50-0500
_audit_creation_method            fapswitch 2.2
_symmetry_space_group_name_H-M    P1
_symmetry_Int_Tables_number       1
_space_group_crystal_system       triclinic
_cell_length_a                    8.249769
_cell_length_b                    13.004325
_cell_length_c                    18.702097
_cell_angle_alpha                 99.606733
_cell_angle_beta                  90.733121
_cell_angle_gamma                 98.610906
_cell_volume                      1954.50519194

loop_
_atom_site_label
_atom_site_type_symbol
_atom_site_description
_atom_site_fract_x
_atom_site_fract_y
_atom_site_fract_z
_atom_type_partial_charge
P1    P     P_3+3 0.041040 0.394770 0.336330 0.525085
O1    O     O_2   0.873090 0.425890 0.325140 -0.306339
O2    O     O_3   0.122420 0.434370 0.414380 -0.365644
O3    O     O_3   0.659500 0.627100 0.368810 -0.296750
O4    O     O_2   0.785789 0.546722 0.248610 -0.288797
O5    O     O_3   0.990377 0.257112 0.323665 -0.581664
O6    O     O_3   0.706883 0.734002 0.251051 -0.462357
H1    H     H_    0.662043 0.824947 0.347922 0.076656
C1    C     C_3   0.636220 0.908049 0.259137 -0.106776
H2    H     H_    0.562207 0.963435 0.290400 0.084845
H3    H     H_    0.766054 0.945128 0.265765 0.137266
P2    P     P_3+3 0.672880 0.754030 0.556100 0.499877
P3    P     P_3+3 0.134444 0.823266 0.406531 0.488848
O7    O     O_2   0.848200 0.768190 0.534530 -0.357120
O8    O     O_3   0.081160 0.685950 0.404810 -0.288075
O9    O     O_2   0.025564 0.874502 0.464103 -0.361279
O10   O     O_3   0.674383 0.776582 0.651539 -0.562734
O11   O     O_3   0.045860 0.852129 0.327608 -0.546583
C2    C     C_3   0.153919 0.849096 0.269829 0.817542
H4    H     H_    0.273601 0.898492 0.287710 -0.093137
C3    C     C_3   0.075919 0.892607 0.208826 -0.787582
H5    H     H_    0.965896 0.836940 0.185379 0.296225
H6    H     H_    0.037583 0.969609 0.228889 0.206049
C4    C     C_3   0.250583 0.783234 0.622732 0.458472
H7    H     H_    0.343960 0.737824 0.597320 0.092201
H8    H     H_    0.148740 0.779845 0.582691 0.122413
C5    C     C_3   0.329590 0.897729 0.647038 -0.919385
H9    H     H_    0.455246 0.901516 0.670071 0.266230
H10   H     H_    0.335064 0.941156 0.600750 0.228399
H11   H     H_    0.257687 0.938029 0.689577 0.311145
Ba1   Ba    Ba6+2 0.852780 0.548340 0.465070 1.686905
C6    C     C_3   0.960013 0.225654 0.390868 0.460757
H12   H     H_    0.863984 0.266705 0.418205 0.094896
H13   H     H_    0.072599 0.244624 0.425965 0.128145
C7    C     C_3   0.905203 0.106767 0.379559 -1.014280
H14   H     H_    0.964067 0.067073 0.332493 0.269992
H15   H     H_    0.770957 0.087807 0.369156 0.258828
H16   H     H_    0.939261 0.074129 0.427793 0.251357
C8    C     C_3   0.756272 0.704604 0.680073 0.346553
H17   H     H_    0.861636 0.686092 0.647178 0.086321
H18   H     H_    0.670174 0.630492 0.680505 0.109124
C9    C     C_3   0.822048 0.753969 0.757368 -0.306399
H19   H     H_    0.943641 0.732732 0.768186 0.155578
H20   H     H_    0.836608 0.841206 0.766000 0.229831
P4    P     P_3+3 0.148670 0.605320 0.663680 0.453689
O12   O     O_2   0.316610 0.574140 0.674900 -0.344036
O13   O     O_3   0.067290 0.565720 0.585630 -0.415948
O14   O     O_3   0.530210 0.372990 0.631200 -0.362909
O15   O     O_3   0.189470 0.743193 0.683425 -0.572737
P5    P     P_3+3 0.069705 0.182411 0.601043 0.492339
O16   O     O_3   0.611340 0.366290 0.463630 -0.309914
O17   O     O_3   0.108550 0.314140 0.595200 -0.389113
O18   O     O_2   0.195774 0.128114 0.554029 -0.360430
O19   O     O_3   0.128744 0.174630 0.689967 -0.466665
Ba2   Ba    Ba6+2 0.337060 0.451750 0.534940 1.617123
P6    P     P_3+3 0.646378 0.609283 0.274132 0.624651
C10   C     C_3   0.615582 0.805646 0.290423 0.277391
H21   H     H_    0.483288 0.773248 0.289259 0.030520
O20   O     O_3   0.578370 0.633800 0.536380 -0.349534
C11   C     C_3   0.411559 0.216583 0.310516 0.724907
H22   H     H_    0.346742 0.277811 0.340634 0.083515
C12   C     C_3   0.285665 0.121852 0.282054 -1.063683
H23   H     H_    0.232329 0.087142 0.328033 0.241284
H24   H     H_    0.187915 0.145262 0.249718 0.265471
H25   H     H_    0.344771 0.062294 0.247076 0.306666
P7    P     P_3+3 0.525917 0.230819 0.445201 0.462588
O21   O     O_2   0.341510 0.231850 0.465510 -0.399864
O22   O     O_3   0.533466 0.185176 0.351512 -0.587618
H26   H     H_    0.162357 0.902294 0.164761 0.273777
C13   C     C_3   0.051572 0.245260 0.738041 0.513659
H27   H     H_    0.109506 0.327750 0.736940 0.112312
H28   H     H_    0.918432 0.236370 0.724265 -0.032523
C14   C     C_3   0.071463 0.222422 0.814532 -0.898536
H29   H     H_    0.201708 0.244161 0.833875 0.291368
H30   H     H_    0.996258 0.268958 0.851964 0.201828
H31   H     H_    0.030272 0.137350 0.815456 0.282523
P8    P     P_3+3 0.546270 0.386203 0.724888 0.472335
C15   C     C_3   0.543695 0.183533 0.713085 0.351495
H32   H     H_    0.646353 0.210339 0.679417 -0.011501
O23   O     O_2   0.427172 0.461834 0.756008 -0.366968
O24   O     O_3   0.462814 0.264844 0.748205 -0.504512
H33   H     H_    0.453634 0.126458 0.676155 0.138847
H34   H     H_    0.704923 0.181793 0.805290 0.160636
C16   C     C_3   0.610789 0.126712 0.769354 -0.296842
H35   H     H_    0.668214 0.060044 0.741534 0.155584
C17   C     C_R   0.002651 0.424720 0.042784 0.058296
C18   C     C_R   0.913572 0.367807 0.091527 -0.165935
C19   C     C_R   0.775776 0.385356 0.947984 -0.174514
C20   C     C_R   0.937700 0.430291 0.972145 0.059191
C21   C     C_R   0.715143 0.392208 0.879421 -0.168948
C22   C     C_R   0.814486 0.440557 0.830239 -0.009883
C23   C     C_R   0.973979 0.491605 0.853737 0.027516
C24   C     C_R   0.034181 0.488078 0.925274 0.049585
C25   C     C_R   0.759235 0.439657 0.758351 0.180681
C26   C     C_R   0.866500 0.483084 0.709557 -0.508251
C27   C     C_R   0.021371 0.540267 0.732338 0.201478
C28   C     C_R   0.072374 0.548084 0.806423 -0.046502
C29   C     C_R   0.162303 0.478196 0.065894 0.074397
C30   C     C_R   0.226366 0.478711 0.137749 0.059155
C31   C     C_R   0.122927 0.432053 0.188251 -0.006542
C32   C     C_R   0.971333 0.372990 0.162593 -0.042838
H36   H     H_    0.824900 0.477632 0.653781 0.171528
H37   H     H_    0.589365 0.357361 0.865598 0.191498
H38   H     H_    0.895434 0.329109 0.197187 0.180058
C33   C     C_R   0.216061 0.613094 0.835685 -0.038376
C34   C     C_R   0.271804 0.612370 0.906131 -0.131349
C35   C     C_R   0.190265 0.543430 0.949591 0.047534
C36   C     C_R   0.257813 0.532443 0.017693 0.022954
C37   C     C_R   0.423257 0.568449 0.036418 -0.197107
C38   C     C_R   0.391908 0.526975 0.158810 -0.085209
C39   C     C_R   0.492392 0.564128 0.103726 0.291269
C40   C     C_R   0.443728 0.536798 0.233248 0.076929
C41   C     C_R   0.333552 0.496174 0.282653 0.022493
C42   C     C_R   0.174111 0.444953 0.262539 0.103737
H39   H     H_    0.285911 0.666431 0.804931 0.189296
H40   H     H_    0.690502 0.345950 0.981448 0.148943
H41   H     H_    0.796238 0.319584 0.076879 0.149910
H42   H     H_    0.377539 0.669230 0.926732 0.176096
H43   H     H_    0.504906 0.595397 0.996465 0.166790
C43   C     C_R   0.761396 0.185696 0.537654 -0.516556
C44   C     C_R   0.436384 0.816159 0.474511 -0.459596
C45   C     C_R   0.410079 0.987133 0.449267 -0.207271
C46   C     C_R   0.348432 0.879726 0.441868 0.123120
C47   C     C_R   0.582247 0.854821 0.515493 0.275745
C48   C     C_R   0.646128 0.966260 0.526133 -0.118558
C49   C     C_R   0.557779 0.032146 0.490254 -0.058306
C50   C     C_R   0.616289 0.142518 0.497820 0.258315
C51   C     C_R   0.855125 0.123102 0.568639 0.136875
C52   C     C_R   0.792480 0.016606 0.569285 0.134120
H44   H     H_    0.336558 0.035428 0.425797 0.169727
H45   H     H_    0.807890 0.268696 0.540606 0.161879
H46   H     H_    0.380808 0.736642 0.474517 0.197956
I1    I     I_    0.667038 0.705446 0.838970 -0.339174
N1    N     N_R   0.587317 0.889742 0.182136 0.304799
O25   O     O_R   0.681061 0.847442 0.134131 -0.312093
O26   O     O_R   0.469852 0.934555 0.160189 -0.371630
I2    I     I_    0.524456 0.269175 0.217978 -0.364016
N2    N     N_R   0.178960 0.741577 0.240496 0.198748
O27   O     O_R   0.085751 0.661166 0.258537 -0.344522
O28   O     O_R   0.270998 0.726361 0.184994 -0.432121
I3    I     I_    0.423869 0.064875 0.835652 -0.290419
I4    I     I_    0.751729 0.607945 0.100510 -0.213441
N3    N     N_R   0.389875 0.499991 0.354814 0.238260
O29   O     O_R   0.503391 0.445632 0.366684 -0.357524
O30   O     O_R   0.358895 0.575446 0.404770 -0.379797
I5    I     I_    0.920393 0.959209 0.650544 -0.354212

loop_
_geom_bond_atom_site_label_1
_geom_bond_atom_site_label_2
_geom_bond_distance
_ccdc_geom_bond_type
O14   Ba2   2.803528 S    
O5    C6    1.399537 S    
C45   C49   1.423975 A    
C49   C50   1.426941 A    
Ba2   O20   2.852128 S    
C5    H10   1.107653 S    
C43   H45   1.082028 S    
C14   H29   1.109177 S    
O4    P6    1.541785 D    
P7    O22   1.758714 S    
C26   C27   1.400963 A    
C4    C5    1.524571 S    
O7    Ba1   2.942249 S    
C51   C52   1.405922 A    
C21   C22   1.403940 A    
C43   C50   1.392693 A    
C8    H18   1.109593 S    
P4    O12   1.522215 D    
P7    C50   1.859462 S    
P5    O19   1.750259 S    
P3    O11   1.758709 S    
C9    I1    2.119498 S    
C2    C3    1.530221 S    
C4    H8    1.109234 S    
C18   H41   1.076752 S    
C37   C39   1.388472 A    
P3    C46   1.874130 S    
C34   C35   1.411905 A    
N3    O29   1.292784 A    
P8    C25   1.850017 S    
P1    Ba1   3.408382 S    
C29   C36   1.412477 A    
C36   C37   1.395143 A    
C11   C12   1.504499 S    
P1    O1    1.521865 D    
O10   C8    1.401491 S    
Ba1   O20   2.911104 S    
C38   C39   1.431763 A    
C23   C24   1.431430 A    
C44   C47   1.398164 A    
C12   H24   1.109596 S    
C39   I4    2.134323 S    
C18   C32   1.393692 A    
P2    O20   1.619764 S    
O2    Ba2   2.806824 S    
H34   C16   1.107803 S    
P2    C47   1.861446 S    
O12   Ba2   2.848576 S    
P5    O17   1.717020 S    
C35   C36   1.421117 A    
C13   H27   1.110720 S    
P4    O15   1.749120 S    
C1    H2    1.110724 S    
O16   Ba2   2.910202 S    
O17   Ba2   2.782737 S    
C11   I2    2.139146 S    
C28   C33   1.395792 A    
C1    N1    1.461247 S    
P7    O21   1.574179 D    
Ba1   O13   2.806171 S    
C3    H5    1.107836 S    
C34   H42   1.076684 S    
C5    H11   1.107000 S    
C14   H30   1.106062 S    
C9    H20   1.106826 S    
O6    P6    1.750079 S    
C40   C41   1.414066 A    
C23   C28   1.427636 A    
C8    C9    1.536917 S    
P4    O13   1.570713 S    
P5    O18   1.545784 D    
P1    O5    1.751372 S    
C6    C7    1.522664 S    
C7    H16   1.108984 S    
C31   C42   1.422220 A    
C4    H7    1.104504 S    
Ba1   O16   2.852745 S    
C8    H17   1.104053 S    
C15   H32   1.110738 S    
O11   C2    1.408850 S    
N1    O26   1.298432 A    
C30   C38   1.435695 A    
C41   N3    1.412206 S    
C3    H26   1.107386 S    
C11   H22   1.105749 S    
P1    O2    1.570714 S    
O16   P7    1.771555 S    
C6    H13   1.102783 S    
O14   P8    1.733182 S    
C19   H40   1.076814 S    
C12   H23   1.102979 S    
C15   C16   1.525432 S    
H1    C10   1.112144 S    
C15   H33   1.109319 S    
C30   C31   1.430136 A    
O19   C13   1.404076 S    
P8    O24   1.751248 S    
C27   C28   1.425629 A    
C13   C14   1.520518 S    
C43   C51   1.389509 A    
C16   H35   1.107038 S    
O2    Ba1   2.935278 S    
C1    H3    1.103232 S    
P4    Ba2   3.408974 S    
C52   I5    2.133927 S    
N2    O28   1.299890 A    
C19   C21   1.391932 A    
C32   H38   1.078360 S    
C3    H6    1.102725 S    
P2    Ba1   3.462566 S    
C48   C49   1.442901 A    
C14   H31   1.110691 S    
P5    C51   1.871776 S    
P1    C42   1.913216 S    
C44   H46   1.066573 S    
C22   C23   1.411154 A    
C37   H43   1.079101 S    
O13   Ba2   2.936177 S    
C41   C42   1.398821 A    
P8    O23   1.544148 D    
C4    O15   1.395368 S    
N3    O30   1.294702 A    
C12   H25   1.103497 S    
C7    H15   1.105405 S    
C17   C18   1.413606 A    
C33   H39   1.079782 S    
P2    O7    1.499512 D    
C17   C20   1.436356 A    
Ba2   O21   2.942502 S    
C26   H36   1.081568 S    
O8    Ba1   2.782107 S    
N1    O25   1.298862 A    
C33   C34   1.391861 A    
C6    H12   1.104491 S    
C2    H4    1.108715 S    
P3    O8    1.768733 S    
C24   C35   1.407557 A    
P2    O10   1.759454 S    
C15   O24   1.409038 S    
C10   H21   1.108042 S    
C16   I3    2.138299 S    
C2    N2    1.460144 S    
P6    C40   1.876955 S    
C31   C32   1.399366 A    
C45   H44   1.074367 S    
C1    C10   1.529514 S    
C20   C24   1.423127 A    
C25   C26   1.406328 A    
C17   C29   1.419847 A    
C38   C40   1.430461 A    
C21   H37   1.078006 S    
C44   C46   1.385354 A    
O3    Ba1   2.804186 S    
N2    O27   1.297008 A    
C48   C52   1.449039 A    
C19   C20   1.411658 A    
C11   O22   1.404949 S    
C29   C30   1.436332 A    
C9    H19   1.104470 S    
P3    O9    1.540973 D    
C5    H9    1.108509 S    
O1    Ba1   2.848257 S    
C13   H28   1.109484 S    
C7    H14   1.100644 S    
Ba1   Ba2   4.600417 S    
C45   C46   1.396315 A    
P4    C27   1.896933 S    
O6    C10   1.404599 S    
O3    P6    1.746810 S    
C47   C48   1.445633 A    
C22   C25   1.411718 A    
