data_mof_unit_30634.cif
_audit_creation_date              2012-12-10T17:25:35-0500
_audit_creation_method            fapswitch 2.2
_symmetry_space_group_name_H-M    P1
_symmetry_Int_Tables_number       1
_space_group_crystal_system       triclinic
_cell_length_a                    10.320027
_cell_length_b                    10.876363
_cell_length_c                    23.209099
_cell_angle_alpha                 94.653511
_cell_angle_beta                  80.451958
_cell_angle_gamma                 96.642411
_cell_volume                      2546.64984303

loop_
_atom_site_label
_atom_site_type_symbol
_atom_type_description
_atom_site_fract_x
_atom_site_fract_y
_atom_site_fract_z
_atom_type_partial_charge
C1    C     C_R   0.556055 0.730446 0.491396 0.777772
C2    C     C_R   0.425338 0.409300 0.298737 0.318126
C3    C     C_R   0.505410 0.690183 0.756437 0.463573
C4    C     C_R   0.402251 0.427008 0.242417 0.358941
C5    C     C_R   0.540451 0.599518 0.789738 -0.077417
C6    C     C_R   0.480732 0.520645 0.210372 0.005768
C7    C     C_2   0.590285 0.860542 0.479967 0.171224
C8    C     C_2   0.411084 0.136335 0.511281 0.190910
C9    C     C_2   0.492752 0.934767 0.483430 0.348422
C10   C     C_2   0.510281 0.063749 0.508454 0.313250
C11   C     C_2   0.918045 0.493747 0.514992 0.510059
C12   C     C_R   0.444113 0.268649 0.506971 0.815718
C13   C     C_2   0.066349 0.468784 0.506713 0.529266
C14   C     C_R   0.500741 0.506823 0.610800 0.915276
C15   C     C_R   0.501274 0.498894 0.389585 0.940719
C16   C     C_R   0.487514 0.430430 0.111132 0.614142
C17   C     C_R   0.469675 0.692435 0.891344 0.584944
C18   C     C_R   0.442355 0.640232 0.132597 0.604084
C19   C     C_R   0.463738 0.475323 0.874129 0.643902
C20   C     C_R   0.453733 0.658086 0.072674 -0.204872
C21   C     C_R   0.457860 0.458726 0.933988 -0.180711
C22   C     C_R   0.459347 0.552755 0.032957 -0.141460
C23   C     C_R   0.609100 0.503590 0.757269 0.540381
C24   C     C_R   0.460905 0.565029 0.972965 -0.153091
C25   C     C_R   0.465597 0.435272 0.053290 -0.178311
C26   C     C_R   0.461873 0.683310 0.952062 -0.192578
C27   C     C_R   0.460319 0.777276 0.051613 0.397124
C28   C     C_R   0.450723 0.339254 0.955422 0.395689
C29   C     C_R   0.459960 0.789669 0.991926 0.445374
C30   C     C_R   0.453937 0.327696 0.015094 0.428640
C31   C     C_3   0.600798 0.908249 0.100248 0.116551
C32   C     C_3   0.617240 0.034987 0.132393 -0.714546
C33   C     C_3   0.334869 0.169247 0.915742 0.146216
C34   C     C_R   0.573771 0.602015 0.236992 0.565190
C35   C     C_3   0.336785 0.088728 0.858794 -0.671821
C36   C     C_3   0.191199 0.713280 0.585465 -0.146651
C37   C     C_3   0.842352 0.379348 0.382058 -0.215651
C38   C     C_3   0.579211 0.969187 0.960190 -0.144295
C39   C     C_3   0.321959 0.175943 0.065543 -0.213578
C40   C     C_3   0.786356 0.506468 0.804938 -0.274088
C41   C     C_3   0.771868 0.643171 0.180210 -0.373361
C42   C     C_3   0.468214 0.837627 0.655136 0.130296
C43   C     C_3   0.394224 0.945825 0.683779 -0.783737
C44   C     C_3   0.476356 0.214629 0.301772 0.134700
C45   C     C_R   0.588824 0.471383 0.699822 -0.302029
C46   C     C_3   0.437270 0.091083 0.329053 -0.877537
C47   C     C_3   0.676229 0.846359 0.756259 0.080328
C48   C     C_3   0.739751 0.870480 0.811264 -0.800939
C49   C     C_3   0.183262 0.374238 0.241284 0.128735
C50   C     C_3   0.083120 0.293155 0.209882 -0.873100
C51   C     C_3   0.727180 0.141136 0.518793 -0.130632
C52   C     C_3   0.369560 0.845128 0.413104 -0.291275
C53   C     C_3   0.218640 0.065077 0.565848 0.195034
C54   C     C_3   0.072527 0.026074 0.565124 -0.841846
C55   C     C_3   0.767637 0.879117 0.407978 0.081707
C56   C     C_R   0.579049 0.595663 0.296294 -0.428000
C57   C     C_3   0.909530 0.936300 0.393110 -0.846532
C58   C     C_3   0.077889 0.299545 0.439212 0.046921
C59   C     C_3   0.155780 0.190088 0.419042 -0.685328
C60   C     C_3   0.894678 0.675194 0.576053 0.194504
C61   C     C_3   0.781056 0.755396 0.588208 -0.872143
C62   C     C_R   0.511522 0.539488 0.672696 -0.279563
C63   C     C_R   0.503725 0.500307 0.327169 -0.280402
C64   C     C_R   0.475581 0.654426 0.699921 0.330780
H1    H     H_    0.632078 0.391614 0.676657 0.213815
H2    H     H_    0.420277 0.030747 0.852487 0.300844
H3    H     H_    0.242849 0.027098 0.860119 0.190758
H4    H     H_    0.347930 0.147243 0.820944 0.264880
H5    H     H_    0.189600 0.769524 0.547723 0.164686
H6    H     H_    0.291803 0.706835 0.591952 0.261858
H7    H     H_    0.143799 0.763027 0.625612 0.120263
H8    H     H_    0.810200 0.431282 0.348671 0.192990
H9    H     H_    0.758705 0.316368 0.403547 0.172779
H10   H     H_    0.915702 0.320339 0.356994 0.101335
H11   H     H_    0.658418 0.906863 0.945110 0.082806
H12   H     H_    0.642779 0.664103 0.317912 0.175236
H13   H     H_    0.603308 0.029952 0.998362 0.202724
H14   H     H_    0.578922 0.031073 0.924660 0.221401
H15   H     H_    0.241201 0.203331 0.044346 0.073601
H16   H     H_    0.307927 0.073558 0.067174 0.232740
H17   H     H_    0.311627 0.215800 0.111322 0.234765
H18   H     H_    0.748000 0.559061 0.846065 0.144833
H19   H     H_    0.842055 0.570944 0.772354 0.152049
H20   H     H_    0.857206 0.445969 0.815782 0.199382
H21   H     H_    0.752199 0.563161 0.148662 0.174733
H22   H     H_    0.826098 0.615394 0.213944 0.176552
H23   H     H_    0.675009 0.907182 0.059547 0.075176
H24   H     H_    0.836846 0.715848 0.155348 0.191813
H25   H     H_    0.472237 0.838216 0.607182 0.132351
H26   H     H_    0.572118 0.853318 0.662208 0.133367
H27   H     H_    0.395811 0.954826 0.731576 0.290472
H28   H     H_    0.441283 0.033418 0.664515 0.224596
H29   H     H_    0.289773 0.930998 0.676596 0.220243
H30   H     H_    0.575758 0.251109 0.312441 0.114771
H31   H     H_    0.483290 0.197352 0.253437 0.192020
H32   H     H_    0.337193 0.052708 0.320687 0.272348
H33   H     H_    0.508892 0.024722 0.309414 0.218679
H34   H     H_    0.623910 0.838919 0.128422 0.212360
H35   H     H_    0.438724 0.103070 0.376887 0.246899
H36   H     H_    0.693705 0.933903 0.733319 0.168045
H37   H     H_    0.729052 0.776065 0.726332 0.089139
H38   H     H_    0.723799 0.786877 0.836875 0.235510
H39   H     H_    0.847746 0.895055 0.798974 0.200745
H40   H     H_    0.697546 0.949260 0.838264 0.265107
H41   H     H_    0.171041 0.473175 0.236263 0.137543
H42   H     H_    0.161257 0.355266 0.288535 0.165254
H43   H     H_    0.092842 0.193692 0.213917 0.265812
H44   H     H_    0.981520 0.313093 0.229648 0.204650
H45   H     H_    0.543774 0.038576 0.173110 0.267307
H46   H     H_    0.099732 0.312476 0.162814 0.247384
H47   H     H_    0.735730 0.143735 0.470389 0.141674
H48   H     H_    0.801744 0.083963 0.528895 0.200315
H49   H     H_    0.753347 0.235983 0.537619 0.178419
H50   H     H_    0.292170 0.887790 0.396070 0.201997
H51   H     H_    0.343548 0.743400 0.409791 0.202824
H52   H     H_    0.465474 0.867457 0.384122 0.115454
H53   H     H_    0.227478 0.149466 0.596223 0.139792
H54   H     H_    0.261716 0.988636 0.582591 0.129372
H55   H     H_    0.059584 0.946504 0.532731 0.254169
H56   H     H_    0.718181 0.053169 0.143975 0.183950
H57   H     H_    0.023750 0.998252 0.609145 0.196340
H58   H     H_    0.024946 0.104864 0.553268 0.269510
H59   H     H_    0.707438 0.918932 0.379833 0.122624
H60   H     H_    0.765589 0.777197 0.397715 0.174056
H61   H     H_    0.972110 0.901749 0.421619 0.264035
H62   H     H_    0.948662 0.911331 0.346650 0.220442
H63   H     H_    0.913220 0.038733 0.399606 0.232401
H64   H     H_    0.109706 0.369399 0.405722 0.187905
H65   H     H_    0.972839 0.261999 0.442303 0.138197
H66   H     H_    0.116563 0.110675 0.446049 0.270356
H67   H     H_    0.602624 0.107522 0.103903 0.302031
H68   H     H_    0.145586 0.161029 0.372892 0.204231
H69   H     H_    0.261341 0.216555 0.421749 0.311530
H70   H     H_    0.966837 0.713992 0.539080 0.106801
H71   H     H_    0.935732 0.687753 0.617473 0.192819
H72   H     H_    0.798839 0.829073 0.622906 0.173200
H73   H     H_    0.776930 0.804727 0.549126 0.293408
H74   H     H_    0.686442 0.700922 0.602534 0.262138
H75   H     H_    0.255045 0.231627 0.918765 0.108548
H76   H     H_    0.311203 0.106196 0.952063 0.188851
N1    N     N_R   0.469145 0.530417 0.150164 -0.321968
N2    N     N_R   0.492552 0.591261 0.852757 -0.340589
N3    N     N_2   0.842710 0.448880 0.476480 0.011726
N4    N     N_2   0.157290 0.551120 0.523520 0.020421
O1    O     O_R   0.431060 0.692470 0.504730 -0.625604
O2    O     O_2   0.448971 0.800313 0.872345 -0.477575
O3    O     O_2   0.404944 0.731009 0.173026 -0.516412
O4    O     O_2   0.436976 0.376537 0.837488 -0.509800
O5    O     O_3   0.469477 0.883692 0.088432 -0.554334
O6    O     O_3   0.460967 0.235228 0.916852 -0.562165
O7    O     O_3   0.124740 0.593863 0.579401 -0.568323
O8    O     O_3   0.904658 0.463959 0.420980 -0.619255
O9    O     O_3   0.451452 0.906045 0.973490 -0.564095
O10   O     O_3   0.449543 0.210132 0.034649 -0.578587
O11   O     O_3   0.683628 0.430698 0.782297 -0.550291
O12   O     O_R   0.568940 0.307530 0.495270 -0.654378
O13   O     O_3   0.654166 0.692794 0.206158 -0.598418
O14   O     O_3   0.399071 0.724197 0.674291 -0.616705
O15   O     O_3   0.381436 0.298008 0.323667 -0.620555
O16   O     O_3   0.537197 0.815100 0.770231 -0.564276
O17   O     O_3   0.311817 0.346236 0.216583 -0.581723
O18   O     O_3   0.600835 0.095349 0.547189 -0.651529
O19   O     O_3   0.367369 0.886392 0.472654 -0.597133
O20   O     O_3   0.282103 0.088455 0.508510 -0.592827
O21   O     O_3   0.721733 0.906218 0.467924 -0.646443
O22   O     O_3   0.101427 0.348208 0.494912 -0.604098
O23   O     O_R   0.651120 0.659650 0.489640 -0.573548
O24   O     O_3   0.855440 0.546134 0.567759 -0.597724
O25   O     O_R   0.348880 0.340350 0.510360 -0.523143
O26   O     O_R   0.389950 0.516450 0.591390 -0.559314
O27   O     O_R   0.610050 0.483550 0.408610 -0.626401
O28   O     O_R   0.610020 0.483630 0.576300 -0.565640
O29   O     O_R   0.389980 0.516370 0.423700 -0.618043
O30   O     O_2   0.530148 0.328464 0.128009 -0.552888
Zn1   Zn    Zn3+2 0.353060 0.521920 0.510080 1.033379
Zn2   Zn    Zn3+2 0.646940 0.478080 0.489920 0.985482

loop_
_geom_bond_atom_site_label_1
_geom_bond_atom_site_label_2
_ccdc_geom_bond_type
C37   H10   S    
C8    C10   D    
C59   H66   S    
C28   O6    S    
C51   H48   S    
C23   C45   A    
C23   O11   S    
C27   C29   A    
C40   H20   S    
C1    O1    A    
C14   O26   A    
C5    N2    S    
C3    C64   A    
C36   H5    S    
C34   C56   A    
C41   H22   S    
C51   H49   S    
C56   H12   S    
C17   C26   A    
C19   C21   A    
C32   H56   S    
N4    O7    S    
C33   O6    S    
C57   H61   S    
C31   O5    S    
C53   H53   S    
C61   H74   S    
C13   N4    D    
C1    O23   A    
C33   H76   S    
C14   C62   S    
C45   C62   A    
C50   H46   S    
C51   O18   S    
C31   H34   S    
C9    O19   S    
C62   C64   A    
C33   C35   S    
O1    Zn1   S    
C44   C46   S    
C2    O15   S    
C22   C25   A    
C40   O11   S    
C9    C10   S    
C49   O17   S    
C36   H7    S    
C47   O16   S    
O29   Zn1   S    
C7    O21   S    
C27   O5    S    
C54   H55   S    
C3    O16   S    
C50   H44   S    
C40   H19   S    
C42   O14   S    
C46   H33   S    
N3    Zn2   S    
C12   O12   A    
C36   H6    S    
O26   Zn1   S    
C52   H52   S    
C55   H59   S    
C59   H68   S    
C31   H23   S    
C32   H45   S    
C15   O29   A    
C39   O10   S    
C47   C48   S    
C40   H18   S    
C39   H17   S    
C14   O28   A    
C18   O3    S    
C8    O20   S    
C57   H62   S    
C53   H54   S    
C49   H41   S    
C38   H14   S    
C35   H2    S    
C58   C59   S    
C53   C54   S    
C48   H39   S    
C59   H69   S    
C43   H27   S    
C47   H36   S    
C6    C34   A    
C17   N2    A    
C42   H26   S    
C39   H15   S    
C2    C4    A    
C16   C25   A    
C31   C32   S    
C5    C23   A    
C35   H3    S    
C8    C12   S    
C48   H38   S    
O25   Zn1   S    
C56   C63   A    
C15   O27   A    
C53   O20   S    
C60   O24   S    
C6    N1    S    
C60   H71   S    
C49   H42   S    
C38   H11   S    
C41   O13   S    
C4    C6    A    
N3    O8    S    
C38   H13   S    
C54   H57   S    
C20   C22   A    
C19   N2    A    
C55   C57   S    
C45   H1    S    
C50   H43   S    
C22   C24   A    
C21   C24   A    
C42   C43   S    
C55   O21   S    
C37   O8    S    
C60   H70   S    
C2    C63   A    
C29   O9    S    
C52   H51   S    
C16   O30   S    
C25   C30   A    
C7    C9    D    
C41   H24   S    
C37   H9    S    
C55   H60   S    
O12   Zn2   S    
C51   H47   S    
C1    C7    S    
C21   C28   A    
C18   N1    A    
C19   O4    S    
C24   C26   A    
C3    C5    A    
C57   H63   S    
C36   O7    S    
C12   O25   A    
C20   C27   A    
C52   H50   S    
C41   H21   S    
O27   Zn2   S    
C43   H28   S    
C42   H25   S    
C39   H16   S    
C46   H35   S    
C28   C30   A    
C17   O2    S    
C44   H31   S    
C58   H64   S    
C11   C13   S    
C61   H73   S    
C13   O22   S    
C11   O24   S    
C35   H4    S    
C33   H75   S    
N4    Zn1   S    
C43   H29   S    
C16   N1    A    
C18   C20   A    
C47   H37   S    
C54   H58   S    
C58   O22   S    
C44   H30   S    
C52   O19   S    
C34   O13   S    
C30   O10   S    
C46   H32   S    
C26   C29   A    
C10   O18   S    
C49   C50   S    
C37   H8    S    
C64   O14   S    
C44   O15   S    
C15   C63   S    
C4    O17   S    
C60   C61   S    
C58   H65   S    
C38   O9    S    
C11   N3    D    
C32   H67   S    
O28   Zn2   S    
C61   H72   S    
O23   Zn2   S    
C48   H40   S    
