data_mof_unit_50552.cif
_audit_creation_date              2012-12-10T18:35:24-0500
_audit_creation_method            fapswitch 2.2
_symmetry_space_group_name_H-M    P1
_symmetry_Int_Tables_number       1
_space_group_crystal_system       triclinic
_cell_length_a                    15.125219
_cell_length_b                    14.204545
_cell_length_c                    10.81885
_cell_angle_alpha                 90.003289
_cell_angle_beta                  96.580508
_cell_angle_gamma                 90.050689
_cell_volume                      2309.08138995

loop_
_atom_site_label
_atom_site_type_symbol
_atom_type_description
_atom_site_fract_x
_atom_site_fract_y
_atom_site_fract_z
_atom_type_partial_charge
C1    C     C_R   0.330520 0.500078 0.502091 0.815579
C2    C     C_R   0.669522 0.500141 0.497984 0.816984
C3    C     C_R   0.048746 0.502737 0.502360 0.086397
C4    C     C_R   0.951595 0.502824 0.500255 0.086407
C5    C     C_R   0.559468 0.107166 0.580558 -0.188639
C6    C     C_R   0.432342 0.892850 0.434282 -0.218615
C7    C     C_R   0.440958 0.106986 0.419157 -0.188101
C8    C     C_R   0.567929 0.892909 0.565557 -0.217424
C9    C     C_R   0.559972 0.206946 0.581417 0.506105
C10   C     C_R   0.433976 0.793215 0.428859 0.560874
C11   C     C_R   0.440240 0.206740 0.418430 0.507752
C12   C     C_R   0.565998 0.793300 0.571283 0.558770
C13   C     C_R   0.500239 0.054166 0.499839 0.032464
C14   C     C_R   0.500227 0.945809 0.499796 0.029949
C15   C     C_R   0.510211 0.500098 0.264451 0.814736
C16   C     C_R   0.489690 0.500080 0.735492 0.815329
C17   C     C_R   0.546294 0.671555 0.117865 -0.233876
C18   C     C_R   0.449131 0.330497 0.884313 -0.225927
C19   C     C_R   0.453016 0.671380 0.881928 -0.234372
C20   C     C_R   0.550293 0.330511 0.115438 -0.225548
C21   C     C_R   0.525249 0.757001 0.058771 0.369544
C22   C     C_R   0.468683 0.245642 0.945832 0.396342
C23   C     C_R   0.473690 0.756903 0.941147 0.370545
C24   C     C_R   0.530634 0.245653 0.053856 0.396605
C25   C     C_R   0.482775 0.585931 0.936735 0.029854
C26   C     C_R   0.517389 0.415606 0.062839 0.020410
C27   C     C_R   0.516719 0.585980 0.063090 0.030181
C28   C     C_R   0.482135 0.415592 0.936981 0.020682
C29   C     C_R   0.477112 0.500560 0.869846 -0.140868
C30   C     C_R   0.522536 0.500602 0.129994 -0.140454
C31   C     C_R   0.099629 0.579790 0.550519 -0.144886
C32   C     C_R   0.908156 0.421896 0.536372 -0.143958
C33   C     C_R   0.901606 0.582360 0.459545 -0.146183
C34   C     C_R   0.091223 0.424229 0.457661 -0.145504
C35   C     C_R   0.191927 0.578332 0.552766 -0.138561
C36   C     C_R   0.816193 0.420733 0.532933 -0.132517
C37   C     C_R   0.809258 0.580963 0.456250 -0.135323
C38   C     C_R   0.183094 0.423022 0.460075 -0.131462
C39   C     C_R   0.234047 0.500449 0.505403 -0.051319
C40   C     C_R   0.766120 0.500618 0.495326 -0.054423
Cu1   Cu    Cu3+1 0.500000 0.596430 0.500000 1.103255
Cu2   Cu    Cu3+1 0.500000 0.403570 0.500000 1.081344
H1    H     H_    0.588515 0.671833 0.205483 0.206983
H2    H     H_    0.405040 0.330244 0.798072 0.194893
H3    H     H_    0.410911 0.671468 0.794205 0.206456
H4    H     H_    0.594461 0.330263 0.201605 0.194551
H5    H     H_    0.068146 0.640273 0.587880 0.154756
H6    H     H_    0.945430 0.359780 0.568537 0.160358
H7    H     H_    0.933811 0.644779 0.428483 0.154691
H8    H     H_    0.053252 0.364208 0.419309 0.159939
H9    H     H_    0.230370 0.637533 0.592545 0.198314
H10   H     H_    0.784524 0.357671 0.561027 0.227383
H11   H     H_    0.771588 0.642148 0.421784 0.202397
H12   H     H_    0.213947 0.362114 0.424669 0.228748
H13   H     H_    0.605862 0.071600 0.647841 0.216917
H14   H     H_    0.375644 0.928311 0.386112 0.198377
H15   H     H_    0.394659 0.071286 0.351797 0.217387
H16   H     H_    0.624494 0.928366 0.614329 0.198657
N1    N     N_R   0.500000 0.258690 0.500000 -0.307344
N2    N     N_R   0.500000 0.741310 0.500000 -0.294224
O1    O     O_R   0.371460 0.581430 0.500010 -0.536249
O2    O     O_R   0.628540 0.418570 0.499990 -0.547362
O3    O     O_R   0.628540 0.581430 0.499990 -0.539686
O4    O     O_R   0.371460 0.418570 0.500010 -0.546036
O5    O     O_R   0.499990 0.581440 0.319660 -0.549563
O6    O     O_R   0.500010 0.418560 0.680340 -0.535839
O7    O     O_R   0.500010 0.581440 0.680340 -0.549120
O8    O     O_R   0.499990 0.418560 0.319660 -0.536333
S1    S     S_3+6 0.591675 0.145922 0.108632 0.111094
O9    O     O_2   0.547487 0.100857 0.210693 -0.265332
O10   O     O_2   0.597083 0.077621 0.004116 -0.113392
O11   O     O_3   0.695173 0.178807 0.165806 -0.533465
H17   H     H_    0.724469 0.120110 0.198485 0.387842
S2    S     S_3+6 0.433145 0.859629 0.863523 0.097781
O12   O     O_2   0.361281 0.900142 0.932354 -0.184042
O13   O     O_2   0.507836 0.928762 0.860432 -0.149903
O14   O     O_3   0.389687 0.835398 0.716916 -0.585273
H18   H     H_    0.363542 0.895598 0.684243 0.383522
S3    S     S_3+6 0.407771 0.145811 0.890661 0.111220
O15   O     O_2   0.451990 0.101198 0.788349 -0.265716
O16   O     O_2   0.402488 0.077203 0.994866 -0.113191
O17   O     O_3   0.304220 0.178452 0.833693 -0.532500
H19   H     H_    0.274943 0.119699 0.800971 0.388245
S4    S     S_3+6 0.565412 0.859881 0.136520 0.097176
O18   O     O_2   0.637064 0.900905 0.067635 -0.183152
O19   O     O_2   0.490453 0.928518 0.139834 -0.151152
O20   O     O_3   0.609097 0.835740 0.283025 -0.587536
H20   H     H_    0.636458 0.895623 0.315026 0.383529
S5    S     S_3+6 0.645776 0.251453 0.694421 0.029870
O21   O     O_2   0.632677 0.206384 0.816394 -0.258582
O22   O     O_2   0.732379 0.215299 0.657662 -0.314790
O23   O     O_3   0.656815 0.367288 0.720847 -0.514153
H21   H     H_    0.705999 0.373311 0.789188 0.368309
S6    S     S_3+6 0.341236 0.747112 0.329596 0.042480
O24   O     O_2   0.322689 0.811904 0.219714 -0.253625
O25   O     O_2   0.350974 0.649912 0.279852 -0.266991
O26   O     O_3   0.252453 0.749882 0.409598 -0.551285
H22   H     H_    0.201242 0.732399 0.348461 0.379950
S7    S     S_3+6 0.354211 0.250923 0.305773 0.028864
O27   O     O_2   0.366609 0.205263 0.183906 -0.259744
O28   O     O_2   0.267741 0.215146 0.343634 -0.313342
O29   O     O_3   0.343597 0.366688 0.278688 -0.517538
H23   H     H_    0.295776 0.372486 0.208468 0.367019
S8    S     S_3+6 0.657497 0.747770 0.673335 0.040320
O30   O     O_2   0.670985 0.810519 0.785935 -0.253348
O31   O     O_2   0.649624 0.649024 0.718692 -0.265772
O32   O     O_3   0.748750 0.756161 0.598953 -0.555546
H24   H     H_    0.799027 0.739834 0.662202 0.380954

loop_
_geom_bond_atom_site_label_1
_geom_bond_atom_site_label_2
_ccdc_geom_bond_type
O20   H20   S    
Cu1   Cu2   S    
C19   C23   A    
S4    O20   S    
Cu1   O1    S    
S8    O31   D    
O26   H22   S    
Cu1   O7    S    
O14   H18   S    
C7    C11   A    
S2    O13   D    
C32   C36   A    
C28   C29   A    
S4    O19   D    
C22   S3    S    
C12   S8    S    
C37   C40   A    
C38   C39   A    
C10   S6    S    
C33   H7    S    
C15   O5    A    
C11   S7    S    
S1    O10   D    
C8    H16   S    
C20   C24   A    
S2    O14   S    
O32   H24   S    
S5    O22   D    
Cu2   O2    S    
C5    C13   A    
C36   H10   S    
S6    O25   D    
C37   H11   S    
C31   H5    S    
C13   C14   S    
C27   C30   A    
Cu2   O8    S    
C32   H6    S    
S1    O9    D    
C11   N1    A    
S8    O30   D    
C24   S1    S    
C25   C29   A    
C34   H8    S    
S2    O12   D    
O29   H23   S    
C17   C27   A    
C36   C40   A    
C18   C28   A    
S4    O18   D    
C9    S5    S    
S3    O16   D    
Cu1   O5    S    
S6    O26   S    
C16   C29   S    
C33   C37   A    
C9    N1    A    
S1    O11   S    
C10   N2    A    
C17   H1    S    
C5    C9    A    
C18   H2    S    
C6    C14   A    
S7    O27   D    
C38   H12   S    
C21   S4    S    
C8    C12   A    
C16   O7    A    
S5    O23   S    
C3    C31   A    
C4    C32   A    
S7    O28   D    
C26   C30   A    
C21   C23   A    
C35   H9    S    
C31   C35   A    
C16   O6    A    
Cu1   O3    S    
C23   S2    S    
C3    C4    S    
C1    O4    A    
Cu2   O4    S    
C2    O3    A    
C15   C30   S    
C4    C33   A    
C8    C14   A    
C34   C38   A    
C5    H13   S    
Cu1   N2    S    
C6    H14   S    
O11   H17   S    
C1    O1    A    
Cu2   N1    S    
C6    C10   A    
S3    O17   S    
C19   H3    S    
C25   C27   A    
C26   C28   A    
C3    C34   A    
C18   C22   A    
C15   O8    A    
C20   C26   A    
C35   C39   A    
O23   H21   S    
C22   C24   A    
S6    O24   D    
C19   C25   A    
C17   C21   A    
C1    C39   S    
S3    O15   D    
C12   N2    A    
C2    C40   S    
C7    C13   A    
S7    O29   S    
O17   H19   S    
Cu2   O6    S    
S5    O21   D    
C7    H15   S    
S8    O32   S    
C20   H4    S    
C2    O2    A    
