data_mof_unit_35833.cif
_audit_creation_date              2012-12-10T18:42:39-0500
_audit_creation_method            fapswitch 2.2
_symmetry_space_group_name_H-M    P1
_symmetry_Int_Tables_number       1
_space_group_crystal_system       triclinic
_cell_length_a                    11.012667
_cell_length_b                    15.083
_cell_length_c                    13.967932
_cell_angle_alpha                 91.11243
_cell_angle_beta                  91.777301
_cell_angle_gamma                 88.589642
_cell_volume                      2317.9075888

loop_
_atom_site_label
_atom_site_type_symbol
_atom_type_description
_atom_site_fract_x
_atom_site_fract_y
_atom_site_fract_z
_atom_type_partial_charge
C1    C     C_R   0.503588 0.329924 0.498870 0.923650
C2    C     C_R   0.499395 0.669920 0.500241 0.955366
C3    C     C_R   0.871050 0.503036 0.502114 -0.228173
C4    C     C_R   0.127661 0.502367 0.495657 -0.241258
C5    C     C_R   0.940560 0.535782 0.581293 0.040578
C6    C     C_R   0.058264 0.465970 0.418406 0.000762
C7    C     C_R   0.462908 0.092218 0.419842 0.363293
C8    C     C_R   0.633836 0.895433 0.477842 0.362276
C9    C     C_R   0.450611 0.185100 0.424502 0.243202
C10   C     C_R   0.623242 0.802308 0.481045 0.282440
C11   C     C_R   0.517665 0.232967 0.494356 -0.307976
C12   C     C_R   0.510032 0.766177 0.499033 -0.288656
C13   C     C_R   0.603192 0.188960 0.555303 0.292484
C14   C     C_R   0.406123 0.821485 0.504414 0.251478
C15   C     C_R   0.608413 0.095494 0.556267 0.386711
C16   C     C_R   0.418031 0.913118 0.511322 0.438418
C17   C     C_R   0.536583 0.047733 0.489172 -0.100704
C18   C     C_R   0.530833 0.950608 0.494892 -0.087715
C19   C     C_R   0.517717 0.579239 0.108041 0.303489
C20   C     C_R   0.589309 0.447580 0.891433 0.214799
C21   C     C_R   0.520815 0.576711 0.209226 0.439133
C22   C     C_R   0.580851 0.445433 0.789374 0.447604
C23   C     C_R   0.262074 0.499107 0.498418 0.844094
C24   C     C_R   0.737495 0.502000 0.501354 0.881459
C25   C     C_R   0.495960 0.421732 0.204648 0.468060
C26   C     C_R   0.424294 0.555817 0.791298 0.475306
C27   C     C_R   0.494357 0.421059 0.102726 0.272328
C28   C     C_R   0.415730 0.549525 0.892303 0.248264
C29   C     C_R   0.503215 0.500336 0.052881 -0.145316
C30   C     C_R   0.503539 0.499081 0.944186 -0.126459
C31   C     C_R   0.158350 0.408087 0.169510 0.135966
C32   C     C_R   0.891446 0.523167 0.846519 0.180229
C33   C     C_R   0.152836 0.454993 0.257929 0.355329
C34   C     C_R   0.906058 0.497767 0.750067 0.449725
C35   C     C_R   0.111035 0.412154 0.339173 -0.073038
C36   C     C_R   0.890981 0.560578 0.676871 -0.092486
C37   C     C_R   0.083323 0.321094 0.334597 0.351001
C38   C     C_R   0.865499 0.650619 0.700382 0.289294
C39   C     C_R   0.079434 0.277142 0.244065 0.359119
C40   C     C_R   0.846339 0.675490 0.797906 0.350208
C41   C     C_R   0.115610 0.320520 0.162063 0.256641
C42   C     C_R   0.857549 0.611941 0.869995 0.147617
C43   C     C_R   0.930454 0.470971 0.419567 0.427720
C44   C     C_R   0.066616 0.540456 0.574415 0.373783
Cu1   Cu    Cu3+1 0.500000 0.499990 0.596430 1.035861
Cu2   Cu    Cu3+1 0.500000 0.500010 0.403570 1.030088
N1    N     N_R   0.500000 0.500020 0.258690 -0.300601
N2    N     N_R   0.500000 0.499980 0.741310 -0.282485
O1    O     O_R   0.500010 0.371450 0.581430 -0.530983
O2    O     O_R   0.499990 0.628550 0.418570 -0.551554
O3    O     O_R   0.500010 0.371460 0.418560 -0.517245
O4    O     O_R   0.499990 0.628540 0.581440 -0.578565
O5    O     O_R   0.319640 0.500000 0.581430 -0.536411
O6    O     O_R   0.680360 0.500000 0.418570 -0.585259
O7    O     O_R   0.319640 0.500010 0.418560 -0.532086
O8    O     O_R   0.680360 0.499990 0.581440 -0.550215
O9    O     O_3   0.106287 0.274934 0.075414 -0.686310
H1    H     H_    0.120309 0.315634 0.022345 0.359644
O10   O     O_3   0.834537 0.639446 0.962686 -0.683732
H2    H     H_    0.803652 0.588737 0.997942 0.320161
O11   O     O_3   0.666368 0.049946 0.630975 -0.557170
C45   C     C_3   0.793415 0.060519 0.631186 -0.158413
H3    H     H_    0.837838 0.000785 0.662855 0.156504
H4    H     H_    0.819805 0.117528 0.677972 0.191932
H5    H     H_    0.829920 0.066966 0.558274 0.153954
O12   O     O_3   0.315973 0.966595 0.525232 -0.518755
C46   C     C_3   0.298706 0.975596 0.624509 -0.292837
H6    H     H_    0.218753 0.020272 0.636025 0.176270
H7    H     H_    0.378532 0.006222 0.661859 0.164903
H8    H     H_    0.279416 0.910631 0.656580 0.163276
O13   O     O_3   0.540695 0.659779 0.067279 -0.644664
H9    H     H_    0.563525 0.650573 0.999892 0.330339
O14   O     O_3   0.682561 0.399719 0.936242 -0.648932
H10   H     H_    0.698752 0.425225 0.001071 0.344595
O15   O     O_3   0.563352 0.651211 0.255139 -0.649671
H11   H     H_    0.636294 0.631211 0.292932 0.341329
O16   O     O_3   0.657184 0.391829 0.735927 -0.619696
H12   H     H_    0.705094 0.351418 0.778300 0.397063
O17   O     O_3   0.495456 0.340496 0.247698 -0.505977
C47   C     C_3   0.614956 0.303703 0.250831 -0.237922
H13   H     H_    0.610956 0.233494 0.272350 0.152905
H14   H     H_    0.672033 0.338693 0.305515 0.199064
H15   H     H_    0.659831 0.304036 0.180641 0.162883
O18   O     O_3   0.357036 0.619406 0.742641 -0.525370
C48   C     C_3   0.407686 0.702968 0.763093 -0.323818
H16   H     H_    0.505401 0.701905 0.747147 0.148974
H17   H     H_    0.393492 0.724881 0.838376 0.197857
H18   H     H_    0.363187 0.753223 0.716081 0.169586
O19   O     O_3   0.507017 0.340983 0.053222 -0.554461
C49   C     C_3   0.392299 0.305412 0.033482 -0.137527
H19   H     H_    0.335736 0.349965 0.986828 0.173123
H20   H     H_    0.346886 0.290159 0.100795 0.205297
H21   H     H_    0.404866 0.241825 0.993411 0.168982
O20   O     O_3   0.329698 0.599116 0.942120 -0.551736
C50   C     C_3   0.211532 0.573024 0.913413 -0.194971
H22   H     H_    0.204297 0.499627 0.906405 0.157640
H23   H     H_    0.147569 0.596010 0.968989 0.192124
H24   H     H_    0.181067 0.605108 0.845779 0.207609
O21   O     O_3   0.199324 0.447359 0.088589 -0.780650
H25   H     H_    0.241245 0.502751 0.106696 0.375954
O22   O     O_3   0.915674 0.460563 0.915755 -0.686263
H26   H     H_    0.944169 0.490814 0.975561 0.329202
O23   O     O_3   0.193040 0.541364 0.265968 -0.549352
C51   C     C_3   0.101087 0.601614 0.234675 -0.332703
H27   H     H_    0.034850 0.613682 0.291939 0.158096
H28   H     H_    0.054575 0.580265 0.166463 0.172442
H29   H     H_    0.143494 0.665938 0.221147 0.198892
O24   O     O_3   0.933491 0.410248 0.725142 -0.552727
C52   C     C_3   0.054330 0.387391 0.753578 -0.239067
H30   H     H_    0.057243 0.359379 0.826492 0.209743
H31   H     H_    0.117830 0.443456 0.750838 0.169941
H32   H     H_    0.088347 0.334859 0.703853 0.162633
O25   O     O_3   0.034636 0.284660 0.415654 -0.585489
C53   C     C_3   0.078942 0.197754 0.433867 -0.199905
H33   H     H_    0.165926 0.180365 0.399585 0.216346
H34   H     H_    0.009255 0.149129 0.411104 0.179644
H35   H     H_    0.094424 0.191243 0.512299 0.151720
O26   O     O_3   0.852811 0.709283 0.624668 -0.552862
C54   C     C_3   0.904150 0.792948 0.644101 -0.183496
H36   H     H_    0.979717 0.791531 0.698727 0.150137
H37   H     H_    0.832309 0.841462 0.665225 0.202872
H38   H     H_    0.941820 0.817430 0.577077 0.167713
O27   O     O_3   0.035472 0.192275 0.233994 -0.536713
C55   C     C_3   0.908021 0.198326 0.220810 -0.249048
H39   H     H_    0.881413 0.235423 0.154988 0.192648
H40   H     H_    0.864411 0.229519 0.284311 0.161101
H41   H     H_    0.872652 0.130326 0.212053 0.169386
O28   O     O_3   0.829126 0.763276 0.825913 -0.538234
C56   C     C_3   0.704002 0.784207 0.824282 -0.237350
H42   H     H_    0.652887 0.737791 0.868089 0.161095
H43   H     H_    0.667586 0.785987 0.749297 0.145349
H44   H     H_    0.690687 0.851661 0.855822 0.195578
O29   O     O_3   0.863689 0.428465 0.346833 -0.585119
C57   C     C_3   0.845387 0.484746 0.267616 -0.331072
H45   H     H_    0.915839 0.471312 0.214301 0.152305
H46   H     H_    0.840174 0.556559 0.287632 0.157788
H47   H     H_    0.757715 0.468690 0.231187 0.161177
O30   O     O_3   0.129596 0.582297 0.648478 -0.594376
C58   C     C_3   0.157892 0.667704 0.618905 -0.150212
H48   H     H_    0.092573 0.696897 0.564960 0.148565
H49   H     H_    0.249346 0.664104 0.589124 0.242078
H50   H     H_    0.160100 0.712726 0.682420 0.171501
O31   O     O_3   0.388796 0.044907 0.356406 -0.545014
C59   C     C_3   0.455205 0.019817 0.275198 -0.326536
H51   H     H_    0.513675 0.960560 0.290546 0.170068
H52   H     H_    0.510124 0.074767 0.248411 0.143227
H53   H     H_    0.389979 0.000901 0.216681 0.212003
O32   O     O_3   0.746394 0.931636 0.465437 -0.585133
C60   C     C_3   0.758818 0.951805 0.368161 -0.389281
H54   H     H_    0.708130 0.014121 0.350350 0.157219
H55   H     H_    0.730206 0.896545 0.319020 0.183269
H56   H     H_    0.856172 0.963276 0.355893 0.202769
O33   O     O_3   0.371779 0.230955 0.363198 -0.692308
H57   H     H_    0.343849 0.191433 0.310011 0.362588
O34   O     O_3   0.719476 0.744658 0.462095 -0.697857
H58   H     H_    0.790919 0.778402 0.444076 0.362798
O35   O     O_3   0.680030 0.236816 0.615574 -0.533800
C61   C     C_3   0.776434 0.267395 0.561255 -0.195933
H59   H     H_    0.745999 0.323314 0.515580 0.154130
H60   H     H_    0.849157 0.291290 0.610972 0.235258
H61   H     H_    0.817596 0.214450 0.515171 0.112448
O36   O     O_3   0.291477 0.787007 0.501245 -0.618037
C62   C     C_3   0.249235 0.782958 0.404895 -0.270849
H62   H     H_    0.241452 0.850210 0.373498 0.213096
H63   H     H_    0.157174 0.754612 0.402315 0.163878
H64   H     H_    0.308491 0.738808 0.360664 0.198084

loop_
_geom_bond_atom_site_label_1
_geom_bond_atom_site_label_2
_ccdc_geom_bond_type
C22   N2    A    
O22   H26   S    
C27   C29   A    
C11   C13   A    
O14   H10   S    
C19   O13   S    
C62   H62   S    
C1    C11   S    
C2    C12   S    
O28   C56   S    
C57   H47   S    
C7    O31   S    
C53   H33   S    
C49   H19   S    
C50   H24   S    
O27   C55   S    
C39   C41   A    
C20   C30   A    
C48   H16   S    
C6    C35   S    
C3    C43   A    
O35   C61   S    
C62   H63   S    
O36   C62   S    
C60   H55   S    
C58   H50   S    
Cu1   N2    S    
C37   O25   S    
C24   O6    A    
O31   C59   S    
C40   O28   S    
C5    C36   S    
C39   O27   S    
O24   C52   S    
C28   O20   S    
C43   O29   S    
O26   C54   S    
C45   H4    S    
C2    O2    A    
C61   H61   S    
O25   C53   S    
C50   H22   S    
Cu1   O8    S    
C7    C17   A    
Cu2   O7    S    
C44   O30   S    
C31   C33   A    
C31   O21   S    
C29   C30   S    
C25   N1    A    
O16   H12   S    
C56   H44   S    
C40   C42   A    
O12   C46   S    
C9    O33   S    
O10   H2    S    
C33   O23   S    
C51   H28   S    
C61   H60   S    
C3    C24   S    
C8    O32   S    
C59   H53   S    
C10   C12   A    
C13   O35   S    
C51   H27   S    
C23   O5    A    
C48   H17   S    
C46   H6    S    
C62   H64   S    
O32   C60   S    
C59   H52   S    
C52   H32   S    
C4    C23   S    
C47   H13   S    
C57   H46   S    
C4    C44   A    
Cu1   O4    S    
Cu1   Cu2   S    
Cu2   O3    S    
C8    C18   A    
C46   H7    S    
C32   C34   A    
C14   O36   S    
O15   H11   S    
C45   H3    S    
C9    C11   A    
C49   H20   S    
O21   H25   S    
Cu1   O1    S    
C54   H36   S    
Cu2   O6    S    
C17   C18   S    
C15   O11   S    
O20   C50   S    
C16   C18   A    
O18   C48   S    
C1    O3    A    
C54   H37   S    
C2    O4    A    
C55   H41   S    
C4    C6    A    
C5    C44   A    
C12   C14   A    
C6    C43   A    
C13   C15   A    
O29   C57   S    
C14   C16   A    
C60   H56   S    
C24   O8    A    
C36   C38   A    
C19   C29   A    
O23   C51   S    
C48   H18   S    
C49   H21   S    
C55   H40   S    
C56   H42   S    
C54   H38   S    
C35   C37   A    
C15   C17   A    
Cu2   O2    S    
Cu2   N1    S    
C26   O18   S    
C31   C41   A    
C45   H5    S    
C19   C21   A    
C25   O17   S    
C22   O16   S    
C20   C22   A    
C59   H51   S    
C3    C5    A    
C10   O34   S    
C53   H34   S    
C58   H48   S    
C50   H23   S    
C23   O7    A    
C57   H45   S    
C26   N2    A    
C25   C27   A    
C21   O15   S    
C26   C28   A    
C46   H8    S    
C34   O24   S    
C52   H31   S    
O33   H57   S    
C41   O9    S    
O13   H9    S    
C37   C39   A    
C60   H54   S    
C38   C40   A    
C58   H49   S    
O9    H1    S    
C61   H59   S    
C28   C30   A    
C47   H15   S    
C33   C35   A    
C47   H14   S    
C20   O14   S    
C27   O19   S    
C34   C36   A    
O11   C45   S    
C53   H35   S    
O30   C58   S    
Cu1   O5    S    
O17   C47   S    
C38   O26   S    
C7    C9    A    
C16   O12   S    
C8    C10   A    
C42   O10   S    
O34   H58   S    
C32   C42   A    
C32   O22   S    
C21   N1    A    
O19   C49   S    
C52   H30   S    
C1    O1    A    
C51   H29   S    
C55   H39   S    
C56   H43   S    
