data_mof_unit_44032.cif
_audit_creation_date              2012-12-10T17:33:06-0500
_audit_creation_method            fapswitch 2.2
_symmetry_space_group_name_H-M    P1
_symmetry_Int_Tables_number       1
_space_group_crystal_system       triclinic
_cell_length_a                    15.53912
_cell_length_b                    15.493768
_cell_length_c                    17.94181
_cell_angle_alpha                 90.749
_cell_angle_beta                  109.930279
_cell_angle_gamma                 68.963718
_cell_volume                      3760.78531995

loop_
_atom_site_label
_atom_site_type_symbol
_atom_type_description
_atom_site_fract_x
_atom_site_fract_y
_atom_site_fract_z
_atom_type_partial_charge
C1    C     C_R   0.464717 0.740018 0.532418 0.848421
C2    C     C_R   0.603358 0.415265 0.081729 -0.233199
C3    C     C_R   0.665218 0.364886 0.043081 -0.236685
C4    C     C_R   0.534178 0.259674 0.468871 0.814596
C5    C     C_R   0.637741 0.383154 0.960966 0.170465
C6    C     C_R   0.544521 0.452473 0.915415 0.093401
C7    C     C_R   0.703582 0.332940 0.924015 -0.196396
C8    C     C_R   0.678606 0.351239 0.842166 -0.206846
C9    C     C_R   0.519840 0.466952 0.832082 -0.261452
C10   C     C_R   0.472447 0.938672 0.648866 -0.268045
C11   C     C_R   0.452513 0.834767 0.548801 -0.130051
C12   C     C_R   0.316974 0.648585 0.153532 0.495729
C13   C     C_R   0.538146 0.142721 0.371863 0.468840
C14   C     C_R   0.519070 0.064485 0.344628 -0.250525
C15   C     C_R   0.500128 0.008555 0.391774 -0.264435
C16   C     C_R   0.757675 0.447849 0.532824 0.781498
C17   C     C_R   0.503718 0.026842 0.470016 0.112053
C18   C     C_R   0.527781 0.104081 0.499665 0.017591
C19   C     C_R   0.484298 0.970961 0.519907 0.107483
C20   C     C_R   0.490775 0.992586 0.598438 0.088992
C21   C     C_R   0.520963 0.064565 0.627889 -0.211166
C22   C     C_R   0.542013 0.117548 0.580249 -0.164395
C23   C     C_R   0.473224 0.527764 0.162631 -0.335236
C24   C     C_R   0.463018 0.891696 0.495935 -0.334677
C25   C     C_R   0.452679 0.860024 0.624447 0.467832
C26   C     C_R   0.537707 0.165920 0.448263 -0.193447
C27   C     C_R   0.023748 0.390122 0.650024 -0.193977
C28   C     C_R   0.242066 0.552871 0.469613 0.775230
C29   C     C_R   0.861174 0.430243 0.549582 0.011849
C30   C     C_R   0.068336 0.620498 0.377154 -0.192591
C31   C     C_R   0.971710 0.624982 0.350897 -0.153835
C32   C     C_R   0.941817 0.578893 0.397272 -0.181321
C33   C     C_R   0.007473 0.530394 0.473643 0.084188
C34   C     C_R   0.447893 0.541195 0.079228 0.095843
C35   C     C_R   0.104300 0.532046 0.502720 0.089039
C36   C     C_R   0.980238 0.480932 0.522450 0.079187
C37   C     C_R   0.048610 0.438354 0.600374 0.171546
C38   C     C_R   0.139664 0.447580 0.629749 -0.246007
C39   C     C_R   0.166285 0.495241 0.582453 -0.195612
C40   C     C_R   0.561021 0.440178 0.711661 0.768420
C41   C     C_R   0.886624 0.474016 0.497640 -0.260995
C42   C     C_R   0.930021 0.387333 0.625160 -0.195090
C43   C     C_R   0.136436 0.571671 0.451580 -0.074450
C44   C     C_R   0.439674 0.558787 0.287352 0.823222
C45   C     C_R   0.356127 0.612030 0.034015 0.100118
C46   C     C_R   0.409299 0.580075 0.200117 -0.145482
C47   C     C_R   0.586674 0.417865 0.796545 0.029346
C48   C     C_R   0.292801 0.665749 0.071418 -0.299455
C49   C     C_3   0.352581 0.801172 0.657404 0.068239
C50   C     C_3   0.358885 0.709205 0.693402 -0.309065
C51   C     C_3   0.257232 0.703265 0.669620 -1.005073
C52   C     C_3   0.641408 0.165363 0.316825 0.104798
C53   C     C_3   0.655320 0.237837 0.269979 -0.298303
C54   C     C_3   0.758385 0.201557 0.265399 -0.989897
C55   C     C_3   0.190652 0.656725 0.195292 0.134405
C56   C     C_R   0.510995 0.487016 0.039582 0.091818
C57   C     C_3   0.094801 0.685784 0.122030 -0.395319
C58   C     C_3   0.021856 0.648292 0.134849 -0.946152
C59   C     C_R   0.480669 0.505352 0.954867 0.069676
C60   C     C_R   0.388233 0.576810 0.912625 -0.228036
C61   C     C_R   0.327654 0.628916 0.951609 -0.204485
H1    H     H_    0.257498 0.683041 0.916666 0.146621
H2    H     H_    0.075458 0.357939 0.709515 0.137884
H3    H     H_    0.866497 0.583664 0.371772 0.129676
H4    H     H_    0.920226 0.662074 0.292855 0.142778
H5    H     H_    0.235407 0.504490 0.610263 0.173273
H6    H     H_    0.730656 0.313412 0.814353 0.127505
H7    H     H_    0.735817 0.311392 0.078100 0.148459
H8    H     H_    0.223189 0.720566 0.036570 0.152720
H9    H     H_    0.542705 0.476950 0.200610 0.177187
H10   H     H_    0.359780 0.595180 0.848989 0.148287
H11   H     H_    0.631372 0.395885 0.145174 0.148388
H12   H     H_    0.775004 0.280432 0.958687 0.138428
H13   H     H_    0.313686 0.808772 0.591420 0.121058
H14   H     H_    0.307971 0.859981 0.681458 0.149268
H15   H     H_    0.407210 0.650248 0.672204 0.217946
H16   H     H_    0.392265 0.702579 0.759608 0.226383
H17   H     H_    0.207603 0.761065 0.690685 0.272480
H18   H     H_    0.264668 0.636016 0.697225 0.254610
H19   H     H_    0.223883 0.706879 0.603671 0.267056
H20   H     H_    0.478071 0.954995 0.708885 0.159197
H21   H     H_    0.651451 0.101413 0.286222 0.126312
H22   H     H_    0.698892 0.148137 0.378167 0.134461
H23   H     H_    0.530660 0.078709 0.688947 0.146818
H24   H     H_    0.599116 0.255603 0.208424 0.221815
H25   H     H_    0.644638 0.302309 0.299647 0.250616
H26   H     H_    0.815726 0.183982 0.326377 0.271643
H27   H     H_    0.766937 0.255909 0.232106 0.262004
H28   H     H_    0.769662 0.138581 0.233839 0.267902
H29   H     H_    0.909633 0.355022 0.666160 0.133010
H30   H     H_    0.829747 0.506552 0.440567 0.127865
H31   H     H_    0.090797 0.652449 0.337666 0.147838
H32   H     H_    0.171609 0.678345 0.248723 0.177713
H33   H     H_    0.228293 0.579157 0.206189 0.104151
H34   H     H_    0.462624 0.867403 0.439359 0.155966
H35   H     H_    0.060050 0.763081 0.109984 0.238384
H36   H     H_    0.111558 0.658296 0.069003 0.216350
H37   H     H_    0.055376 0.571073 0.147816 0.268011
H38   H     H_    0.954472 0.668251 0.080028 0.271815
H39   H     H_    0.000035 0.678141 0.185265 0.255744
H40   H     H_    0.482632 0.951740 0.364569 0.158453
H41   H     H_    0.515177 0.048877 0.284815 0.159495
H42   H     H_    0.571496 0.168099 0.608329 0.159912
H43   H     H_    0.450335 0.516839 0.792735 0.120691
H44   H     H_    0.190306 0.418814 0.690288 0.150312
O1    O     O_3   0.500000 0.500000 0.500000 -0.487275
O2    O     O_R   0.596500 0.492780 0.688380 -0.634816
O3    O     O_R   0.388780 0.611210 0.325000 -0.613682
O4    O     O_R   0.499860 0.410860 0.661600 -0.645682
O5    O     O_R   0.514860 0.485140 0.325020 -0.652497
O6    O     O_3   0.449250 0.800895 0.679624 -0.634525
O7    O     O_3   0.545403 0.202439 0.319703 -0.625857
O8    O     O_3   0.251623 0.702984 0.187710 -0.628476
O9    O     O_R   0.707110 0.418540 0.472990 -0.648487
O10   O     O_R   0.267620 0.606720 0.435250 -0.655442
O11   O     O_R   0.540230 0.674660 0.578090 -0.607849
O12   O     O_R   0.485030 0.300080 0.513670 -0.644341
O13   O     O_R   0.403610 0.721990 0.472930 -0.651153
O14   O     O_R   0.571130 0.303270 0.435320 -0.608093
O15   O     O_R   0.717650 0.497270 0.578120 -0.636516
O16   O     O_R   0.307610 0.477470 0.513630 -0.631895
Zn1   Zn    Zn3+2 0.572030 0.427990 0.434470 0.960348
Zn2   Zn    Zn3+2 0.587090 0.540470 0.584680 0.986115
Zn3   Zn    Zn3+2 0.449010 0.423430 0.546420 0.959387
Zn4   Zn    Zn3+2 0.391880 0.608100 0.434430 0.972125

loop_
_geom_bond_atom_site_label_1
_geom_bond_atom_site_label_2
_ccdc_geom_bond_type
C40   C47   S    
C34   C56   A    
O11   Zn2   S    
C29   C42   A    
C3    H7    S    
C18   C26   A    
O13   Zn4   S    
O2    Zn2   S    
C48   H8    S    
C12   C48   A    
C6    C9    A    
C7    C8    A    
C7    H12   S    
C53   C54   S    
O1    Zn4   S    
C54   H26   S    
C36   C37   A    
O12   Zn3   S    
C13   O7    S    
C16   O15   A    
C5    C6    A    
C14   H41   S    
C52   O7    S    
C11   C24   A    
C33   C36   A    
C15   C17   A    
C51   H19   S    
O16   Zn3   S    
C17   C19   A    
C19   C20   A    
C10   C20   A    
C57   H35   S    
C58   H37   S    
O1    Zn2   S    
C49   H14   S    
C4    O14   A    
C53   H25   S    
C1    O11   A    
O3    Zn4   S    
C35   C43   A    
O15   Zn2   S    
C55   H32   S    
C49   O6    S    
C59   C60   A    
C23   C46   A    
C13   C14   A    
C23   H9    S    
C36   C41   A    
C55   H33   S    
C2    H11   S    
C44   C46   S    
C50   C51   S    
C44   O3    A    
C38   C39   A    
C58   H39   S    
C32   H3    S    
C54   H28   S    
C30   H31   S    
C24   H34   S    
C5    C7    A    
C28   O16   A    
C55   O8    S    
C60   H10   S    
C16   C29   S    
C22   H42   S    
C60   C61   A    
C42   H29   S    
C52   H22   S    
C35   C39   A    
C37   C38   A    
C28   O10   A    
C50   H15   S    
C31   C32   A    
C14   C15   A    
C21   H23   S    
C23   C34   A    
C57   H36   S    
O1    Zn1   S    
C17   C18   A    
C34   C45   A    
C15   H40   S    
C52   H21   S    
C27   H2    S    
C40   O2    A    
C30   C43   A    
C10   C25   A    
C12   C46   A    
C41   H30   S    
C9    C47   A    
C55   C57   S    
C39   H5    S    
C13   C26   A    
C50   H16   S    
C52   C53   S    
C12   O8    S    
C45   C48   A    
C31   H4    S    
C10   H20   S    
C29   C41   A    
C18   C22   A    
O14   Zn1   S    
C6    C59   A    
C58   H38   S    
C3    C5    A    
C16   O9    A    
C4    C26   S    
O4    Zn3   S    
C40   O4    A    
C28   C43   S    
O10   Zn4   S    
C56   C59   A    
C32   C33   A    
C38   H44   S    
C2    C3    A    
C51   H17   S    
C2    C56   A    
O5    Zn1   S    
C54   H27   S    
C27   C42   A    
C57   C58   S    
C30   C31   A    
C27   C37   A    
C9    H43   S    
C45   C61   A    
C33   C35   A    
C19   C24   A    
C1    O13   A    
C61   H1    S    
C4    O12   A    
C51   H18   S    
C8    C47   A    
C25   O6    S    
O9    Zn1   S    
C20   C21   A    
C8    H6    S    
C49   C50   S    
O1    Zn3   S    
C11   C25   A    
C49   H13   S    
C53   H24   S    
C1    C11   S    
C21   C22   A    
C44   O5    A    
