data_mof_unit_25712.cif
_audit_creation_date              2012-12-10T18:47:06-0500
_audit_creation_method            fapswitch 2.2
_symmetry_space_group_name_H-M    P1
_symmetry_Int_Tables_number       1
_space_group_crystal_system       triclinic
_cell_length_a                    10.682153
_cell_length_b                    9.848955
_cell_length_c                    14.887488
_cell_angle_alpha                 90.149672
_cell_angle_beta                  90.177575
_cell_angle_gamma                 90.248236
_cell_volume                      1566.25587367

loop_
_atom_site_label
_atom_site_type_symbol
_atom_type_description
_atom_site_fract_x
_atom_site_fract_y
_atom_site_fract_z
_atom_type_partial_charge
C1    C     C_R   0.259959 0.499806 0.499813 0.868075
C2    C     C_R   0.127537 0.499678 0.499773 -0.021284
C3    C     C_R   0.581122 0.072518 0.553461 -0.053817
C4    C     C_R   0.418877 0.927482 0.446540 -0.054687
C5    C     C_R   0.418877 0.071328 0.446545 -0.056045
C6    C     C_R   0.581122 0.928672 0.553456 -0.055995
C7    C     C_R   0.499764 0.499820 0.327048 0.884082
C8    C     C_R   0.500247 0.500173 0.672945 0.880756
C9    C     C_R   0.607821 0.458459 0.813183 -0.157899
C10   C     C_R   0.391995 0.540977 0.186779 -0.163997
C11   C     C_R   0.500838 0.500592 0.768149 -0.076199
C12   C     C_R   0.740040 0.500202 0.500304 0.869267
C13   C     C_R   0.499127 0.499298 0.231829 -0.077513
C14   C     C_R   0.394290 0.542580 0.813017 -0.189452
C15   C     C_R   0.605562 0.456952 0.186958 -0.187425
C16   C     C_R   0.392756 0.540824 0.905859 0.061252
C17   C     C_R   0.606947 0.458194 0.094106 0.070785
C18   C     C_R   0.500855 0.499594 0.953210 0.010619
C19   C     C_R   0.498825 0.499327 0.046756 0.014771
C20   C     C_R   0.610669 0.458844 0.906743 -0.003479
C21   C     C_R   0.388945 0.539898 0.093217 -0.018533
C22   C     C_R   0.284194 0.578716 0.951321 -0.245146
C23   C     C_R   0.280310 0.577919 0.044812 0.456862
C24   C     C_R   0.715278 0.419542 0.048632 -0.288495
C25   C     C_R   0.719020 0.419820 0.955089 0.449935
C26   C     C_R   0.063754 0.383840 0.528644 -0.179179
C27   C     C_R   0.936252 0.616292 0.471843 -0.165530
C28   C     C_R   0.935550 0.384238 0.529137 -0.163119
C29   C     C_R   0.064442 0.615896 0.471351 -0.151512
C30   C     C_R   0.872462 0.500400 0.500604 -0.020094
H1    H     H_    0.687705 0.427089 0.773932 0.199637
H2    H     H_    0.113876 0.705448 0.448137 0.161318
H3    H     H_    0.645991 0.127453 0.596228 0.141395
H4    H     H_    0.354006 0.872547 0.403775 0.141935
H5    H     H_    0.354008 0.125313 0.403789 0.144652
H6    H     H_    0.645992 0.874687 0.596212 0.144121
H7    H     H_    0.946429 0.656834 0.055386 0.391479
H8    H     H_    0.985979 0.466416 0.806107 0.378922
H9    H     H_    0.312186 0.572592 0.226019 0.198238
H10   H     H_    0.312326 0.574228 0.775309 0.138675
H11   H     H_    0.687533 0.425346 0.224670 0.147861
H12   H     H_    0.202046 0.608291 0.913384 0.217438
H13   H     H_    0.797297 0.389557 0.086592 0.215051
H14   H     H_    0.112663 0.294113 0.551551 0.165238
H15   H     H_    0.887362 0.706028 0.448930 0.164346
H16   H     H_    0.886097 0.294697 0.552349 0.162011
N1    N     N_R   0.500000 0.857200 0.500000 -0.089190
N2    N     N_R   0.500000 0.142800 0.500000 -0.089229
O1    O     O_R   0.316770 0.614620 0.499990 -0.629955
O2    O     O_2   0.157709 0.746930 0.154674 -0.305112
O3    O     O_3   0.025643 0.654261 0.021011 -0.496848
O4    O     O_2   0.960976 0.342602 0.969782 -0.239665
O5    O     O_2   0.837908 0.248207 0.845053 -0.311957
O6    O     O_3   0.909061 0.500464 0.835364 -0.555150
O7    O     O_R   0.683230 0.385380 0.500010 -0.628688
O8    O     O_R   0.683230 0.614620 0.500010 -0.626793
O9    O     O_R   0.316770 0.385380 0.499990 -0.625736
O10   O     O_R   0.499980 0.614680 0.367850 -0.612387
O11   O     O_R   0.500020 0.385320 0.632150 -0.613125
O12   O     O_R   0.500020 0.614680 0.632150 -0.608927
O13   O     O_R   0.499980 0.385320 0.367850 -0.608634
O14   O     O_2   0.095610 0.507007 0.156593 -0.306644
S1    S     S_3+6 0.137566 0.622369 0.097810 0.033696
S2    S     S_3+6 0.860746 0.372584 0.901611 0.027749
Zn1   Zn    Zn3+2 0.500000 0.653120 0.500000 0.968413
Zn2   Zn    Zn3+2 0.500000 0.346880 0.500000 0.968858

loop_
_geom_bond_atom_site_label_1
_geom_bond_atom_site_label_2
_ccdc_geom_bond_type
C10   H9    S    
C10   C13   A    
O14   S1    D    
C1    O9    A    
C8    O11   A    
C27   C29   A    
C4    H4    S    
C7    O10   A    
C26   C28   A    
H8    O6    S    
O3    S1    S    
O9    Zn2   S    
C3    C6    A    
C9    C20   A    
C9    H1    S    
C27   H15   S    
C28   C30   A    
C26   H14   S    
C2    C26   A    
C22   H12   S    
N1    Zn1   S    
C8    O12   A    
C27   C30   A    
O2    S1    D    
C9    C11   A    
C28   H16   S    
C12   O8    A    
O1    Zn1   S    
C8    C11   S    
O6    S2    S    
C5    H5    S    
C23   S1    S    
C17   C19   A    
C6    H6    S    
O12   Zn1   S    
C1    C2    S    
C29   H2    S    
C18   C20   A    
C13   C15   A    
C10   C21   A    
O4    S2    D    
H7    O3    S    
C5    N2    A    
C14   C16   A    
C12   O7    A    
C6    N1    A    
C3    H3    S    
C14   H10   S    
O8    Zn1   S    
C17   C24   A    
C3    N2    A    
C7    C13   S    
O7    Zn2   S    
C2    C29   A    
C24   C25   A    
C15   H11   S    
C16   C18   A    
C18   C19   A    
C20   C25   A    
C11   C14   A    
C15   C17   A    
C24   H13   S    
O5    S2    D    
C22   C23   A    
C4    C5    A    
C16   C22   A    
O10   Zn1   S    
O13   Zn2   S    
N2    Zn2   S    
C12   C30   S    
C21   C23   A    
C4    N1    A    
C7    O13   A    
O11   Zn2   S    
C19   C21   A    
C25   S2    S    
C1    O1    A    
