data_mof_unit_60822.cif
_audit_creation_date              2013-03-05T16:01:01-0500
_audit_creation_method            fapswitch 2.2
_symmetry_space_group_name_H-M    P1
_symmetry_Int_Tables_number       1
_space_group_crystal_system       triclinic
_cell_length_a                    36.138307
_cell_length_b                    29.162583
_cell_length_c                    21.632176
_cell_angle_alpha                 89.838077
_cell_angle_beta                  126.246846
_cell_angle_gamma                 90.166885
_cell_volume                      18385.8544688

loop_
_atom_site_label
_atom_site_type_symbol
_atom_site_description
_atom_site_fract_x
_atom_site_fract_y
_atom_site_fract_z
_atom_type_partial_charge
O1    O     O_R   0.936850 0.964330 0.936870 -0.597044
O2    O     O_R   0.063150 0.035670 0.063130 -0.598731
O3    O     O_R   0.063150 0.964330 0.063130 -0.591974
O4    O     O_R   0.936850 0.035670 0.936870 -0.593021
O5    O     O_R   0.436850 0.464330 0.936870 -0.602207
O6    O     O_R   0.563150 0.535670 0.063130 -0.589897
O7    O     O_R   0.563150 0.464330 0.063130 -0.593532
O8    O     O_R   0.436850 0.535670 0.936870 -0.595002
C1    C     C_R   0.913240 0.999962 0.913938 0.882135
C2    C     C_R   0.086760 0.000038 0.086063 0.882251
C3    C     C_R   0.413239 0.499971 0.913480 0.878157
C4    C     C_R   0.586758 0.500029 0.086140 0.888746
O9    O     O_R   0.999990 0.964330 0.907390 -0.619477
O10   O     O_R   0.000010 0.035670 0.092610 -0.620159
O11   O     O_R   0.000010 0.964330 0.092610 -0.621106
O12   O     O_R   0.999990 0.035670 0.907390 -0.621818
O13   O     O_R   0.499990 0.464330 0.907390 -0.623397
O14   O     O_R   0.500010 0.535670 0.092610 -0.620652
O15   O     O_R   0.500010 0.464330 0.092610 -0.620781
O16   O     O_R   0.499990 0.535670 0.907390 -0.621568
C5    C     C_R   0.004491 0.000150 0.882450 0.934632
C6    C     C_R   0.995489 0.999851 0.117522 0.934700
C7    C     C_R   0.500361 0.500145 0.877989 0.939723
C8    C     C_R   0.495470 0.500035 0.117500 0.935325
Zn1   Zn    Zn3+2 0.000000 0.952370 0.000000 0.998785
Zn2   Zn    Zn3+2 0.000000 0.047630 0.000000 0.994399
Zn3   Zn    Zn3+2 0.500000 0.452370 0.000000 0.979841
Zn4   Zn    Zn3+2 0.500000 0.547630 0.000000 1.013308
C9    C     C_3   0.951098 0.003442 0.740488 -0.191452
C10   C     C_3   0.048837 0.995923 0.259427 -0.189584
C11   C     C_3   0.971217 0.955504 0.186216 -0.178600
C12   C     C_3   0.028260 0.044780 0.813218 -0.176427
C13   C     C_3   0.454401 0.525664 0.743506 -0.187843
C14   C     C_3   0.471115 0.544163 0.185792 -0.177187
C15   C     C_3   0.548805 0.504102 0.259359 -0.189147
C16   C     C_3   0.541965 0.531867 0.829326 -0.181489
H1    H     H_    0.942517 0.040213 0.737800 0.213938
H2    H     H_    0.056985 0.959048 0.261714 0.213850
H3    H     H_    0.985696 0.925384 0.176401 0.223227
H4    H     H_    0.013482 0.074745 0.822757 0.222821
H5    H     H_    0.452153 0.558817 0.765998 0.217894
H6    H     H_    0.485519 0.574369 0.175692 0.223357
H7    H     H_    0.556901 0.541010 0.261285 0.214144
H8    H     H_    0.532607 0.567450 0.833501 0.222399
C17   C     C_3   0.947607 0.991455 0.666029 0.459462
C18   C     C_3   0.052477 0.007891 0.334023 0.460371
C19   C     C_3   0.979971 0.950651 0.267023 0.428764
C20   C     C_3   0.019415 0.049542 0.732333 0.429551
C21   C     C_3   0.455707 0.534391 0.672414 0.441228
C22   C     C_3   0.479873 0.549095 0.266538 0.429112
C23   C     C_3   0.552467 0.492183 0.334075 0.457528
C24   C     C_3   0.546696 0.530359 0.761452 0.455439
H9    H     H_    0.006642 0.926229 0.804529 0.245351
H10   H     H_    0.994165 0.073805 0.196265 0.244990
H11   H     H_    0.939538 0.047973 0.135586 0.172753
H12   H     H_    0.060977 0.952674 0.864967 0.172931
H13   H     H_    0.476580 0.430089 0.777976 0.189158
H14   H     H_    0.439598 0.451547 0.136000 0.172593
H15   H     H_    0.494268 0.425972 0.196919 0.244748
H16   H     H_    0.536682 0.437060 0.830481 0.224816
H17   H     H_    0.019255 0.927770 0.712434 0.211629
H18   H     H_    0.981615 0.072408 0.288435 0.211268
H19   H     H_    0.934625 0.035929 0.234597 0.247670
H20   H     H_    0.065793 0.964822 0.765882 0.247947
H21   H     H_    0.466627 0.438296 0.665116 0.232257
H22   H     H_    0.434662 0.463616 0.234920 0.247210
H23   H     H_    0.481704 0.427352 0.289118 0.213139
H24   H     H_    0.524988 0.435166 0.713615 0.224782
C25   C     C_3   0.026179 0.957420 0.810550 -0.377217
C26   C     C_3   0.974288 0.042835 0.189927 -0.376931
C27   C     C_3   0.503433 0.453221 0.785401 -0.355135
C28   C     C_3   0.474337 0.456846 0.190295 -0.379038
C29   C     C_3   0.002560 0.000873 0.813204 -0.024150
C30   C     C_3   0.997409 0.999115 0.186754 -0.024109
C31   C     C_3   0.500181 0.501883 0.810295 -0.029837
C32   C     C_3   0.497384 0.500665 0.186723 -0.023878
C33   C     C_3   0.998448 0.001382 0.688725 -0.276845
C34   C     C_3   0.001525 0.998559 0.311236 -0.276494
C35   C     C_3   0.499834 0.507384 0.689563 -0.278851
C36   C     C_3   0.501505 0.501298 0.311206 -0.277697
C37   C     C_3   0.029442 0.961088 0.743323 -0.436464
C38   C     C_3   0.971010 0.039216 0.257143 -0.437321
C39   C     C_3   0.498310 0.456216 0.710148 -0.418859
C40   C     C_3   0.471051 0.460485 0.257497 -0.434177
C41   C     C_1   0.862569 0.999893 0.862890 -0.207983
C42   C     C_1   0.137431 0.000108 0.137114 -0.208925
C43   C     C_1   0.362571 0.499928 0.862522 -0.207508
C44   C     C_1   0.637428 0.500082 0.137112 -0.206915
C45   C     C_1   0.820354 0.999870 0.820340 0.029907
C46   C     C_1   0.179646 0.000131 0.179666 0.028389
C47   C     C_1   0.320354 0.499925 0.820051 0.024024
C48   C     C_1   0.679643 0.500095 0.179621 0.035849
C49   C     C_1   0.770523 0.999876 0.770156 0.032522
C50   C     C_1   0.229477 0.000124 0.229849 0.030611
C51   C     C_1   0.270522 0.499938 0.769957 0.028336
C52   C     C_1   0.729474 0.500087 0.229790 0.036241
C53   C     C_1   0.728301 0.999898 0.727703 0.030271
C54   C     C_1   0.271699 0.000102 0.272301 0.028158
C55   C     C_1   0.228300 0.499953 0.727573 0.027020
C56   C     C_1   0.771696 0.500070 0.272250 0.032795
C57   C     C_1   0.678464 0.999934 0.677717 0.025305
C58   C     C_1   0.321536 0.000066 0.322286 0.023162
C59   C     C_1   0.178463 0.499972 0.677655 0.022536
C60   C     C_1   0.821533 0.500044 0.322256 0.027089
C61   C     C_1   0.636238 0.999966 0.635545 -0.177186
C62   C     C_1   0.363762 0.000034 0.364455 -0.179085
C63   C     C_1   0.136237 0.499987 0.635526 -0.179137
C64   C     C_1   0.863760 0.500022 0.364444 -0.175958
O17   O     O_R   0.964320 0.936860 0.464320 -0.567743
O18   O     O_R   0.035680 0.063140 0.535680 -0.568946
O19   O     O_R   0.035680 0.936860 0.535680 -0.603551
O20   O     O_R   0.964320 0.063140 0.464320 -0.603066
O21   O     O_R   0.464320 0.436860 0.464320 -0.614242
O22   O     O_R   0.535680 0.563140 0.535680 -0.567836
O23   O     O_R   0.535680 0.436860 0.535680 -0.575731
O24   O     O_R   0.464320 0.563140 0.464320 -0.586352
C65   C     C_R   0.999958 0.913245 0.500259 0.949141
C66   C     C_R   0.000042 0.086755 0.499756 0.948354
C67   C     C_R   0.499970 0.413245 0.499976 0.890389
C68   C     C_R   0.500022 0.586757 0.499919 1.000962
O25   O     O_R   0.964330 0.000000 0.556950 -0.545440
O26   O     O_R   0.035670 0.000000 0.443050 -0.545426
O27   O     O_R   0.464330 0.500000 0.556950 -0.573880
O28   O     O_R   0.535670 0.500000 0.443050 -0.545951
O29   O     O_R   0.035630 0.000000 0.628230 -0.593871
O30   O     O_R   0.964370 0.000000 0.371770 -0.593608
O31   O     O_R   0.535630 0.500000 0.628230 -0.577614
O32   O     O_R   0.464370 0.500000 0.371770 -0.591576
C69   C     C_R   0.999511 0.999708 0.622096 0.973595
C70   C     C_R   0.000486 0.000233 0.377897 0.973092
C71   C     C_R   0.499814 0.505994 0.621695 0.969180
C72   C     C_R   0.500481 0.499682 0.377895 0.975550
Zn5   Zn    Zn3+2 0.952370 0.000000 0.452390 1.170804
Zn6   Zn    Zn3+2 0.047630 0.000000 0.547610 1.168591
Zn7   Zn    Zn3+2 0.452370 0.500000 0.452390 1.135131
Zn8   Zn    Zn3+2 0.547630 0.500000 0.547610 1.201176
O33   O     O_R   0.499940 0.063120 0.447680 -0.587332
O34   O     O_R   0.500060 0.936880 0.552320 -0.584947
O35   O     O_R   0.500060 0.063120 0.552320 -0.588715
O36   O     O_R   0.499940 0.936880 0.447680 -0.585851
O37   O     O_R   0.999940 0.563120 0.447680 -0.584646
O38   O     O_R   0.000060 0.436880 0.552320 -0.585676
O39   O     O_R   0.000060 0.563120 0.552320 -0.587648
O40   O     O_R   0.999940 0.436880 0.447680 -0.588295
C73   C     C_R   0.500001 0.085559 0.499924 0.869717
C74   C     C_R   0.499998 0.914439 0.500075 0.872013
C75   C     C_R   0.999998 0.585560 0.499920 0.871279
C76   C     C_R   0.000002 0.414440 0.500080 0.870035
O41   O     O_R   0.563110 0.000000 0.510830 -0.585787
O42   O     O_R   0.436890 0.000000 0.489170 -0.586465
O43   O     O_R   0.063110 0.500000 0.510830 -0.586680
O44   O     O_R   0.936890 0.500000 0.489170 -0.586005
O45   O     O_R   0.563120 0.000000 0.615390 -0.587318
O46   O     O_R   0.436880 0.000000 0.384610 -0.587790
O47   O     O_R   0.063120 0.500000 0.615390 -0.587714
O48   O     O_R   0.936880 0.500000 0.384610 -0.586296
C77   C     C_R   0.585549 0.999998 0.585297 0.871683
C78   C     C_R   0.414451 0.000002 0.414703 0.870688
C79   C     C_R   0.085548 0.500002 0.585294 0.870535
C80   C     C_R   0.914451 0.500000 0.414702 0.871443
Zn9   Zn    Zn3+2 0.499970 0.000000 0.430170 1.010993
Zn10  Zn    Zn3+2 0.500030 0.000000 0.569830 1.010425
Zn11  Zn    Zn3+2 0.999970 0.500000 0.430170 1.012484
Zn12  Zn    Zn3+2 0.000030 0.500000 0.569830 1.011462
C81   C     C_1   0.999884 0.862572 0.499998 -0.098728
C82   C     C_1   0.000115 0.137428 0.500019 -0.100877
C83   C     C_1   0.499923 0.362569 0.499831 -0.167146
C84   C     C_1   0.500063 0.637427 0.500074 -0.038908
C85   C     C_1   0.999864 0.820359 0.499824 0.059768
C86   C     C_1   0.000136 0.179640 0.500191 0.057333
C87   C     C_1   0.499918 0.320354 0.499753 0.029019
C88   C     C_1   0.500070 0.679638 0.500167 0.082985
C89   C     C_1   0.999873 0.770525 0.499704 0.047842
C90   C     C_1   0.000127 0.229474 0.500308 0.044873
C91   C     C_1   0.499929 0.270519 0.499700 0.029840
C92   C     C_1   0.500062 0.729471 0.500241 0.060504
C93   C     C_1   0.499945 0.228302 0.499683 0.026489
C94   C     C_1   0.500049 0.771688 0.500275 0.048289
C95   C     C_1   0.999896 0.728308 0.499662 0.039676
C96   C     C_1   0.000103 0.271692 0.500346 0.036501
C97   C     C_1   0.499966 0.178465 0.499701 0.020315
C98   C     C_1   0.500030 0.821528 0.500278 0.033304
C99   C     C_1   0.999933 0.678469 0.499676 0.028871
C100  C     C_1   0.000066 0.321531 0.500328 0.025789
C101  C     C_1   0.499984 0.136246 0.499761 -0.181512
C102  C     C_1   0.500014 0.863749 0.500231 -0.172962
C103  C     C_1   0.999965 0.636249 0.499744 -0.175372
C104  C     C_1   0.000034 0.363751 0.500257 -0.178028
C105  C     C_3   0.914412 0.980643 0.746138 -0.690664
H25   H     H_    0.907267 0.002872 0.779489 0.202769
H26   H     H_    0.881550 0.976562 0.688274 0.272265
H27   H     H_    0.925702 0.946983 0.775643 0.277594
C106  C     C_3   0.085777 0.018270 0.253989 -0.693847
H28   H     H_    0.092698 0.995905 0.220479 0.203688
H29   H     H_    0.074842 0.052019 0.224734 0.276728
H30   H     H_    0.118677 0.022039 0.311894 0.271793
C107  C     C_3   0.920113 0.953822 0.115642 -0.768181
H31   H     H_    0.917007 0.954724 0.061454 0.212658
H32   H     H_    0.904154 0.921157 0.115403 0.282880
H33   H     H_    0.899966 0.982822 0.114313 0.269305
C108  C     C_3   0.079363 0.047001 0.883705 -0.772703
H34   H     H_    0.082538 0.046073 0.937951 0.213172
H35   H     H_    0.099810 0.018249 0.885223 0.269820
H36   H     H_    0.094946 0.079857 0.883606 0.281383
C109  C     C_3   0.410840 0.500305 0.724038 -0.764592
H37   H     H_    0.410956 0.497505 0.775283 0.206720
H38   H     H_    0.379586 0.520019 0.680770 0.278977
H39   H     H_    0.407818 0.465254 0.701942 0.272354
C110  C     C_3   0.420004 0.545594 0.115202 -0.769856
H40   H     H_    0.416892 0.544667 0.061018 0.213078
H41   H     H_    0.399910 0.516499 0.114159 0.269182
H42   H     H_    0.403984 0.578185 0.114641 0.282150
C111  C     C_3   0.585760 0.481889 0.254113 -0.693647
H43   H     H_    0.592678 0.504283 0.220437 0.203047
H44   H     H_    0.618659 0.478231 0.312049 0.272554
H45   H     H_    0.574831 0.448106 0.225112 0.276277
C112  C     C_3   0.587580 0.523270 0.909642 -0.734245
H46   H     H_    0.585869 0.538084 0.955086 0.218662
H47   H     H_    0.595095 0.486212 0.922095 0.254273
H48   H     H_    0.616690 0.540499 0.914678 0.287197
N1    N     N_R   0.910746 0.019948 0.600571 0.210609
O49   O     O_R   0.883208 0.001829 0.532749 -0.292025
O50   O     O_R   0.898058 0.059016 0.611436 -0.334439
N2    N     N_R   0.088993 0.978969 0.399161 0.210267
O51   O     O_R   0.116757 0.996771 0.467183 -0.293552
O52   O     O_R   0.101185 0.939726 0.387860 -0.333964
N3    N     N_R   0.013107 0.913256 0.313278 0.204317
O53   O     O_R   0.026093 0.906367 0.382968 -0.353882
O54   O     O_R   0.022032 0.881127 0.282188 -0.350812
N4    N     N_R   0.985814 0.086526 0.685641 0.204269
O55   O     O_R   0.976275 0.118388 0.716259 -0.353287
O56   O     O_R   0.972828 0.093353 0.615938 -0.353147
N5    N     N_R   0.460869 0.583997 0.662928 0.197724
O57   O     O_R   0.456743 0.597753 0.601791 -0.340892
O58   O     O_R   0.466489 0.615093 0.710911 -0.368479
N6    N     N_R   0.512953 0.586647 0.312438 0.204338
O59   O     O_R   0.525892 0.593639 0.382035 -0.362669
O60   O     O_R   0.521901 0.618763 0.281076 -0.349672
N7    N     N_R   0.588943 0.521281 0.398927 0.210270
O61   O     O_R   0.616748 0.503618 0.467115 -0.289261
O62   O     O_R   0.601060 0.560582 0.387240 -0.330441
N8    N     N_R   0.553192 0.578026 0.744520 0.219207
O63   O     O_R   0.574542 0.608125 0.799521 -0.329711
O64   O     O_R   0.550382 0.586760 0.682867 -0.350211
N9    N     N_R   0.935808 0.942083 0.643208 0.221709
O65   O     O_R   0.931748 0.912132 0.683471 -0.402496
O66   O     O_R   0.932434 0.926717 0.583603 -0.358133
N10   N     N_R   0.064868 0.057133 0.357357 0.221301
O67   O     O_R   0.069234 0.087004 0.317350 -0.405986
O68   O     O_R   0.068506 0.072504 0.417190 -0.359079
N11   N     N_R   0.936623 0.938422 0.257030 0.222526
O69   O     O_R   0.902288 0.966667 0.227490 -0.405083
O70   O     O_R   0.931026 0.897261 0.273844 -0.316664
N12   N     N_R   0.062592 0.062303 0.742112 0.221806
O71   O     O_R   0.097228 0.034443 0.771781 -0.406400
O72   O     O_R   0.067732 0.103581 0.725044 -0.321144
N13   N     N_R   0.411419 0.519666 0.600389 0.234597
O73   O     O_R   0.400835 0.476780 0.581755 -0.413075
O74   O     O_R   0.379240 0.549855 0.559217 -0.308511
N14   N     N_R   0.436501 0.561143 0.256409 0.222004
O75   O     O_R   0.402211 0.532740 0.227156 -0.406579
O76   O     O_R   0.430832 0.602296 0.272772 -0.322779
N15   N     N_R   0.564930 0.443000 0.357888 0.221571
O77   O     O_R   0.569326 0.413129 0.318159 -0.404661
O78   O     O_R   0.568603 0.427667 0.417880 -0.353256
N16   N     N_R   0.587941 0.503623 0.783180 0.227721
O79   O     O_R   0.596643 0.463021 0.813858 -0.423227
O80   O     O_R   0.618819 0.522281 0.778017 -0.294845

loop_
_geom_bond_atom_site_label_1
_geom_bond_atom_site_label_2
_geom_bond_distance
_ccdc_geom_bond_type
O29   Zn6   2.030737 S    
C55   C59   1.452557 S    
O44   C80   1.306853 A    
O12   C5    1.224087 A    
C36   C72   1.465449 S    
O36   Zn9   1.878388 S    
C43   C47   1.230513 T    
C107  H33   1.106727 S    
C12   C20   1.587624 S    
C108  H34   1.109736 S    
O46   Zn9   1.874133 S    
C24   N16   1.492249 S    
N7    O61   1.302620 A    
C14   H6    1.106963 S    
C56   C60   1.452602 S    
O20   Zn5   1.873456 S    
O40   C76   1.306106 A    
H9    C25   1.109535 S    
N2    O51   1.302624 A    
O18   C66   1.247178 A    
O17   C65   1.247179 A    
N11   O69   1.300675 A    
C91   C93   1.231160 T    
O24   Zn7   1.873456 S    
C109  H37   1.108850 S    
C17   N1    1.496413 S    
C112  H48   1.110268 S    
O39   C75   1.306105 A    
C88   C92   1.453268 S    
H12   C25   1.111667 S    
O28   C72   1.218308 A    
O13   C7    1.225482 A    
C52   C56   1.230663 T    
O14   C8    1.223550 A    
C109  H39   1.107090 S    
O33   C73   1.306394 A    
C16   C31   1.572709 S    
O46   C78   1.305648 A    
C22   C36   1.610351 S    
O45   C77   1.305648 A    
O6    C4    1.247393 A    
C10   C30   1.574603 S    
H14   C28   1.111615 S    
C51   C55   1.230643 T    
H21   C39   1.101583 S    
C10   C106  1.549456 S    
C9    C29   1.574609 S    
O23   Zn8   1.873459 S    
O30   C70   1.231441 A    
C13   C21   1.586067 S    
C5    C29   1.457885 S    
C48   C52   1.452453 S    
C110  H42   1.110619 S    
C18   N2    1.496399 S    
N6    O59   1.302141 A    
C10   H2    1.108975 S    
C105  H26   1.110623 S    
N13   O73   1.300260 A    
C98   C102  1.231264 T    
C12   C108  1.552318 S    
C107  H32   1.110615 S    
C23   C36   1.622300 S    
O26   Zn6   2.036362 S    
N12   O72   1.302771 A    
N16   O79   1.300860 A    
C1    C41   1.476933 S    
O5    Zn3   1.873839 S    
C21   N13   1.491459 S    
C13   C31   1.574755 S    
O11   C6    1.224091 A    
C61   C77   1.477332 S    
C44   C48   1.230472 T    
O48   Zn11  1.874133 S    
C3    C43   1.476835 S    
O22   C68   1.247657 A    
C106  H29   1.108306 S    
C54   C58   1.452577 S    
C26   C30   1.550148 S    
N8    O64   1.300751 A    
C25   C29   1.549926 S    
C24   C35   1.618724 S    
C15   H7    1.108982 S    
N5    O57   1.302458 A    
O25   C69   1.218090 A    
C19   N11   1.491522 S    
C16   C24   1.576122 S    
C28   C32   1.549826 S    
H15   C28   1.109476 S    
O25   Zn5   2.036360 S    
C20   N4    1.486301 S    
C111  H44   1.110662 S    
H18   C38   1.112125 S    
H23   C40   1.112095 S    
C11   C19   1.587649 S    
N9    O65   1.299649 A    
C111  H43   1.109687 S    
O12   Zn2   2.034251 S    
C108  H35   1.106737 S    
O9    Zn1   2.032309 S    
C105  H25   1.109665 S    
C26   C38   1.530386 S    
O32   C72   1.231347 A    
N10   O68   1.301984 A    
C46   C50   1.452451 S    
C27   C39   1.528018 S    
C109  H38   1.110352 S    
C81   C85   1.231039 T    
O7    C4    1.247022 A    
O42   Zn10  1.882264 S    
O6    Zn4   1.873833 S    
C15   C32   1.574537 S    
C14   C22   1.587229 S    
C57   C61   1.230713 T    
C4    C44   1.476896 S    
H19   C38   1.103241 S    
O47   C79   1.305682 A    
C36   C40   1.570300 S    
O13   Zn3   2.032309 S    
C95   C99   1.453429 S    
O38   C76   1.306411 A    
N15   O77   1.299674 A    
C17   N9    1.500049 S    
O1    C1    1.247247 A    
O31   Zn8   2.030737 S    
O30   Zn5   2.030737 S    
O34   Zn10  1.880491 S    
C42   C46   1.230499 T    
O32   Zn7   2.030737 S    
O36   C74   1.306099 A    
C12   C29   1.579499 S    
C18   C34   1.622323 S    
C41   C45   1.230496 T    
C8    C32   1.457815 S    
O28   Zn8   2.036362 S    
C83   C87   1.231110 T    
O16   Zn4   2.034251 S    
H16   C27   1.109937 S    
C75   C103  1.478224 S    
C112  H46   1.109632 S    
C62   C78   1.477332 S    
C74   C102  1.478261 S    
O17   Zn5   1.874498 S    
C66   C82   1.477771 S    
H13   C27   1.111353 S    
C21   C35   1.614625 S    
C28   C40   1.530946 S    
C73   C101  1.478162 S    
N13   O74   1.302846 A    
H22   C40   1.103233 S    
O43   C79   1.306778 A    
C20   C33   1.610160 S    
C105  H27   1.108265 S    
C22   N6    1.486325 S    
N1    O49   1.302628 A    
C14   C110  1.552405 S    
C99   C103  1.231241 T    
C15   C111  1.549434 S    
C34   C38   1.570011 S    
C49   C53   1.230650 T    
C65   C81   1.477774 S    
N3    O53   1.302106 A    
H10   C26   1.109509 S    
O16   C7    1.221416 A    
C33   C37   1.570279 S    
C106  H30   1.110669 S    
C35   C71   1.468383 S    
C63   C79   1.477313 S    
O33   Zn9   1.880488 S    
C87   C91   1.453322 S    
C110  H40   1.109752 S    
C100  C104  1.231244 T    
O14   Zn4   2.032309 S    
O2    Zn2   1.873833 S    
O21   C67   1.247435 A    
O10   Zn2   2.032309 S    
N4    O56   1.302112 A    
N5    O58   1.302294 A    
C94   C98   1.453454 S    
N16   O80   1.302774 A    
C25   C37   1.530366 S    
O38   Zn12  1.880491 S    
N14   O76   1.302753 A    
N3    O54   1.302340 A    
O41   C77   1.306823 A    
O37   Zn11  1.880488 S    
O23   C67   1.247145 A    
N9    O66   1.302017 A    
O40   Zn11  1.878388 S    
C15   C23   1.579503 S    
O8    Zn4   1.872801 S    
C108  H36   1.110617 S    
C9    C105  1.549405 S    
C16   H8    1.112687 S    
O41   Zn9   1.882267 S    
C6    C30   1.457790 S    
C9    H1    1.108921 S    
O2    C2    1.247234 A    
C23   N15   1.500219 S    
O39   Zn12  1.878385 S    
C60   C64   1.230733 T    
O15   Zn3   2.034251 S    
N10   O67   1.299664 A    
C68   C84   1.477696 S    
C86   C90   1.453305 S    
C111  H45   1.108344 S    
N15   O78   1.301971 A    
O18   Zn6   1.874495 S    
O35   C73   1.306088 A    
C97   C101  1.231208 T    
O42   C78   1.306823 A    
O27   Zn7   2.036360 S    
O27   C71   1.229958 A    
H24   C39   1.108871 S    
C10   C18   1.579571 S    
O35   Zn10  1.878385 S    
C27   C31   1.548483 S    
C7    C31   1.461279 S    
N14   O75   1.300698 A    
C11   C30   1.579118 S    
N2    O52   1.302135 A    
C16   C112  1.553064 S    
O4    Zn2   1.872801 S    
C33   C69   1.465346 S    
O1    Zn1   1.873839 S    
O19   Zn6   1.873459 S    
O5    C3    1.247419 A    
C64   C80   1.477361 S    
O48   C80   1.305633 A    
O47   Zn12  1.874136 S    
C112  H47   1.108070 S    
O44   Zn12  1.882264 S    
C90   C96   1.231180 T    
O43   Zn11  1.882267 S    
O7    Zn3   1.872795 S    
O45   Zn10  1.874136 S    
O19   C65   1.247400 A    
C84   C88   1.230962 T    
C13   H5    1.108141 S    
O10   C6    1.228080 A    
N12   O71   1.300680 A    
C21   N5    1.487173 S    
C34   C70   1.465502 S    
C18   N10   1.500188 S    
N4    O55   1.302383 A    
N1    O50   1.302144 A    
O3    C2    1.247278 A    
H17   C37   1.112114 S    
O9    C5    1.228136 A    
O20   C66   1.247399 A    
C85   C89   1.453305 S    
C2    C42   1.476934 S    
O22   Zn8   1.874495 S    
C22   N14   1.491569 S    
O34   C74   1.306436 A    
O8    C3    1.247071 A    
C93   C97   1.453374 S    
C24   N8    1.489477 S    
N8    O63   1.302984 A    
C92   C94   1.231187 T    
C110  H41   1.106728 S    
C82   C86   1.231038 T    
N6    O60   1.302344 A    
O15   C8    1.228657 A    
C67   C83   1.477843 S    
C50   C54   1.230650 T    
C12   H4    1.106996 S    
C45   C49   1.452451 S    
C107  H31   1.109757 S    
O24   C68   1.246966 A    
O31   C71   1.229061 A    
H20   C37   1.103244 S    
H11   C26   1.111647 S    
N11   O70   1.302749 A    
C11   C107  1.552291 S    
O37   C75   1.306413 A    
C47   C51   1.452448 S    
C35   C39   1.566099 S    
O29   C69   1.231472 A    
C76   C104  1.478224 S    
C13   C109  1.553542 S    
O3    Zn1   1.872795 S    
C19   N3    1.486259 S    
O11   Zn1   2.034251 S    
C106  H28   1.109704 S    
O21   Zn7   1.874498 S    
C58   C62   1.230713 T    
C9    C17   1.579604 S    
C11   H3    1.107035 S    
C89   C95   1.231177 T    
N7    O62   1.302134 A    
C59   C63   1.230705 T    
C19   C34   1.610509 S    
C17   C33   1.622190 S    
O4    C1    1.247266 A    
C20   N12   1.491511 S    
O26   C70   1.218202 A    
C53   C57   1.452577 S    
C96   C100  1.453426 S    
C14   C32   1.579552 S    
C23   N7    1.496393 S    
