data_mof_unit_65692.cif
_audit_creation_date              2012-12-10T17:08:40-0500
_audit_creation_method            fapswitch 2.2
_symmetry_space_group_name_H-M    P1
_symmetry_Int_Tables_number       1
_space_group_crystal_system       triclinic
_cell_length_a                    15.740349
_cell_length_b                    10.743304
_cell_length_c                    10.056024
_cell_angle_alpha                 89.831797
_cell_angle_beta                  90.190549
_cell_angle_gamma                 90.109666
_cell_volume                      1700.48757502

loop_
_atom_site_label
_atom_site_type_symbol
_atom_type_description
_atom_site_fract_x
_atom_site_fract_y
_atom_site_fract_z
_atom_type_partial_charge
C1    C     C_R   0.495297 0.262890 0.499994 0.847800
C2    C     C_3   0.951715 0.411101 0.612260 -0.077550
C3    C     C_3   0.917339 0.498156 0.500414 -0.009975
C4    C     C_3   0.950214 0.631886 0.527420 -0.422478
C5    C     C_3   0.048436 0.634135 0.525935 0.038959
C6    C     C_1   0.825818 0.498795 0.500611 0.065475
C7    C     C_1   0.174218 0.500239 0.499659 0.060672
C8    C     C_1   0.249528 0.500029 0.499434 -0.078638
C9    C     C_2   0.470408 0.932687 0.397810 0.447209
C10   C     C_2   0.507649 0.868704 0.496488 0.337065
C11   C     C_2   0.481366 0.065181 0.390123 0.463296
C12   C     C_R   0.338409 0.499956 0.499836 0.870310
C13   C     C_2   0.475505 0.133275 0.500885 0.330526
C14   C     C_2   0.495498 0.599086 0.926313 0.064314
C15   C     C_2   0.515203 0.596917 0.072466 0.042634
C16   C     C_R   0.500624 0.737173 0.499532 0.864195
C17   C     C_R   0.661598 0.499924 0.500150 0.881929
C18   C     C_3   0.049929 0.410423 0.609609 -0.516768
C19   C     C_3   0.049104 0.454272 0.363855 0.427789
C20   C     C_3   0.950756 0.454572 0.363135 0.476991
C21   C     C_1   0.750498 0.499428 0.500544 -0.072727
C22   C     C_3   0.082710 0.500494 0.500472 0.000563
H1    H     H_    0.075004 0.437567 0.708918 0.249435
H2    H     H_    0.930679 0.447465 0.710346 0.213721
H3    H     H_    0.925472 0.697465 0.450667 0.239705
H4    H     H_    0.478952 0.687413 0.880800 0.126408
H5    H     H_    0.540571 0.680920 0.117174 0.144974
H6    H     H_    0.073915 0.314960 0.589825 0.217831
H7    H     H_    0.071804 0.357662 0.345928 0.069493
H8    H     H_    0.927420 0.358965 0.341526 0.086213
H9    H     H_    0.069751 0.696600 0.444024 0.210433
H10   H     H_    0.925939 0.664770 0.624925 0.216382
N1    N     N_2   0.500900 0.501330 0.852150 0.156136
N2    N     N_2   0.500920 0.501360 0.147810 0.007830
O1    O     O_R   0.499990 0.319060 0.613040 -0.517158
O2    O     O_R   0.500010 0.319100 0.386900 -0.580228
O3    O     O_R   0.377130 0.499990 0.613120 -0.618974
O4    O     O_R   0.377160 0.500030 0.386980 -0.597410
O5    O     O_R   0.499990 0.680900 0.613100 -0.609966
O6    O     O_R   0.500010 0.680940 0.386960 -0.616425
O7    O     O_R   0.622840 0.499970 0.613020 -0.575493
O8    O     O_R   0.622870 0.500010 0.386880 -0.603721
Zn1   Zn    Zn3+2 0.499980 0.499970 0.650990 1.131473
Zn2   Zn    Zn3+2 0.500020 0.500030 0.349010 1.092769
I1    I     I_    0.902362 0.223261 0.602814 -0.254151
F1    F     F_    0.424797 0.875738 0.299896 -0.620711
F2    F     F_    0.559345 0.923390 0.588414 -0.613544
F3    F     F_    0.501025 0.115176 0.269514 -0.586892
F4    F     F_    0.445398 0.083603 0.616572 -0.598031
F5    F     F_    0.549416 0.409737 0.901430 -0.499095
I2    I     I_    0.407358 0.371764 0.092146 0.062219
F6    F     F_    0.080198 0.528502 0.261718 -0.576409
F7    F     F_    0.920359 0.531783 0.262859 -0.575837
I3    I     I_    0.097564 0.718125 0.705737 -0.222569

loop_
_geom_bond_atom_site_label_1
_geom_bond_atom_site_label_2
_ccdc_geom_bond_type
O3    Zn1   S    
C20   H8    S    
O4    Zn2   S    
C7    C8    T    
C2    C18   S    
C7    C22   S    
O1    Zn1   S    
C9    C10   D    
C15   N2    D    
C15   H5    S    
C19   C20   S    
O6    Zn2   S    
C8    C12   S    
C3    C6    S    
C14   N1    D    
C18   C22   S    
C4    H3    S    
N2    I2    S    
C18   H6    S    
C9    F1    S    
C10   C16   S    
C14   H4    S    
C12   O4    A    
O7    Zn1   S    
C11   F3    S    
C4    H10   S    
O8    Zn2   S    
C16   O6    A    
C13   F4    S    
C2    C3    S    
C6    C21   T    
C9    C11   S    
C2    I1    S    
C2    H2    S    
C17   O7    A    
O2    Zn2   S    
C11   C13   D    
C1    C13   S    
C16   O5    A    
C3    C4    S    
N1    Zn1   S    
C5    I3    S    
C3    C20   S    
C19   C22   S    
N2    Zn2   S    
C1    O1    A    
C12   O3    A    
C17   O8    A    
C4    C5    S    
O5    Zn1   S    
N1    F5    S    
C14   C15   S    
C10   F2    S    
C19   F6    S    
C17   C21   S    
C5    C22   S    
C18   H1    S    
C1    O2    A    
C20   F7    S    
C5    H9    S    
C19   H7    S    
