data_mof_unit_20229.cif
_audit_creation_date              2012-12-10T17:56:44-0500
_audit_creation_method            fapswitch 2.2
_symmetry_space_group_name_H-M    P1
_symmetry_Int_Tables_number       1
_space_group_crystal_system       triclinic
_cell_length_a                    10.866162
_cell_length_b                    9.609519
_cell_length_c                    10.852315
_cell_angle_alpha                 89.749195
_cell_angle_beta                  91.593258
_cell_angle_gamma                 89.454396
_cell_volume                      1132.68176369

loop_
_atom_site_label
_atom_site_type_symbol
_atom_type_description
_atom_site_fract_x
_atom_site_fract_y
_atom_site_fract_z
_atom_type_partial_charge
C1    C     C_R   0.263207 0.501075 0.511518 0.862081
C2    C     C_R   0.737950 0.499682 0.500857 0.870808
C3    C     C_R   0.937121 0.623327 0.482758 0.239001
C4    C     C_R   0.062450 0.629565 0.510166 0.252484
C5    C     C_R   0.426445 0.076378 0.419449 0.022139
C6    C     C_R   0.574179 0.073953 0.579978 0.024591
C7    C     C_R   0.426232 0.928815 0.418535 0.360169
C8    C     C_R   0.575130 0.926350 0.580198 0.361707
C9    C     C_R   0.507414 0.500775 0.262687 0.820002
C10   C     C_R   0.492377 0.500490 0.737277 0.776888
C11   C     C_R   0.563063 0.754896 0.110667 -0.168294
C12   C     C_R   0.434658 0.755158 0.885701 -0.172403
C13   C     C_R   0.538343 0.880171 0.049571 0.289672
C14   C     C_R   0.461722 0.880617 0.943233 0.287507
C15   C     C_R   0.478329 0.629086 0.937404 0.050889
C16   C     C_R   0.519126 0.629262 0.061106 0.047670
C17   C     C_R   0.514464 0.503389 0.128303 -0.100921
C18   C     C_R   0.484454 0.502911 0.871570 -0.098672
C19   C     C_R   0.500977 0.378743 0.064267 -0.122116
C20   C     C_R   0.499536 0.378481 0.936889 -0.134083
C21   C     C_R   0.066327 0.382196 0.560748 0.387697
C22   C     C_R   0.938337 0.382397 0.556802 0.394347
C23   C     C_R   0.872574 0.500524 0.510514 -0.355053
C24   C     C_R   0.129841 0.504745 0.529827 -0.386916
Cu1   Cu    Cu3+1 0.500000 0.640660 0.500000 1.061715
Cu2   Cu    Cu3+1 0.500000 0.359340 0.500000 1.017329
H1    H     H_    0.492812 0.281896 0.112904 0.222204
H2    H     H_    0.509667 0.281557 0.889375 0.223846
H3    H     H_    0.619498 0.756695 0.194278 0.211469
H4    H     H_    0.377740 0.757369 0.802342 0.204013
H5    H     H_    0.367640 0.133755 0.354712 0.176583
H6    H     H_    0.633626 0.129362 0.644108 0.172223
N1    N     N_R   0.500000 0.852070 0.500000 -0.226942
N2    N     N_R   0.500000 0.147940 0.500000 -0.215782
O1    O     O_R   0.319640 0.618740 0.499990 -0.519903
O2    O     O_R   0.680360 0.618740 0.500010 -0.520668
O3    O     O_R   0.319620 0.381170 0.499990 -0.568262
O4    O     O_R   0.680380 0.381170 0.500010 -0.565646
O5    O     O_R   0.500000 0.618810 0.319650 -0.563370
O6    O     O_R   0.500000 0.618810 0.680350 -0.568246
O7    O     O_R   0.499970 0.381240 0.319640 -0.578618
O8    O     O_R   0.500030 0.381240 0.680360 -0.595320
Br1   Br    Br    0.615586 0.042287 0.113676 -0.464639
Br2   Br    Br    0.389042 0.044502 0.872842 -0.482235
O9    O     O_3   0.125612 0.263704 0.604877 -0.595688
H7    H     H_    0.195844 0.292952 0.658632 0.340885
O10   O     O_3   0.880803 0.266481 0.602162 -0.608381
H8    H     H_    0.817275 0.299804 0.659139 0.321397
Br3   Br    Br    0.863291 0.781864 0.396161 -0.320460
Br4   Br    Br    0.129532 0.811522 0.545348 -0.288033
Br5   Br    Br    0.319898 0.845077 0.296839 -0.387317
Br6   Br    Br    0.688534 0.838719 0.695068 -0.391347

loop_
_geom_bond_atom_site_label_1
_geom_bond_atom_site_label_2
_ccdc_geom_bond_type
C15   C18   A    
C6    H6    S    
Cu2   O3    S    
C13   C14   A    
C10   O8    A    
C19   H1    S    
C11   C16   A    
C2    O4    A    
C14   Br2   S    
C9    O7    A    
C19   C20   A    
C1    C24   S    
C12   C15   A    
C1    O3    A    
C5    N2    A    
C22   O10   S    
C3    Br3   S    
C7    Br5   S    
C21   C22   A    
Cu1   O5    S    
C11   C13   A    
C11   H3    S    
Cu1   O1    S    
C9    C17   S    
C17   C19   A    
C10   C18   S    
C21   O9    S    
C8    N1    A    
Cu1   O6    S    
C4    C24   A    
Cu1   N1    S    
C7    N1    A    
Cu1   O2    S    
C15   C16   A    
O10   H8    S    
C6    N2    A    
C13   Br1   S    
Cu2   O8    S    
C18   C20   A    
C10   O6    A    
C21   C24   A    
C2    O2    A    
C2    C23   S    
C5    C7    A    
C1    O1    A    
C8    Br6   S    
C22   C23   A    
Cu2   O4    S    
C6    C8    A    
C20   H2    S    
C12   H4    S    
Cu1   Cu2   S    
O9    H7    S    
C3    C23   A    
Cu2   N2    S    
C9    O5    A    
C4    Br4   S    
C3    C4    A    
Cu2   O7    S    
C12   C14   A    
C16   C17   A    
C5    H5    S    
