data_mof_unit_47695.cif
_audit_creation_date              2012-10-26T18:30:17-0400
_audit_creation_method            fapswitch 2.2
_symmetry_space_group_name_H-M    P1
_symmetry_Int_Tables_number       1
_space_group_crystal_system       triclinic
_cell_length_a                    10.628345
_cell_length_b                    13.014032
_cell_length_c                    11.673651
_cell_angle_alpha                 99.804592
_cell_angle_beta                  93.387574
_cell_angle_gamma                 90.372069
_cell_volume                      1588.08301603

loop_
_atom_site_label
_atom_site_type_symbol
_atom_type_description
_atom_site_fract_x
_atom_site_fract_y
_atom_site_fract_z
_atom_type_partial_charge
C1    C     C_R   0.497485 0.299157 0.478683 0.550214
C2    C     C_R   0.602057 0.592722 0.855981 0.062030
C3    C     C_R   0.547214 0.545413 0.157038 0.069946
C4    C     C_R   0.452782 0.454585 0.842959 0.070051
C5    C     C_R   0.540315 0.537732 0.034213 0.014899
C6    C     C_R   0.459672 0.462268 0.965786 0.016592
C7    C     C_R   0.259195 0.499952 0.500674 0.554446
C8    C     C_R   0.740806 0.500045 0.499325 0.556543
C9    C     C_3   0.047003 0.506721 0.610569 -0.109531
C10   C     C_3   0.953001 0.493273 0.389428 -0.108479
C11   C     C_3   0.959773 0.417862 0.544471 -0.117937
C12   C     C_R   0.502206 0.700848 0.521334 0.550804
C13   C     C_3   0.040232 0.582132 0.455526 -0.118806
C14   C     C_3   0.877578 0.499945 0.498302 0.038653
C15   C     C_3   0.122425 0.500049 0.501695 0.038177
C16   C     C_3   0.962518 0.588801 0.564340 -0.122408
C17   C     C_3   0.037487 0.411192 0.435657 -0.121844
C18   C     C_R   0.504319 0.814177 0.533825 -0.057998
C19   C     C_R   0.493499 0.185858 0.466361 -0.061596
C20   C     C_R   0.461534 0.016244 0.344595 0.237923
C21   C     C_R   0.531743 0.983919 0.656273 0.225774
C22   C     C_R   0.467602 0.124454 0.357092 -0.114269
C23   C     C_R   0.513929 0.139519 0.564860 -0.105910
C24   C     C_R   0.528575 0.875623 0.643324 -0.119071
C25   C     C_R   0.482556 0.860543 0.435506 -0.104402
C26   C     C_R   0.510088 0.031338 0.556227 0.000135
C27   C     C_R   0.484305 0.968773 0.444456 0.000147
C28   C     C_R   0.388133 0.396734 0.021806 -0.132618
C29   C     C_R   0.611849 0.603270 0.978195 -0.137020
C30   C     C_R   0.397932 0.407281 0.144021 0.067062
Cu1   Cu    Cu3+1 0.509400 0.507730 0.615930 0.963600
Cu2   Cu    Cu3+1 0.490600 0.492270 0.384070 0.966973
H1    H     H_    0.923603 0.350606 0.580628 0.136694
H2    H     H_    0.451079 0.161354 0.281341 0.171518
H3    H     H_    0.390588 0.397076 0.789516 0.130983
H4    H     H_    0.609415 0.602916 0.210479 0.129730
H5    H     H_    0.657378 0.643725 0.813731 0.135881
H6    H     H_    0.342610 0.356278 0.186272 0.128039
H7    H     H_    0.325228 0.337726 0.971653 0.128804
H8    H     H_    0.674747 0.662282 0.028351 0.131378
H9    H     H_    0.307719 0.051429 0.122594 0.344493
H10   H     H_    0.499916 0.947291 0.904686 0.380970
H11   H     H_    0.076406 0.649387 0.419370 0.137224
H12   H     H_    0.088150 0.512192 0.701103 0.135003
H13   H     H_    0.911856 0.487802 0.298894 0.135891
H14   H     H_    0.928571 0.661473 0.616773 0.128627
H15   H     H_    0.071439 0.338521 0.383225 0.123943
H16   H     H_    0.464709 0.810938 0.352046 0.211956
H17   H     H_    0.533590 0.189101 0.648065 0.211544
H18   H     H_    0.546173 0.838651 0.718859 0.160602
N1    N     N_R   0.523540 0.519360 0.790140 -0.236091
N2    N     N_R   0.476460 0.480640 0.209860 -0.234123
O1    O     O_R   0.506670 0.354460 0.582000 -0.505507
O2    O     O_2   0.310955 0.874970 0.205060 -0.298717
O3    O     O_3   0.393045 0.024631 0.106426 -0.481772
O4    O     O_2   0.681565 0.120945 0.800686 -0.246240
O5    O     O_2   0.455894 0.127300 0.831346 -0.296951
O6    O     O_3   0.584801 0.976524 0.897473 -0.446503
O7    O     O_R   0.493330 0.645540 0.418000 -0.505855
O8    O     O_R   0.490800 0.341410 0.386200 -0.506676
O9    O     O_R   0.509200 0.658590 0.613800 -0.509015
O10   O     O_R   0.324790 0.506500 0.597880 -0.507559
O11   O     O_R   0.675210 0.493500 0.402120 -0.505665
O12   O     O_R   0.308910 0.493440 0.402080 -0.504462
O13   O     O_R   0.691090 0.506560 0.597920 -0.503065
O14   O     O_2   0.534009 0.877750 0.164544 -0.254363
S1    S     S_3+6 0.424161 0.944389 0.202974 0.004950
S2    S     S_3+6 0.563675 0.056097 0.798694 0.022253

loop_
_geom_bond_atom_site_label_1
_geom_bond_atom_site_label_2
_ccdc_geom_bond_type
C23   C26   A    
O3    S1    S    
C3    N2    A    
C30   H6    S    
C7    O10   A    
C1    O8    A    
C20   C27   A    
C6    C28   A    
C25   C27   A    
Cu1   O9    S    
C20   S1    S    
C19   C23   A    
Cu1   Cu2   S    
C2    H5    S    
C11   H1    S    
C21   C26   A    
H10   O6    S    
C10   H13   S    
C28   C30   A    
O14   S1    D    
C9    C15   S    
C4    H3    S    
C8    O13   A    
Cu1   O1    S    
C1    O1    A    
C12   O9    A    
C9    C11   S    
C25   H16   S    
Cu1   O10   S    
C26   C27   A    
Cu1   O13   S    
C18   C25   A    
C30   N2    A    
C3    H4    S    
C2    C29   A    
C18   C24   A    
C29   H8    S    
O6    S2    S    
C9    C16   S    
C20   C22   A    
C5    C29   A    
C13   C15   S    
C21   S2    S    
C24   H18   S    
C5    C6    A    
C22   H2    S    
C11   C14   S    
C14   C16   S    
C7    O12   A    
C1    C19   S    
C23   H17   S    
C2    N1    A    
C21   C24   A    
C4    N1    A    
C16   H14   S    
C10   C17   S    
C13   H11   S    
C19   C22   A    
Cu2   O12   S    
C4    C6    A    
C8    O11   A    
C10   C14   S    
C13   C16   S    
C12   C18   S    
C15   C17   S    
Cu2   O8    S    
Cu2   N2    S    
C9    H12   S    
C8    C14   S    
O2    S1    D    
O5    S2    D    
Cu2   O7    S    
C7    C15   S    
O4    S2    D    
C12   O7    A    
H9    O3    S    
C17   H15   S    
Cu2   O11   S    
Cu1   N1    S    
C28   H7    S    
C3    C5    A    
C10   C13   S    
C11   C17   S    
