data_mof_unit_23283.cif
_audit_creation_date              2012-12-11T17:11:43-0500
_audit_creation_method            fapswitch 2.2
_symmetry_space_group_name_H-M    P1
_symmetry_Int_Tables_number       1
_space_group_crystal_system       triclinic
_cell_length_a                    15.018289
_cell_length_b                    6.93864
_cell_length_c                    13.594846
_cell_angle_alpha                 89.584681
_cell_angle_beta                  100.82014
_cell_angle_gamma                 90.589434
_cell_volume                      1391.39076516

loop_
_atom_site_label
_atom_site_type_symbol
_atom_type_description
_atom_site_fract_x
_atom_site_fract_y
_atom_site_fract_z
_atom_type_partial_charge
O1    O     O_R   0.398250 0.605080 0.401520 -0.534459
O2    O     O_R   0.898250 0.394920 0.901520 -0.541481
O3    O     O_R   0.584130 0.932110 0.405450 -0.553530
O4    O     O_R   0.084130 0.067890 0.905450 -0.555593
O5    O     O_R   0.601750 0.105090 0.598480 -0.532362
O6    O     O_R   0.101750 0.894910 0.098480 -0.533880
C1    C     C_R   0.616918 0.765308 0.390128 0.628708
C2    C     C_R   0.110275 0.238675 0.881600 0.647818
O7    O     O_R   0.397870 0.934620 0.389680 -0.537203
O8    O     O_R   0.897870 0.065380 0.889680 -0.537333
O9    O     O_R   0.414160 0.107620 0.582600 -0.543072
O10   O     O_R   0.914160 0.892380 0.082600 -0.546650
C3    C     C_R   0.363924 0.765553 0.362741 0.739674
C4    C     C_R   0.864089 0.234097 0.862508 0.721715
O11   O     O_R   0.585840 0.602550 0.417400 -0.535401
O12   O     O_R   0.085840 0.397450 0.917400 -0.525157
O13   O     O_3   0.505560 0.772440 0.563310 -0.368341
O14   O     O_3   0.005560 0.227560 0.063310 -0.367077
V1    V     V_3+5 0.498970 0.046250 0.488250 1.415829
V2    V     V_3+5 0.998970 0.953750 0.988250 1.408603
O15   O     O_R   0.415870 0.437500 0.594550 -0.542291
O16   O     O_R   0.915870 0.562500 0.094550 -0.541159
C5    C     C_R   0.390950 0.267007 0.619331 0.701873
C6    C     C_R   0.883227 0.728803 0.110546 0.705126
O17   O     O_R   0.602130 0.434980 0.610320 -0.546073
O18   O     O_R   0.102130 0.565020 0.110320 -0.535911
C7    C     C_R   0.636211 0.266172 0.637035 0.719753
C8    C     C_R   0.135931 0.734267 0.137394 0.745818
V3    V     V_3+5 0.501030 0.546580 0.511750 1.413515
V4    V     V_3+5 0.001030 0.453420 0.011750 1.424828
O19   O     O_3   0.494440 0.270520 0.436690 -0.366685
O20   O     O_3   0.994440 0.729480 0.936690 -0.371570
C9    C     C_1   0.716584 0.255550 0.716586 -0.190897
C10   C     C_1   0.216231 0.745013 0.217025 -0.190383
C11   C     C_1   0.783834 0.244814 0.782799 -0.191248
C12   C     C_1   0.283534 0.754797 0.283234 -0.192979
C13   C     C_2   0.270812 0.128252 0.698073 -0.148527
C14   C     C_2   0.781229 0.879409 0.210884 -0.120281
C15   C     C_2   0.341963 0.252585 0.704029 0.030113
C16   C     C_2   0.802799 0.724301 0.160230 0.026968
H1    H     H_    0.253997 0.036296 0.632794 0.105622
H2    H     H_    0.820499 0.011742 0.211027 0.111759
C17   C     C_2   0.211045 0.107906 0.773480 -0.233004
C18   C     C_2   0.704031 0.883437 0.265314 -0.227260
C19   C     C_2   0.170461 0.260126 0.807214 0.233209
C20   C     C_2   0.697362 0.760140 0.340963 0.266035
H3    H     H_    0.193484 0.962644 0.793747 0.128303
H4    H     H_    0.654178 0.996232 0.245263 0.108936
C21   C     C_3   0.379669 0.368418 0.797701 -0.268920
C22   C     C_3   0.479730 0.325666 0.836887 -0.822647
H5    H     H_    0.489703 0.168468 0.849979 0.229747
H6    H     H_    0.522042 0.376824 0.783108 0.229574
H7    H     H_    0.502705 0.402032 0.908795 0.222321
H8    H     H_    0.371931 0.524710 0.780133 0.193710
H9    H     H_    0.343999 0.335484 0.860197 0.214354
C23   C     C_3   0.743528 0.542322 0.145692 -0.276716
C24   C     C_3   0.700388 0.513611 0.035611 -0.817343
H10   H     H_    0.657123 0.638684 0.007607 0.228558
H11   H     H_    0.752750 0.496594 0.988736 0.237938
H12   H     H_    0.657482 0.381287 0.027945 0.218275
H13   H     H_    0.785389 0.414951 0.173272 0.184776
H14   H     H_    0.687047 0.544221 0.187384 0.204757
O21   O     O_3   0.189123 0.444449 0.776087 -0.573167
C25   C     C_3   0.117707 0.510664 0.700884 0.110083
H15   H     H_    0.081334 0.625150 0.733780 0.136854
H16   H     H_    0.067140 0.396948 0.669632 0.075837
C26   C     C_3   0.158636 0.596067 0.615148 -0.289124
H17   H     H_    0.214461 0.697521 0.645870 0.195624
H18   H     H_    0.187622 0.478290 0.576365 0.185976
C27   C     C_3   0.088152 0.702938 0.539542 -0.871148
H19   H     H_    0.031206 0.604534 0.508287 0.239340
H20   H     H_    0.119862 0.757844 0.477207 0.231422
H21   H     H_    0.061832 0.827472 0.575896 0.236325
O22   O     O_3   0.766630 0.627284 0.370245 -0.571491
C28   C     C_3   0.794816 0.618441 0.475839 0.078336
H22   H     H_    0.846449 0.503300 0.492172 0.132454
H23   H     H_    0.739177 0.573006 0.514444 0.125336
C29   C     C_3   0.838792 0.808185 0.519565 -0.354483
H24   H     H_    0.896635 0.845865 0.482572 0.207294
H25   H     H_    0.789107 0.927386 0.505577 0.182102
C30   C     C_3   0.872159 0.790734 0.632461 -0.807098
H26   H     H_    0.814039 0.764216 0.670853 0.236947
H27   H     H_    0.906754 0.926657 0.661490 0.222440
H28   H     H_    0.920740 0.670264 0.649803 0.217360

loop_
_geom_bond_atom_site_label_1
_geom_bond_atom_site_label_2
_ccdc_geom_bond_type
V4    O20   S    
O13   V3    S    
O4    C2    A    
V1    O19   S    
C30   H26   S    
C7    C9    S    
O9    V1    S    
O16   C6    A    
C14   H2    S    
O3    C1    A    
C9    C11   T    
C29   H25   S    
C24   H11   S    
O12   V4    S    
C21   H8    S    
C23   C24   S    
O7    C3    A    
C2    C19   S    
O13   V1    S    
O5    C7    A    
O7    V1    S    
O6    C8    A    
O8    V2    S    
C16   C23   S    
C22   H6    S    
O3    V1    S    
C27   H19   S    
O14   V4    S    
O14   V2    S    
C1    O11   A    
C8    C10   S    
C2    O12   A    
C30   H27   S    
C18   C20   D    
O11   V3    S    
O17   V3    S    
C22   H7    S    
O22   C28   S    
C26   H17   S    
C25   C26   S    
C3    C12   S    
O8    C4    A    
C4    C11   S    
C29   H24   S    
C24   H12   S    
C21   H9    S    
O15   V3    S    
C19   O21   S    
C26   H18   S    
C25   H16   S    
C13   C17   S    
C28   H22   S    
C1    C20   S    
C14   C18   S    
C28   H23   S    
O10   V2    S    
C27   H21   S    
O1    V3    S    
C22   H5    S    
C17   C19   D    
C15   C21   S    
O18   V4    S    
O15   C5    A    
C23   H14   S    
O1    C3    A    
C20   O22   S    
C30   H28   S    
V2    O20   S    
O16   V4    S    
O5    V1    S    
O17   C7    A    
O6    V2    S    
O10   C6    A    
O18   C8    A    
O2    V4    S    
C26   C27   S    
C25   H15   S    
V3    O19   S    
C14   C16   D    
C29   C30   S    
C24   H10   S    
C5    C15   S    
O9    C5    A    
C6    C16   S    
C10   C12   T    
C13   H1    S    
O2    C4    A    
C28   C29   S    
O21   C25   S    
O4    V2    S    
C13   C15   D    
C21   C22   S    
C23   H13   S    
C27   H20   S    
C17   H3    S    
C18   H4    S    
