data_mof_unit_40062.cif
_audit_creation_date              2012-12-10T17:26:24-0500
_audit_creation_method            fapswitch 2.2
_symmetry_space_group_name_H-M    P1
_symmetry_Int_Tables_number       1
_space_group_crystal_system       triclinic
_cell_length_a                    10.275027
_cell_length_b                    10.724802
_cell_length_c                    27.233711
_cell_angle_alpha                 90.963041
_cell_angle_beta                  80.246946
_cell_angle_gamma                 97.827417
_cell_volume                      2930.09777921

loop_
_atom_site_label
_atom_site_type_symbol
_atom_type_description
_atom_site_fract_x
_atom_site_fract_y
_atom_site_fract_z
_atom_type_partial_charge
Br1   Br    Br    0.120038 0.337310 0.462002 -0.478564
Br2   Br    Br    0.885151 0.669684 0.533686 -0.410880
Br3   Br    Br    0.609378 0.753823 0.353330 -0.292954
Br4   Br    Br    0.388097 0.237359 0.638250 -0.396813
Br5   Br    Br    0.582002 0.097457 0.418298 -0.346511
Br6   Br    Br    0.413672 0.903896 0.579070 -0.399551
C1    C     C_R   0.558959 0.733545 0.497153 0.950518
C2    C     C_R   0.708622 0.498612 0.119348 -0.054188
C3    C     C_R   0.502330 0.497528 0.647563 -0.147585
C4    C     C_R   0.500111 0.491102 0.352566 -0.177649
C5    C     C_R   0.713529 0.501089 0.015613 0.050999
C6    C     C_R   0.578056 0.299829 0.968729 0.034802
C7    C     C_R   0.571372 0.298161 0.021299 0.100746
C8    C     C_R   0.680445 0.519474 0.968047 0.094941
C9    C     C_R   0.639964 0.399597 0.044536 0.048836
C10   C     C_R   0.616852 0.416873 0.943896 0.044095
C11   C     C_R   0.809174 0.584161 0.036547 -0.106174
C12   C     C_R   0.440963 0.266520 0.502522 0.950685
C13   C     C_R   0.538656 0.192064 0.940937 -0.025318
C14   C     C_R   0.801938 0.587618 0.088848 -0.096720
C15   C     C_R   0.500634 0.208307 0.894067 -0.086237
C16   C     C_R   0.499628 0.500610 0.594000 0.875761
C17   C     C_R   0.500595 0.498750 0.406057 0.881842
C18   C     C_R   0.696472 0.640037 0.946679 -0.199410
C19   C     C_R   0.487047 0.204907 0.051458 -0.194219
C20   C     C_2   0.599379 0.869212 0.492861 -0.251348
C21   C     C_2   0.399959 0.130857 0.505183 -0.250648
C22   C     C_2   0.508614 0.943178 0.512049 0.120407
C23   C     C_R   0.585192 0.433261 0.896229 -0.047620
C24   C     C_2   0.490956 0.057727 0.485717 0.121549
C25   C     C_2   0.931512 0.517874 0.500649 0.136307
C26   C     C_2   0.070016 0.484550 0.497827 0.142339
C27   C     C_R   0.557812 0.567646 0.829499 0.523760
C28   C     C_R   0.537738 0.316696 0.178464 0.649602
C29   C     C_R   0.479575 0.355154 0.827040 0.598724
C30   C     C_R   0.690363 0.499395 0.171945 0.520183
C31   C     C_R   0.509740 0.363687 0.717519 -0.004921
C32   C     C_R   0.561586 0.585881 0.269845 -0.097407
C33   C     C_R   0.469743 0.380073 0.671636 0.159171
C34   C     C_R   0.630966 0.402204 0.096734 -0.080282
C35   C     C_R   0.553390 0.596907 0.322098 0.258149
C36   C     C_R   0.578766 0.596941 0.669004 -0.145807
C37   C     C_R   0.434567 0.382937 0.332324 -0.193805
C38   C     C_R   0.604341 0.582407 0.718167 -0.069840
C39   C     C_R   0.429107 0.382790 0.281185 0.032363
C40   C     C_R   0.545605 0.471160 0.746070 0.111187
C41   C     C_R   0.525655 0.465216 0.249789 0.089454
C42   C     C_2   0.635827 0.710747 0.637741 0.577141
C43   C     C_2   0.376124 0.270431 0.363922 0.525474
C44   C     C_2   0.261734 0.076850 0.527505 0.591397
C45   C     C_R   0.604611 0.555154 0.874655 -0.044384
C46   C     C_2   0.735486 0.921762 0.467762 0.583878
C47   C     C_2   0.115849 0.582345 0.570778 0.694213
C48   C     C_2   0.881034 0.416776 0.429142 0.683201
C49   C     C_2   0.709911 0.669739 0.736753 0.661657
C50   C     C_2   0.302404 0.329790 0.264285 0.577717
C51   C     C_2   0.699897 0.788337 0.879387 0.546823
C52   C     C_2   0.369727 0.111408 0.130447 0.548400
C53   C     C_2   0.585871 0.698759 0.236720 0.634365
C54   C     C_2   0.547520 0.238909 0.727981 0.510313
C55   C     C_2   0.887861 0.689025 0.110427 0.518414
C56   C     C_R   0.546301 0.306856 0.126486 -0.048901
C57   C     C_2   0.452612 0.096714 0.865695 0.511153
C58   C     C_2   0.923877 0.659057 0.004074 0.398070
C59   C     C_2   0.559216 0.064298 0.956550 0.355351
C60   C     C_R   0.662804 0.659100 0.900167 -0.028327
C61   C     C_R   0.472648 0.207946 0.103289 -0.024188
C62   C     C_R   0.520288 0.330678 0.872486 -0.085178
H1    H     H_    0.732807 0.721859 0.966736 0.147411
H2    H     H_    0.230134 0.261733 0.286793 0.134822
H3    H     H_    0.693107 0.868449 0.904032 0.058900
H4    H     H_    0.359891 0.015539 0.116722 0.047322
H5    H     H_    0.547362 0.693229 0.201891 0.032939
H6    H     H_    0.493639 0.152575 0.716328 0.146561
H7    H     H_    0.995502 0.695812 0.100878 0.052166
H8    H     H_    0.494947 0.086513 0.826800 0.141307
H9    H     H_    0.971474 0.747390 0.016749 0.069548
H10   H     H_    0.500596 0.980073 0.945631 0.113504
H11   H     H_    0.422073 0.134157 0.035119 0.136793
H12   H     H_    0.580761 0.741624 0.610777 0.068934
H13   H     H_    0.365404 0.275509 0.404055 0.084820
H14   H     H_    0.225929 0.978939 0.521089 0.113881
H15   H     H_    0.773113 0.019818 0.472998 0.113465
H16   H     H_    0.023463 0.536070 0.592275 0.035524
H17   H     H_    0.970238 0.465451 0.406435 0.034008
H18   H     H_    0.782280 0.631809 0.754956 0.051428
N1    N     N_R   0.532589 0.463730 0.800879 -0.322946
N2    N     N_R   0.581321 0.429040 0.199025 -0.335895
N3    N     N_2   0.842700 0.448890 0.480020 -0.160984
N4    N     N_2   0.157300 0.551110 0.519980 -0.159948
O1    O     O_R   0.431060 0.692470 0.504020 -0.566043
O2    O     O_2   0.497160 0.213565 0.207487 -0.481188
O3    O     O_2   0.783522 0.562483 0.195803 -0.482433
O4    O     O_2   0.379795 0.277612 0.811750 -0.540754
O5    O     O_2   0.747282 0.765623 0.639000 -0.476702
O6    O     O_2   0.345738 0.168395 0.345408 -0.495273
O7    O     O_2   0.186467 0.140710 0.552822 -0.464589
O8    O     O_2   0.807109 0.856419 0.441471 -0.472798
O9    O     O_2   0.185435 0.660923 0.591174 -0.488939
O10   O     O_2   0.812155 0.334802 0.410039 -0.492495
O11   O     O_2   0.712272 0.783710 0.734683 -0.416371
O12   O     O_R   0.568940 0.307530 0.495980 -0.566512
O13   O     O_2   0.273559 0.367661 0.225994 -0.536634
O14   O     O_2   0.748530 0.806764 0.835669 -0.484675
O15   O     O_2   0.288941 0.139335 0.165709 -0.466787
O16   O     O_2   0.650801 0.796936 0.246682 -0.421550
O17   O     O_2   0.643243 0.231788 0.748460 -0.563500
O18   O     O_2   0.838470 0.768860 0.137092 -0.483619
O19   O     O_2   0.361858 0.018204 0.885023 -0.533814
O20   O     O_2   0.968806 0.620514 0.963086 -0.499203
O21   O     O_2   0.646110 0.051752 0.980923 -0.552708
O22   O     O_R   0.651120 0.659650 0.491200 -0.557193
O23   O     O_R   0.348880 0.340350 0.508800 -0.555795
O24   O     O_R   0.389980 0.516390 0.577660 -0.557309
O25   O     O_R   0.610020 0.483610 0.422340 -0.563059
O26   O     O_R   0.610040 0.483570 0.564830 -0.596181
O27   O     O_R   0.389960 0.516430 0.435170 -0.599214
O28   O     O_2   0.523162 0.678419 0.817385 -0.478841
Zn1   Zn    Zn3+2 0.353060 0.521910 0.508560 1.079993
Zn2   Zn    Zn3+2 0.646940 0.478090 0.491440 1.082065

loop_
_geom_bond_atom_site_label_1
_geom_bond_atom_site_label_2
_ccdc_geom_bond_type
C42   O5    D    
C58   H9    S    
C19   C61   A    
C3    C33   A    
C51   C60   S    
C48   O10   D    
C29   N1    A    
C55   H7    S    
C3    C36   A    
C2    C14   A    
C1    C20   S    
C56   C61   A    
C47   H16   S    
C13   C15   A    
Br5   C24   S    
O27   Zn1   S    
C11   C58   S    
C12   O12   A    
C5    C8    A    
C3    C16   S    
C57   H8    S    
C43   H13   S    
C28   C56   A    
C11   C14   A    
C34   C56   A    
C1    O22   A    
C2    C30   A    
C8    C18   A    
C14   C55   S    
C55   O18   D    
C59   O21   D    
O23   Zn1   S    
C5    C9    A    
C30   O3    S    
C26   N4    D    
C6    C10   A    
C39   C50   S    
C25   N3    D    
Br4   C33   S    
C53   H5    S    
O24   Zn1   S    
C21   C44   S    
C18   C60   A    
C16   O26   A    
C27   O28   S    
C21   C24   D    
C7    C19   A    
C36   C38   A    
C12   O23   A    
C38   C40   A    
C18   H1    S    
C39   C41   A    
Br6   C22   S    
C46   O8    D    
C53   O16   D    
C47   O9    D    
C48   N3    S    
O22   Zn2   S    
C37   C43   S    
C36   C42   S    
C10   C23   A    
Br1   C26   S    
C30   N2    A    
O26   Zn2   S    
Br2   C25   S    
C45   C60   A    
C57   O19   D    
C46   H15   S    
C20   C46   S    
C23   C62   A    
C58   O20   D    
C25   C26   S    
N3    Zn2   S    
C1    O1    A    
C28   N2    A    
C51   H3    S    
C37   C39   A    
C32   C41   A    
C54   O17   D    
C32   C35   A    
C50   H2    S    
C7    C9    A    
C15   C62   A    
O1    Zn1   S    
O12   Zn2   S    
C44   H14   S    
C40   N1    S    
C23   C45   A    
C29   O4    S    
C51   O14   D    
Br3   C35   S    
C44   O7    D    
C59   H10   S    
C4    C37   A    
C19   H11   S    
C12   C21   S    
C50   O13   D    
C5    C11   A    
C17   O27   A    
C48   H17   S    
C4    C17   S    
C27   C45   A    
C49   O11   D    
C20   C22   D    
C52   O15   D    
N4    Zn1   S    
C42   H12   S    
C49   H18   S    
C22   C24   S    
C27   N1    A    
C31   C33   A    
C41   N2    S    
C38   C49   S    
C52   H4    S    
C29   C62   A    
C6    C13   A    
C54   H6    S    
C13   C59   S    
C8    C10   A    
C43   O6    D    
C28   O2    S    
C9    C34   A    
C15   C57   S    
C31   C54   S    
C17   O25   A    
C32   C53   S    
C52   C61   S    
C16   O24   A    
C6    C7    A    
O25   Zn2   S    
C47   N4    S    
C2    C34   A    
C31   C40   A    
C4    C35   A    
