data_mof_unit_49173.cif
_audit_creation_date              2012-12-10T17:23:13-0500
_audit_creation_method            fapswitch 2.2
_symmetry_space_group_name_H-M    P1
_symmetry_Int_Tables_number       1
_space_group_crystal_system       triclinic
_cell_length_a                    15.857521
_cell_length_b                    10.867309
_cell_length_c                    9.583154
_cell_angle_alpha                 90.310121
_cell_angle_beta                  90.01847
_cell_angle_gamma                 92.527306
_cell_volume                      1649.8205661

loop_
_atom_site_label
_atom_site_type_symbol
_atom_type_description
_atom_site_fract_x
_atom_site_fract_y
_atom_site_fract_z
_atom_type_partial_charge
C1    C     C_R   0.506548 0.263029 0.500456 0.798509
C2    C     C_3   0.082616 0.500724 0.500043 0.193803
C3    C     C_3   0.974990 0.598150 0.574064 -0.160532
C4    C     C_3   0.917348 0.501120 0.500143 0.193258
C5    C     C_3   0.031289 0.605511 0.442076 -0.159825
C6    C     C_3   0.972105 0.508486 0.368159 -0.157784
C7    C     C_1   0.174390 0.500349 0.499974 -0.077873
C8    C     C_1   0.825583 0.501100 0.500156 -0.078505
C9    C     C_R   0.552389 0.121643 0.756146 -0.160976
C10   C     C_R   0.541427 0.063442 0.884407 -0.160167
C11   C     C_R   0.499599 0.948747 0.890532 -0.140564
C12   C     C_R   0.339855 0.499646 0.499959 0.833744
C13   C     C_R   0.476663 0.887006 0.767482 -0.162287
C14   C     C_R   0.496147 0.939233 0.635195 0.093214
C15   C     C_R   0.521530 0.065007 0.631385 0.096037
C16   C     C_R   0.513899 0.129157 0.503468 -0.119880
C17   C     C_R   0.501810 0.063102 0.378789 -0.214461
C18   C     C_R   0.494656 0.935936 0.380047 -0.217171
C19   C     C_R   0.491726 0.872209 0.506751 -0.113370
C20   C     C_R   0.611437 0.665121 0.145072 -0.149639
C21   C     C_R   0.665299 0.746454 0.073203 -0.223997
C22   C     C_R   0.665411 0.746191 0.929476 -0.195567
C23   C     C_R   0.495273 0.737564 0.501452 0.777058
C24   C     C_R   0.611531 0.664774 0.856760 -0.136354
C25   C     C_R   0.554691 0.581223 0.925627 0.191765
C26   C     C_R   0.554653 0.581277 0.075303 0.206675
C27   C     C_R   0.448306 0.422274 0.073425 -0.069002
C28   C     C_R   0.448325 0.422314 0.925435 -0.067086
C29   C     C_R   0.660136 0.500461 0.500052 0.803547
C30   C     C_3   0.968675 0.396346 0.558110 -0.158353
C31   C     C_3   0.024956 0.403705 0.426128 -0.159800
C32   C     C_1   0.250024 0.499993 0.499939 -0.185663
C33   C     C_1   0.749949 0.500869 0.500123 -0.180517
C34   C     C_3   0.027851 0.493367 0.632030 -0.156517
Cu1   Cu    Cu3+1 0.499990 0.499990 0.640660 0.921010
Cu2   Cu    Cu3+1 0.500010 0.500010 0.359340 0.930828
H1    H     H_    0.046792 0.323874 0.365398 0.127689
H2    H     H_    0.486539 0.906185 0.990580 0.137445
H3    H     H_    0.441125 0.800779 0.779102 0.168723
H4    H     H_    0.490051 0.887587 0.280977 0.164664
H5    H     H_    0.405975 0.358554 0.128325 0.137122
H6    H     H_    0.617621 0.672115 0.255022 0.200648
H7    H     H_    0.707615 0.809782 0.129787 0.149885
H8    H     H_    0.707644 0.809519 0.873550 0.149642
H9    H     H_    0.617220 0.672058 0.746861 0.200702
H10   H     H_    0.406035 0.358576 0.869649 0.144940
H11   H     H_    0.947871 0.514707 0.259844 0.130236
H12   H     H_    0.058328 0.691374 0.394436 0.128419
H13   H     H_    0.953117 0.677961 0.634792 0.126793
H14   H     H_    0.052061 0.487156 0.740359 0.128676
H15   H     H_    0.497917 0.109646 0.279444 0.161654
H16   H     H_    0.586845 0.209643 0.756220 0.163796
H17   H     H_    0.563240 0.108961 0.979367 0.135859
N1    N     N_R   0.500800 0.501210 0.147910 -0.197586
N2    N     N_R   0.500830 0.501290 0.852040 -0.203535
O1    O     O_R   0.499990 0.319640 0.618810 -0.588630
O2    O     O_R   0.500000 0.319660 0.381240 -0.581354
O3    O     O_R   0.379070 0.499980 0.618770 -0.574771
O4    O     O_R   0.379080 0.500000 0.381190 -0.571455
O5    O     O_R   0.500000 0.680340 0.618760 -0.613840
O6    O     O_R   0.500010 0.680360 0.381190 -0.600209
O7    O     O_R   0.620920 0.500000 0.618810 -0.596722
O8    O     O_R   0.620930 0.500020 0.381230 -0.589895
H18   H     H_    0.941628 0.310487 0.605749 0.127550

loop_
_geom_bond_atom_site_label_1
_geom_bond_atom_site_label_2
_ccdc_geom_bond_type
Cu1   O1    S    
C11   H2    S    
C19   C23   S    
C24   C25   A    
C29   O8    A    
Cu2   O6    S    
C30   H18   S    
Cu2   O8    S    
C9    C10   A    
C27   H5    S    
C20   H6    S    
C2    C7    S    
C30   C31   S    
C4    C8    S    
Cu2   O4    S    
C12   O3    A    
C17   H15   S    
C17   C18   A    
C3    H13   S    
C27   N1    A    
C4    C30   S    
C1    C16   S    
C21   H7    S    
C21   C22   A    
C12   C32   S    
C11   C13   A    
C28   H10   S    
C5    C6    S    
C9    H16   S    
C20   C26   A    
Cu1   Cu2   S    
Cu1   O3    S    
C24   H9    S    
C26   N1    A    
C28   N2    A    
C6    C31   S    
Cu1   O7    S    
C1    O2    A    
C8    C33   T    
C9    C15   A    
C23   O5    A    
C2    C34   S    
C5    H12   S    
C22   C24   A    
C34   H14   S    
C2    C5    S    
C13   H3    S    
C10   C11   A    
C30   C34   S    
Cu1   N2    S    
C15   C16   A    
Cu1   O5    S    
C29   C33   S    
C23   O6    A    
Cu2   N1    S    
C20   C21   A    
Cu2   O2    S    
C4    C6    S    
C18   C19   A    
C6    H11   S    
C27   C28   A    
C10   H17   S    
C18   H4    S    
C29   O7    A    
C16   C17   A    
C7    C32   T    
C3    C34   S    
C25   C26   A    
C14   C15   A    
C12   O4    A    
C14   C19   A    
C1    O1    A    
C22   H8    S    
C3    C4    S    
C25   N2    A    
C31   H1    S    
C2    C31   S    
C3    C5    S    
C13   C14   A    
