data_mof_unit_34671.cif
_audit_creation_date              2012-12-11T16:29:36-0500
_audit_creation_method            fapswitch 2.2
_symmetry_space_group_name_H-M    P1
_symmetry_Int_Tables_number       1
_space_group_crystal_system       triclinic
_cell_length_a                    6.950343
_cell_length_b                    17.283543
_cell_length_c                    18.789689
_cell_angle_alpha                 106.183734
_cell_angle_beta                  89.137142
_cell_angle_gamma                 90.034971
_cell_volume                      2167.43558253

loop_
_atom_site_label
_atom_site_type_symbol
_atom_type_description
_atom_site_fract_x
_atom_site_fract_y
_atom_site_fract_z
_atom_type_partial_charge
O1    O     O_R   0.494360 0.415680 0.413760 -0.533663
O2    O     O_R   0.818810 0.432910 0.557230 -0.497150
O3    O     O_R   0.994290 0.584320 0.586240 -0.512096
C1    C     C_R   0.649694 0.416129 0.580777 0.743357
O4    O     O_R   0.823740 0.406440 0.412520 -0.532664
O5    O     O_R   0.999250 0.557660 0.440500 -0.513251
C2    C     C_R   0.656578 0.381128 0.386363 0.695916
O6    O     O_R   0.489400 0.442340 0.559500 -0.541598
O7    O     O_3   0.662500 0.549650 0.509350 -0.351153
V1    V     V_3+5 0.935340 0.490790 0.498270 1.526397
O8    O     O_R   0.329270 0.567090 0.442770 -0.520489
C3    C     C_R   0.161305 0.584195 0.419529 0.699461
O9    O     O_R   0.324340 0.593560 0.587480 -0.549265
C4    C     C_R   0.153822 0.615086 0.615948 0.768082
V2    V     V_3+5 0.435970 0.509210 0.501730 1.463650
O10   O     O_3   0.158940 0.450350 0.490650 -0.354796
C5    C     C_R   0.031529 0.593295 0.761503 0.362262
C6    C     C_R   0.986388 0.584486 0.831750 -0.245242
C7    C     C_R   0.029053 0.644788 0.895403 0.417867
C8    C     C_R   0.111479 0.716459 0.888724 -0.177862
C9    C     C_R   0.108745 0.735210 0.819730 -0.088398
C10   C     C_R   0.089488 0.670322 0.754001 -0.023772
C11   C     C_R   0.132549 0.815725 0.815295 -0.106610
C12   C     C_R   0.176794 0.829762 0.745182 -0.078671
C13   C     C_R   0.184769 0.762632 0.680495 0.004652
C14   C     C_R   0.138978 0.683644 0.684425 -0.105176
C15   C     C_R   0.219211 0.908322 0.737133 0.343170
C16   C     C_R   0.280097 0.918059 0.668146 0.409546
C17   C     C_R   0.292699 0.850750 0.605939 -0.148861
C18   C     C_R   0.238887 0.775358 0.611802 -0.270128
H1    H     H_    0.930182 0.527828 0.836979 0.163091
H2    H     H_    0.245292 0.726101 0.561485 0.131517
C19   C     C_1   0.110353 0.865295 0.133851 -0.157104
C20   C     C_1   0.117747 0.822743 0.177449 0.020604
C21   C     C_1   0.127383 0.772466 0.229264 0.008425
C22   C     C_1   0.135792 0.730052 0.272966 0.013148
C23   C     C_1   0.145736 0.679585 0.324621 0.026809
C24   C     C_1   0.153585 0.636653 0.367889 -0.173831
C25   C     C_1   0.640984 0.364240 0.632821 -0.198039
C26   C     C_1   0.636808 0.321560 0.676328 -0.006896
C27   C     C_1   0.633454 0.271140 0.728044 -0.002047
C28   C     C_1   0.631015 0.228699 0.771779 0.027520
C29   C     C_1   0.627796 0.178467 0.823664 0.039028
C30   C     C_1   0.623762 0.135952 0.867321 -0.196676
C31   C     C_R   0.616003 0.409113 0.236555 -0.176920
C32   C     C_R   0.579409 0.420476 0.166534 0.427179
C33   C     C_R   0.568172 0.354274 0.104298 -0.090786
C34   C     C_R   0.582420 0.276937 0.111733 -0.270827
C35   C     C_R   0.607613 0.262417 0.181571 0.070148
C36   C     C_R   0.625091 0.329193 0.246208 -0.026081
C37   C     C_R   0.614685 0.181792 0.186167 -0.110430
C38   C     C_R   0.634043 0.165750 0.256367 -0.036039
C39   C     C_R   0.672034 0.231696 0.320241 -0.026168
C40   C     C_R   0.655022 0.313376 0.316388 -0.119659
C41   C     C_R   0.618751 0.086002 0.265942 -0.230401
C42   C     C_R   0.635085 0.073756 0.336400 0.387208
C43   C     C_R   0.679979 0.137726 0.397138 0.374006
C44   C     C_R   0.723173 0.212934 0.386954 -0.240366
H3    H     H_    0.572066 0.228003 0.061386 0.115195
O11   O     O_R   0.775690 0.057750 0.940570 -0.542349
O12   O     O_R   0.441200 0.093570 0.087490 -0.540893
O13   O     O_R   0.265840 0.942320 0.059480 -0.497502
C45   C     C_R   0.608372 0.115004 0.116189 0.696424
O14   O     O_R   0.446270 0.067110 0.942790 -0.507868
O15   O     O_R   0.270950 0.915660 0.913750 -0.509417
C46   C     C_R   0.615305 0.084092 0.919412 0.718343
O16   O     O_R   0.770580 0.084400 0.086300 -0.536499
O17   O     O_3   0.602640 0.950400 0.990690 -0.340390
V3    V     V_3+5 0.329740 0.009200 0.001730 1.519240
O18   O     O_R   0.940900 0.906360 0.912450 -0.548075
C47   C     C_R   0.112297 0.883895 0.884407 0.781209
O19   O     O_R   0.935830 0.932820 0.057160 -0.529033
C48   C     C_R   0.103340 0.916961 0.081472 0.725170
V4    V     V_3+5 0.829130 0.990680 0.998180 1.454111
O20   O     O_3   0.106100 0.049590 0.009310 -0.370827
C49   C     C_1   0.369099 0.856798 0.535794 0.352499
N1    N     N_1   0.430429 0.861344 0.479488 -0.336853
C50   C     C_1   0.651278 0.482380 0.294675 0.329960
N2    N     N_1   0.678787 0.542009 0.339970 -0.318654
O21   O     O_3   0.570312 0.497511 0.158007 -0.550963
C51   C     C_3   0.376654 0.523286 0.166546 -0.189107
H4    H     H_    0.317306 0.524077 0.222099 0.119383
H5    H     H_    0.285648 0.484969 0.122300 0.142962
H6    H     H_    0.369541 0.585741 0.161727 0.178548
C52   C     C_1   0.544073 0.365174 0.031503 0.356436
N3    N     N_1   0.524774 0.373870 0.973143 -0.340627
C53   C     C_1   0.586398 0.013543 0.206566 0.332973
N4    N     N_1   0.563295 0.954312 0.160278 -0.317263
O22   O     O_3   0.605216 0.998074 0.346308 -0.537780
C54   C     C_3   0.784508 0.958574 0.342185 -0.126429
H7    H     H_    0.878630 0.989693 0.388725 0.160647
H8    H     H_    0.859699 0.953026 0.288254 0.102416
H9    H     H_    0.759036 0.896698 0.346600 0.171230
C55   C     C_1   0.865425 0.257874 0.436872 0.357081
N5    N     N_1   0.984123 0.290537 0.476536 -0.338846
O23   O     O_3   0.003709 0.527724 0.700701 -0.555988
C56   C     C_3   0.146373 0.469023 0.698998 -0.201555
H10   H     H_    0.119700 0.438391 0.742923 0.134961
H11   H     H_    0.293797 0.495186 0.703877 0.115685
H12   H     H_    0.140176 0.422361 0.644889 0.172794
O24   O     O_3   0.017478 0.627662 0.962994 -0.545354
C57   C     C_3   0.863722 0.672375 0.004592 -0.156244
H13   H     H_    0.724691 0.656367 0.975492 0.148836
H14   H     H_    0.889064 0.738367 0.017323 0.121270
H15   H     H_    0.851697 0.657381 0.058178 0.175039
C58   C     C_1   0.249209 0.754280 0.944391 0.320638
N6    N     N_1   0.364238 0.781862 0.987942 -0.341908
O25   O     O_3   0.222259 0.975621 0.797649 -0.546901
C59   C     C_3   0.051523 0.020223 0.799457 -0.168172
H16   H     H_    0.921248 0.982951 0.800296 0.106581
H17   H     H_    0.044890 0.047067 0.752470 0.142178
H18   H     H_    0.050517 0.071040 0.850733 0.161034
O26   O     O_3   0.346708 0.993033 0.665549 -0.538323
C60   C     C_3   0.227838 0.025565 0.620481 -0.242488
H19   H     H_    0.077061 0.002687 0.616385 0.121012
H20   H     H_    0.292751 0.014375 0.564244 0.167111
H21   H     H_    0.220621 0.091855 0.644704 0.158929
O27   O     O_3   0.709490 0.123044 0.464900 -0.546817
C61   C     C_3   0.542680 0.147053 0.509136 -0.177991
H22   H     H_    0.415554 0.111208 0.483701 0.148201
H23   H     H_    0.513317 0.212570 0.519197 0.115885
H24   H     H_    0.565513 0.135896 0.563754 0.167204

loop_
_geom_bond_atom_site_label_1
_geom_bond_atom_site_label_2
_ccdc_geom_bond_type
C32   O21   S    
C53   N4    T    
C26   C27   S    
O24   C57   S    
C27   C28   T    
C30   C46   S    
C21   C22   T    
C12   C15   A    
C1    O6    A    
C51   H6    S    
C56   H10   S    
C54   H7    S    
C17   C49   S    
C52   N3    T    
O25   C59   S    
C36   C40   A    
C34   H3    S    
C33   C52   S    
C16   C17   A    
C23   C24   T    
C6    C7    A    
C59   H17   S    
O5    C3    A    
C58   N6    T    
O17   V4    S    
V2    O10   S    
C42   C43   A    
C57   H15   S    
C20   C21   S    
O12   C45   A    
O27   C61   S    
C51   H5    S    
O8    V2    S    
C7    C8    A    
O17   V3    S    
C35   C37   A    
O18   V4    S    
C11   C12   A    
O13   C48   A    
O18   C47   A    
O1    V2    S    
O7    V1    S    
C38   C41   A    
O11   C46   A    
O9    C4    A    
C3    C24   S    
C57   H13   S    
C56   H11   S    
C19   C20   T    
C8    C58   S    
C49   N1    T    
C61   H23   S    
C45   O16   A    
O7    V2    S    
V4    O20   S    
C37   C38   A    
C11   C47   S    
C37   C45   S    
C12   C13   A    
O19   V4    S    
C59   H18   S    
C25   C26   T    
O4    C2    A    
C50   N2    T    
O21   C51   S    
C13   C14   A    
O15   C47   A    
C51   H4    S    
O13   V3    S    
O14   C46   A    
O2    C1    A    
C29   C30   T    
C17   C18   A    
C54   H8    S    
C33   C34   A    
C1    C25   S    
C61   H22   S    
O23   C56   S    
C41   C42   A    
C5    C6    A    
C5    O23   S    
O14   V3    S    
C4    C14   S    
C57   H14   S    
C31   C50   S    
O3    C4    A    
C19   C48   S    
C34   C35   A    
O6    V2    S    
C9    C11   A    
C28   C29   S    
O2    V1    S    
C56   H12   S    
C38   C39   A    
C54   H9    S    
O26   C60   S    
C61   H24   S    
O12   V3    S    
C13   C18   A    
C32   C33   A    
C42   O22   S    
O1    C2    A    
O19   C48   A    
O5    V1    S    
C60   H20   S    
C39   C44   A    
C39   C40   A    
C6    H1    S    
C5    C10   A    
O9    V2    S    
C44   C55   S    
O4    V1    S    
O3    V1    S    
V1    O10   S    
C59   H16   S    
C18   H2    S    
C7    O24   S    
C43   C44   A    
C15   O25   S    
O15   V3    S    
O11   V4    S    
V3    O20   S    
O16   V4    S    
C60   H19   S    
C41   C53   S    
C55   N5    T    
C60   H21   S    
C16   O26   S    
C31   C32   A    
C8    C9    A    
C22   C23   S    
C35   C36   A    
C10   C14   A    
C15   C16   A    
C31   C36   A    
C2    C40   S    
O22   C54   S    
C9    C10   A    
O8    C3    A    
C43   O27   S    
