data_mof_unit_60428.cif
_audit_creation_date              2013-03-05T16:57:59-0500
_audit_creation_method            fapswitch 2.2
_symmetry_space_group_name_H-M    P1
_symmetry_Int_Tables_number       1
_space_group_crystal_system       triclinic
_cell_length_a                    17.442542
_cell_length_b                    16.846723
_cell_length_c                    19.223979
_cell_angle_alpha                 90.420224
_cell_angle_beta                  92.7712
_cell_angle_gamma                 90.460898
_cell_volume                      5642.00263386

loop_
_atom_site_label
_atom_site_type_symbol
_atom_site_description
_atom_site_fract_x
_atom_site_fract_y
_atom_site_fract_z
_atom_type_partial_charge
O1    O     O_R   0.389110 0.566570 0.500000 -0.552907
O2    O     O_R   0.610890 0.433430 0.500000 -0.556977
O3    O     O_R   0.610890 0.566570 0.500000 -0.558776
O4    O     O_R   0.389110 0.433430 0.500000 -0.557990
C1    C     C_R   0.353320 0.499725 0.505460 0.947666
C2    C     C_R   0.647286 0.500327 0.496773 0.946093
O5    O     O_R   0.499990 0.566560 0.398140 -0.604864
O6    O     O_R   0.500010 0.433440 0.601860 -0.610114
O7    O     O_R   0.500010 0.566560 0.601860 -0.589356
O8    O     O_R   0.499990 0.433440 0.398140 -0.600922
C3    C     C_R   0.501859 0.499825 0.365381 0.950694
C4    C     C_R   0.498160 0.500222 0.634614 0.947240
Zn1   Zn    Zn3+2 0.500000 0.588860 0.500000 1.122057
Zn2   Zn    Zn3+2 0.500000 0.411140 0.500000 1.113711
C5    C     C_R   0.515932 0.571292 0.254747 -0.154420
C6    C     C_R   0.483858 0.429235 0.745445 -0.171701
C7    C     C_R   0.495100 0.572479 0.746794 -0.143877
C8    C     C_R   0.504579 0.428069 0.252891 -0.163173
H1    H     H_    0.522927 0.626356 0.283631 0.237468
H2    H     H_    0.476995 0.374052 0.716747 0.235340
H3    H     H_    0.499342 0.627827 0.719388 0.247939
H4    H     H_    0.500409 0.372626 0.280097 0.243808
C9    C     C_R   0.518207 0.572465 0.182473 0.282247
C10   C     C_R   0.481343 0.428434 0.817708 0.283423
C11   C     C_R   0.495234 0.573677 0.819147 0.275024
C12   C     C_R   0.504204 0.427233 0.180525 0.282202
C13   C     C_R   0.510171 0.500071 0.145136 -0.183355
C14   C     C_R   0.489265 0.501010 0.854790 -0.183471
C15   C     C_R   0.507198 0.499703 0.289919 -0.171302
C16   C     C_R   0.492666 0.500633 0.710044 -0.168675
N1    N     N_R   0.555158 0.458051 0.033192 -0.082779
N2    N     N_R   0.444416 0.543335 0.966735 -0.082660
N3    N     N_R   0.549670 0.457946 0.964135 -0.082553
N4    N     N_R   0.449905 0.543440 0.035798 -0.081952
C17   C     C_R   0.494210 0.500503 0.930112 0.417226
C18   C     C_R   0.505353 0.500857 0.069818 0.416562
C19   C     C_R   0.849326 0.576929 0.523540 -0.176709
C20   C     C_R   0.148526 0.433100 0.529339 -0.176652
C21   C     C_R   0.160726 0.571725 0.561454 -0.173703
C22   C     C_R   0.850719 0.433578 0.528448 -0.180741
H5    H     H_    0.880782 0.632750 0.525956 0.198006
H6    H     H_    0.112870 0.380373 0.521853 0.191863
H7    H     H_    0.134627 0.625951 0.579263 0.195386
H8    H     H_    0.883307 0.379313 0.534636 0.196774
C23   C     C_R   0.772210 0.575429 0.501136 0.304672
C24   C     C_R   0.226212 0.429626 0.516722 0.290250
C25   C     C_R   0.238893 0.570268 0.549960 0.298581
C26   C     C_R   0.773656 0.429922 0.506053 0.301494
C27   C     C_R   0.731882 0.501630 0.498006 -0.287882
C28   C     C_R   0.272152 0.499646 0.523860 -0.305341
C29   C     C_R   0.887290 0.506582 0.538674 0.008410
C30   C     C_R   0.116344 0.503723 0.550640 0.007931
C31   C     C_1   0.967707 0.508239 0.550858 0.048376
C32   C     C_1   0.035887 0.507450 0.554390 0.046964
C33   C     C_R   0.464349 0.832459 0.444941 -0.227385
C34   C     C_R   0.533359 0.167119 0.555784 -0.225144
C35   C     C_R   0.535437 0.834587 0.553962 -0.223938
C36   C     C_R   0.466952 0.165341 0.444674 -0.224143
H9    H     H_    0.435522 0.863391 0.402052 0.209709
H10   H     H_    0.560244 0.135890 0.599478 0.211546
H11   H     H_    0.563867 0.867382 0.596668 0.211306
H12   H     H_    0.440188 0.132558 0.401139 0.213271
C37   C     C_R   0.463745 0.748424 0.445948 0.400799
C38   C     C_R   0.533817 0.251206 0.555232 0.402072
C39   C     C_R   0.535800 0.750584 0.554017 0.415960
C40   C     C_R   0.466393 0.249374 0.444807 0.409106
N5    N     N_R   0.500000 0.707230 0.500000 -0.192597
N6    N     N_R   0.500000 0.292770 0.500000 -0.191482
C41   C     C_R   0.500033 0.876318 0.499262 0.008237
C42   C     C_R   0.500163 0.123448 0.500243 0.005745
C43   C     C_1   0.500007 0.963558 0.499431 0.080259
C44   C     C_1   0.500155 0.036202 0.499943 0.079302
N7    N     N_R   0.530000 0.647029 0.148152 0.232964
O9    O     O_R   0.572998 0.651119 0.094796 -0.294857
O10   O     O_R   0.505772 0.712655 0.175312 -0.267273
N8    N     N_R   0.469434 0.354060 0.852297 0.231581
O11   O     O_R   0.426244 0.350268 0.905538 -0.297387
O12   O     O_R   0.493790 0.288290 0.825505 -0.267347
N9    N     N_R   0.504776 0.648524 0.855303 0.236708
O13   O     O_R   0.552171 0.655298 0.909457 -0.287571
O14   O     O_R   0.475108 0.712533 0.828170 -0.273011
N10   N     N_R   0.494450 0.352574 0.144096 0.237628
O15   O     O_R   0.446925 0.346149 0.090003 -0.285614
O16   O     O_R   0.524084 0.288379 0.170907 -0.275617
N11   N     N_R   0.737550 0.648251 0.477680 0.245440
O17   O     O_R   0.756342 0.715019 0.508715 -0.316762
O18   O     O_R   0.699248 0.650077 0.417900 -0.354622
N12   N     N_R   0.256636 0.354240 0.497637 0.246982
O19   O     O_R   0.223867 0.314715 0.445771 -0.297128
O20   O     O_R   0.300501 0.316368 0.542665 -0.347649
N13   N     N_R   0.283703 0.639793 0.568298 0.236926
O21   O     O_R   0.259819 0.709329 0.548270 -0.320897
O22   O     O_R   0.338795 0.635459 0.616209 -0.371654
N14   N     N_R   0.740679 0.353737 0.487509 0.246849
O23   O     O_R   0.761102 0.291076 0.522774 -0.313328
O24   O     O_R   0.703456 0.344282 0.427651 -0.347100
N15   N     N_R   0.423473 0.707888 0.389465 0.217850
O25   O     O_R   0.432776 0.731707 0.326182 -0.347379
O26   O     O_R   0.362280 0.666784 0.401453 -0.319547
N16   N     N_R   0.570635 0.291155 0.613947 0.217734
O27   O     O_R   0.562085 0.263225 0.676051 -0.347285
O28   O     O_R   0.627871 0.339073 0.604899 -0.318664
N17   N     N_R   0.573798 0.712706 0.612443 0.215303
O29   O     O_R   0.568979 0.744008 0.674161 -0.349234
O30   O     O_R   0.629182 0.663528 0.602619 -0.328557
N18   N     N_R   0.429968 0.287091 0.385497 0.213031
O31   O     O_R   0.434388 0.254383 0.324277 -0.349921
O32   O     O_R   0.376401 0.338727 0.394023 -0.297764

loop_
_geom_bond_atom_site_label_1
_geom_bond_atom_site_label_2
_geom_bond_distance
_ccdc_geom_bond_type
C36   H12   1.083819 S    
O5    Zn1   1.991150 S    
C40   N6    1.387613 A    
C33   H9    1.083800 S    
N7    O9    1.301487 A    
C8    C12   1.390831 A    
O3    C2    1.290916 A    
N15   O25   1.300984 A    
C31   C32   1.188088 T    
C11   C14   1.412859 A    
C5    H1    1.080646 S    
C12   C13   1.412948 A    
C26   N14   1.437650 S    
O1    C1    1.290599 A    
C38   N6    1.386574 A    
C40   N18   1.433344 S    
C20   H6    1.084951 S    
C19   C29   1.388062 A    
C20   C30   1.387144 A    
N18   O31   1.301767 A    
C6    C16   1.397399 A    
C41   C43   1.469677 S    
O7    Zn1   1.996561 S    
C36   C40   1.415775 A    
C14   C17   1.446488 S    
C39   N5    1.385834 A    
C33   C37   1.415948 A    
C34   C38   1.416683 A    
C9    C13   1.413134 A    
C22   H8    1.084631 S    
O3    Zn1   1.973281 S    
C6    H2    1.080392 S    
C5    C9    1.392161 A    
C21   C30   1.386212 A    
C6    C10   1.392154 A    
C11   N9    1.439892 S    
C19   H5    1.084509 S    
C7    C16   1.396301 A    
N7    O10   1.301509 A    
O2    C2    1.292400 A    
C9    N7    1.441073 S    
N15   O26   1.298503 A    
C30   C32   1.410578 S    
C5    C15   1.397811 A    
C25   C28   1.426290 A    
C24   N12   1.432472 S    
N11   O18   1.301764 A    
C37   N5    1.383959 A    
N1    N3    1.326368 A    
N8    O12   1.301456 A    
N2    C17   1.353669 A    
N8    O11   1.301499 A    
O8    Zn2   1.996563 S    
N13   O21   1.301180 A    
N9    O14   1.301464 A    
C10   N8    1.441032 S    
C21   H7    1.084507 S    
N11   O17   1.301510 A    
C7    H3    1.078127 S    
C34   H10   1.083777 S    
C29   C31   1.410889 S    
N2    N4    1.326479 A    
C23   N11   1.437905 S    
N13   O22   1.301391 A    
O5    C3    1.286007 A    
C23   C27   1.422981 A    
O6    C4    1.286628 A    
N16   O28   1.297878 A    
N17   O30   1.297504 A    
C8    C15   1.395890 A    
N14   O24   1.301705 A    
C33   C41   1.393664 A    
C26   C27   1.421344 A    
N12   O20   1.301412 A    
C34   C42   1.392268 A    
C1    C28   1.475791 S    
O1    Zn1   1.967350 S    
C39   N17   1.432949 S    
C19   C23   1.392381 A    
C21   C25   1.392096 A    
Zn1   N5    1.994147 S    
C22   C26   1.392222 A    
O6    Zn2   1.991149 S    
C4    C16   1.457811 S    
C8    H4    1.077501 S    
C25   N13   1.435134 S    
C36   C42   1.390204 A    
C10   C14   1.413193 A    
C35   C39   1.415237 A    
O4    C1    1.289926 A    
C35   H11   1.083851 S    
C13   C18   1.446460 S    
C22   C29   1.389185 A    
C24   C28   1.422729 A    
N10   O16   1.301478 A    
C7    C11   1.390797 A    
C43   C44   1.223773 T    
C37   N15   1.430543 S    
N18   O32   1.297069 A    
N16   O27   1.301276 A    
N3    C17   1.354418 A    
N4    C18   1.354477 A    
C2    C27   1.474606 S    
O4    Zn2   1.973281 S    
N14   O23   1.301546 A    
O2    Zn2   1.967350 S    
O7    C4    1.287716 A    
C20   C24   1.389687 A    
O8    C3    1.288462 A    
N9    O13   1.301447 A    
C38   N16   1.432207 S    
N12   O19   1.301259 A    
C3    C15   1.458147 S    
C12   N10   1.439948 S    
N10   O15   1.301442 A    
N17   O29   1.301569 A    
Zn2   N6    1.994147 S    
N1    C18   1.353611 A    
C42   C44   1.469765 S    
C35   C41   1.391549 A    
