data_mof_unit_45413.cif
_audit_creation_date              2012-12-11T20:21:46-0500
_audit_creation_method            fapswitch 2.2
_symmetry_space_group_name_H-M    P1
_symmetry_Int_Tables_number       1
_space_group_crystal_system       triclinic
_cell_length_a                    8.326587
_cell_length_b                    17.349527
_cell_length_c                    26.892382
_cell_angle_alpha                 99.898846
_cell_angle_beta                  92.834409
_cell_angle_gamma                 81.375778
_cell_volume                      3782.71031783

loop_
_atom_site_label
_atom_site_type_symbol
_atom_type_description
_atom_site_fract_x
_atom_site_fract_y
_atom_site_fract_z
_atom_type_partial_charge
Ba1   Ba    Ba6+2 0.860160 0.462360 0.521850 1.743147
Ba2   Ba    Ba6+2 0.329680 0.537570 0.478140 1.715882
C1    C     C_3   0.761203 0.176162 0.638967 1.016721
C2    C     C_R   0.913587 0.564330 0.181751 0.590716
C3    C     C_2   0.739336 0.515671 0.269867 -0.104690
C4    C     C_3   0.178551 0.278747 0.647996 0.289579
C5    C     C_3   0.698068 0.510795 0.323956 -0.037130
C6    C     C_1   0.986422 0.482893 0.341415 0.041917
C7    C     C_2   0.025814 0.478637 0.293541 -0.101081
C8    C     C_2   0.896175 0.496989 0.254649 0.215351
C9    C     C_R   0.017295 0.492993 0.100504 -0.089231
C10   C     C_R   0.044935 0.423262 0.121771 -0.127106
C11   C     C_R   0.107866 0.352527 0.091111 -0.065925
C12   C     C_3   0.739677 0.259532 0.625167 0.315620
C13   C     C_R   0.950145 0.563866 0.130818 -0.005772
C14   C     C_2   0.844611 0.518568 0.358518 -0.267273
C15   C     C_2   0.352886 0.478857 0.639323 0.334839
C16   C     C_3   0.122124 0.255553 0.696574 -0.205399
C17   C     C_R   0.181959 0.422463 0.969256 0.034024
C18   C     C_R   0.048918 0.560391 0.975401 0.023497
C19   C     C_R   0.134774 0.491313 0.946889 0.047581
C20   C     C_R   0.283662 0.358894 0.941060 -0.044064
C21   C     C_R   0.324400 0.359919 0.891451 -0.075135
C22   C     C_R   0.269334 0.425274 0.867792 -0.035702
C23   C     C_3   0.416668 0.746444 0.642441 0.344477
C24   C     C_R   0.175566 0.491489 0.895637 -0.078074
C25   C     C_R   0.123749 0.558185 0.872408 -0.037553
C26   C     C_R   0.165167 0.557678 0.821801 0.598974
C27   C     C_R   0.309052 0.426293 0.817182 0.592160
C28   C     C_3   0.240762 0.294551 0.402800 0.372435
C29   C     C_2   0.456937 0.480745 0.728407 -0.163673
C30   C     C_3   0.499650 0.485462 0.674675 -0.076376
C31   C     C_1   0.207638 0.511204 0.656056 0.015359
C32   C     C_2   0.168629 0.509025 0.703156 -0.201535
C33   C     C_2   0.299123 0.493011 0.742471 0.202196
C34   C     C_3   0.446398 0.825889 0.674657 -0.228047
C35   C     C_R   0.130905 0.420736 0.019308 -0.063451
C36   C     C_R   0.056379 0.491962 0.048971 -0.012188
C37   C     C_R   0.019222 0.562232 0.027550 0.043948
C38   C     C_R   0.147640 0.350498 0.040963 0.568231
C39   C     C_R   0.921474 0.633269 0.109767 -0.052758
C40   C     C_3   0.308033 0.211024 0.377671 0.561348
C41   C     C_R   0.995507 0.625584 0.950514 -0.098755
C42   C     C_R   0.031872 0.624332 0.900311 -0.054900
C43   C     C_R   0.954521 0.632553 0.059413 -0.093608
C44   C     C_2   0.434397 0.274788 0.508205 -0.265764
C45   C     C_3   0.131400 0.758297 0.355768 0.322835
C46   C     C_3   0.309135 0.219028 0.503793 -0.037849
C47   C     C_2   0.386488 0.135355 0.504817 -0.055884
C48   C     C_2   0.543924 0.113519 0.492069 0.029224
C49   C     C_2   0.640462 0.174800 0.481395 -0.115575
C50   C     C_1   0.572657 0.249657 0.484616 0.029450
C51   C     C_R   0.812943 0.866167 0.489103 0.518419
C52   C     C_3   0.980759 0.715975 0.606383 0.279357
C53   C     C_R   0.874586 0.785833 0.485087 0.015149
C54   C     C_R   0.629896 0.760684 0.520168 0.028500
C55   C     C_R   0.562472 0.839782 0.521342 -0.223792
C56   C     C_3   0.154357 0.840794 0.345051 0.478049
C57   C     C_R   0.653306 0.893653 0.506266 -0.065994
C58   C     C_2   0.620510 0.029915 0.485165 -0.030163
C59   C     C_2   0.580398 0.977987 0.512589 0.005934
C60   C     C_R   0.783185 0.733572 0.500433 -0.366729
C61   C     C_3   0.961094 0.799409 0.638112 -0.236911
C62   C     C_3   0.792505 0.276204 0.363390 0.356666
C63   C     C_3   0.771248 0.289573 0.308572 -0.288925
C64   C     C_3   0.939209 0.865531 0.607043 -0.465177
C65   C     C_3   0.843630 0.187747 0.364712 -0.369965
C66   C     C_3   0.384256 0.691631 0.678229 -0.298586
C67   C     C_3   0.624923 0.714662 0.343477 0.376067
C68   C     C_3   0.445362 0.891492 0.643605 -0.407625
C69   C     C_3   0.103119 0.700524 0.307304 -0.241213
C70   C     C_3   0.999007 0.890498 0.329058 -0.273253
C71   C     C_3   0.577303 0.774458 0.390666 -0.330628
C72   C     C_3   0.353619 0.293168 0.654541 -0.277382
C73   C     C_3   0.194851 0.172241 0.705064 -0.293500
C74   C     C_3   0.658350 0.758919 0.301687 -0.290502
C75   C     C_R   0.004534 0.425257 0.172790 0.625061
F1    F     F_    0.395093 0.213817 0.335684 -0.671962
F2    F     F_    0.644491 0.133579 0.614224 -0.739552
F3    F     F_    0.750249 0.179055 0.690475 -0.678946
F4    F     F_    0.267119 0.833069 0.307914 -0.733402
F5    F     F_    0.189032 0.277666 0.013455 -0.706284
F6    F     F_    0.372770 0.447355 0.589873 -0.717791
F7    F     F_    0.909959 0.915971 0.476844 -0.733174
H1    H     H_    0.857549 0.270494 0.612810 -0.016658
H2    H     H_    0.690842 0.249378 0.287000 0.171942
H3    H     H_    0.891056 0.278949 0.290230 0.109966
H4    H     H_    0.715249 0.351279 0.307105 0.088195
H5    H     H_    0.651822 0.261436 0.592842 -0.007371
H6    H     H_    0.307645 0.756546 0.617807 0.039324
H7    H     H_    0.348930 0.845947 0.702714 0.092660
H8    H     H_    0.564303 0.818301 0.695772 0.132334
H9    H     H_    0.151895 0.298909 0.729983 0.123699
H10   H     H_    0.245744 0.732664 0.373383 0.089972
H11   H     H_    0.201438 0.874697 0.380191 0.050139
H12   H     H_    0.389251 0.180086 0.403981 -0.121038
H13   H     H_    0.739473 0.676104 0.351292 -0.004715
H14   H     H_    0.758980 0.793234 0.313390 0.069306
H15   H     H_    0.551024 0.800706 0.292997 0.203251
H16   H     H_    0.100768 0.334934 0.643209 0.074415
H17   H     H_    0.689900 0.716635 0.266892 0.169893
H18   H     H_    0.151002 0.461373 0.282168 0.123742
H19   H     H_    0.123914 0.297305 0.105675 0.163460
H20   H     H_    0.554101 0.471763 0.756158 0.123894
H21   H     H_    0.401725 0.309123 0.871792 0.139816
H22   H     H_    0.340753 0.308578 0.957023 0.173604
H23   H     H_    0.206961 0.176507 0.365784 -0.014288
H24   H     H_    0.642099 0.528054 0.242703 0.096351
H25   H     H_    0.872144 0.689023 0.132262 0.125358
H26   H     H_    0.921664 0.678380 0.968561 0.076068
H27   H     H_    0.987848 0.676139 0.883398 0.126184
H28   H     H_    0.042967 0.522823 0.714312 0.152074
H29   H     H_    0.931553 0.689022 0.046905 0.075406
H30   H     H_    0.834586 0.554478 0.395846 0.061368
H31   H     H_    0.487343 0.997585 0.540754 0.102095
H32   H     H_    0.766516 0.157150 0.471346 0.098418
H33   H     H_    0.710987 0.011951 0.456314 0.141464
H34   H     H_    0.860347 0.700524 0.592922 0.032435
H35   H     H_    0.309709 0.092064 0.509816 0.072408
H36   H     H_    0.988477 0.259642 0.695302 0.145018
H37   H     H_    0.440885 0.859697 0.535167 0.105551
H38   H     H_    0.397291 0.337348 0.520427 0.154554
H39   H     H_    0.831780 0.671527 0.497190 0.081176
H40   H     H_    0.342868 0.325986 0.418204 0.004888
H41   H     H_    0.158662 0.291862 0.433497 -0.126727
H42   H     H_    0.946228 0.922891 0.632240 0.170351
H43   H     H_    0.034818 0.855944 0.578407 0.139668
H44   H     H_    0.817544 0.868932 0.589103 0.129946
H45   H     H_    0.061467 0.711938 0.574094 0.022342
H46   H     H_    0.737217 0.155443 0.356786 0.157683
H47   H     H_    0.936888 0.161646 0.336089 0.093718
H48   H     H_    0.897927 0.178737 0.402035 0.076305
H49   H     H_    0.366742 0.634274 0.655583 0.061407
H50   H     H_    0.489759 0.681736 0.704544 0.102849
H51   H     H_    0.274557 0.716118 0.700811 0.109814
H52   H     H_    0.555582 0.879994 0.620708 0.134668
H53   H     H_    0.334015 0.896393 0.619126 0.113203
H54   H     H_    0.447132 0.948796 0.669254 0.159602
H55   H     H_    0.075336 0.644415 0.317243 0.099120
H56   H     H_    0.855715 0.806697 0.663106 0.133873
H57   H     H_    0.000351 0.724492 0.284239 0.115331
H58   H     H_    0.212577 0.686783 0.283728 0.168891
H59   H     H_    0.904595 0.899088 0.357993 0.106982
H60   H     H_    0.026372 0.949802 0.324995 0.118979
H61   H     H_    0.952616 0.862903 0.291950 0.115448
H62   H     H_    0.677844 0.808868 0.402668 0.080376
H63   H     H_    0.469478 0.816730 0.383288 0.136571
H64   H     H_    0.549349 0.743812 0.421199 0.108059
H65   H     H_    0.433229 0.237500 0.658506 0.202998
H66   H     H_    0.389591 0.314809 0.620983 0.085473
H67   H     H_    0.070065 0.806628 0.663008 0.122638
H68   H     H_    0.369031 0.337461 0.688591 0.109179
H69   H     H_    0.328271 0.167707 0.711578 0.164464
H70   H     H_    0.141017 0.158971 0.739041 0.140866
H71   H     H_    0.167466 0.127315 0.672317 0.155663
H72   H     H_    0.887459 0.310704 0.380847 0.054136
H73   H     H_    0.882253 0.144026 0.626920 -0.039755
N1    N     N_R   0.938359 0.495410 0.202212 -0.422428
N2    N     N_R   0.256963 0.492129 0.794605 -0.417509
O1    O     O_2   0.906370 0.542040 0.619810 -0.460804
O2    O     O_2   0.208688 0.780805 0.465150 -0.492254
O3    O     O_3   0.997034 0.765918 0.386723 -0.660724
O4    O     O_3   0.138370 0.541980 0.559630 -0.421609
O5    O     O_3   0.572820 0.404940 0.471170 -0.440407
O6    O     O_2   0.345130 0.693150 0.532000 -0.486216
O7    O     O_3   0.557176 0.709678 0.615845 -0.635533
O8    O     O_2   0.361115 0.550691 0.328747 -0.486101
O9    O     O_3   0.495526 0.672268 0.327082 -0.594676
O10   O     O_2   0.027064 0.364371 0.190803 -0.575817
O11   O     O_2   0.389044 0.368200 0.793220 -0.581934
O12   O     O_3   0.644292 0.304819 0.387603 -0.593375
O13   O     O_2   0.861070 0.626557 0.208042 -0.632108
O14   O     O_2   0.121343 0.616219 0.802287 -0.592773
O15   O     O_3   0.686580 0.398330 0.583860 -0.421921
O16   O     O_2   0.841466 0.437608 0.670455 -0.515918
O17   O     O_3   0.050704 0.665871 0.639103 -0.653150
O18   O     O_3   0.685410 0.317748 0.666616 -0.603445
O19   O     O_2   0.844570 0.306830 0.467970 -0.493485
O20   O     O_3   0.101900 0.357890 0.557750 -0.453775
O21   O     O_2   0.985950 0.223396 0.525961 -0.499878
O22   O     O_3   0.164943 0.218018 0.606423 -0.599497
O23   O     O_2   0.283330 0.457940 0.380160 -0.437222
O24   O     O_3   0.051340 0.457960 0.440360 -0.490060
O25   O     O_3   0.503130 0.601610 0.416130 -0.468551
O26   O     O_3   0.152146 0.332293 0.366465 -0.631705
O27   O     O_3   0.616890 0.595000 0.528820 -0.432498
O28   O     O_3   0.087820 0.642040 0.442240 -0.483213
P1    P     P_3+3 0.071770 0.565500 0.613330 1.060636
P2    P     P_3+3 0.664870 0.318630 0.453960 1.004791
P3    P     P_3+3 0.142089 0.254657 0.548870 0.977464
P4    P     P_3+3 0.117940 0.434440 0.386660 1.026626
P5    P     P_3+3 0.051974 0.744510 0.447333 0.992535
P6    P     P_3+3 0.678065 0.411655 0.649659 1.027502
P7    P     P_3+3 0.529836 0.693569 0.549572 0.975776
P8    P     P_3+3 0.518834 0.582355 0.349807 0.966022

loop_
_geom_bond_atom_site_label_1
_geom_bond_atom_site_label_2
_ccdc_geom_bond_type
C70   H59   S    
C19   C24   A    
C16   C73   S    
C32   H28   S    
C61   H56   S    
C65   H48   S    
C56   H11   S    
C1    F2    S    
O6    P7    D    
O3    P5    S    
C51   C57   A    
C63   H2    S    
C27   N2    Am   
Ba1   O27   S    
C54   C55   A    
C74   H15   S    
C23   H6    S    
O18   P6    S    
C71   H63   S    
C51   F7    S    
C40   H12   S    
C66   H49   S    
C17   C19   A    
C22   C24   A    
C32   C33   S    
C35   C38   A    
C36   C37   A    
O26   P4    S    
C26   O14   D    
C55   C57   A    
C52   C61   S    
C6    P4    S    
C74   H14   S    
C70   H61   S    
C21   H21   S    
C53   C60   A    
C44   C50   D    
C64   H43   S    
O12   P2    S    
C67   C74   S    
Ba1   Ba2   S    
Ba2   O23   S    
C52   O17   S    
Ba2   O28   S    
C11   C38   A    
Ba1   O19   S    
C17   C35   A    
C28   O26   S    
C22   C27   A    
C45   O3    S    
C9    C13   A    
C25   C42   A    
C2    N1    Am   
Ba1   O5    S    
C7    H18   S    
O9    P8    S    
C59   H31   S    
C21   C22   A    
C72   H65   S    
C4    C72   S    
C41   H26   S    
C27   O11   D    
C11   H19   S    
C40   H23   S    
C8    N1    S    
C46   P3    S    
C75   N1    Am   
C37   C43   A    
C34   H8    S    
C61   C64   S    
C6    C14   D    
C39   H25   S    
C68   H52   S    
C72   H68   S    
C23   C66   S    
C15   C31   D    
C28   C40   S    
O2    P5    D    
C1    F3    S    
C60   H39   S    
C34   C68   S    
C63   H3    S    
C51   C53   A    
Ba1   O24   S    
C4    C16   S    
C44   C46   S    
Ba1   O15   S    
C57   C59   S    
C71   H64   S    
C72   H66   S    
C49   C50   D    
C62   C65   S    
C38   F5    S    
C17   C20   A    
Ba2   P4    S    
C13   C39   A    
C56   F4    S    
Ba2   O5    S    
C3    C5    S    
O19   P2    D    
C6    C7    D    
C69   H55   S    
C4    O22   S    
C48   C49   S    
C20   H22   S    
C26   N2    Am   
C64   H42   S    
O24   P4    S    
C58   C59   D    
C15   F6    S    
C4    H16   S    
C9    C36   A    
C41   C42   A    
Ba2   O27   S    
C12   H5    S    
C35   C36   A    
C43   H29   S    
O22   P3    S    
C73   H69   S    
C29   C30   S    
C45   C69   S    
C10   C75   A    
C31   C32   D    
C24   C25   A    
C44   H38   S    
C58   H33   S    
Ba2   O25   S    
C18   C19   A    
C29   H20   S    
C67   C71   S    
Ba2   O6    S    
C61   H67   S    
O28   P5    S    
C1    C12   S    
O15   P6    S    
C69   H58   S    
C54   P7    S    
C34   H7    S    
C46   C47   S    
C28   H40   S    
C68   H54   S    
C52   H34   S    
C2    C13   A    
C15   C30   S    
C54   C60   A    
C65   H46   S    
O23   P4    D    
O1    P1    D    
C5    P8    S    
O5    P2    S    
C16   H36   S    
C18   C41   A    
C63   H4    S    
C7    C8    S    
Ba1   P1    S    
C74   H17   S    
C70   H60   S    
C52   H45   S    
C5    C14   S    
O17   P1    S    
C2    O13   D    
O8    P8    D    
O27   P7    S    
Ba1   O1    S    
C65   H47   S    
O7    P7    S    
C12   H1    S    
C30   P6    S    
C14   H30   S    
Ba2   O4    S    
C9    C10   A    
C40   F1    S    
C23   O7    S    
O25   P8    S    
C62   H72   S    
C49   H32   S    
C69   H57   S    
C71   H62   S    
C48   C58   S    
C53   P5    S    
C62   O12   S    
C66   H50   S    
C18   C37   A    
C67   O9    S    
C3    C8    D    
O21   P3    D    
C62   C63   S    
C45   C56   S    
Ba1   O20   S    
C73   H70   S    
C56   C70   S    
C47   H35   S    
O20   P3    S    
C66   H51   S    
C45   H10   S    
C64   H44   S    
C31   P1    S    
C29   C33   D    
C50   P2    S    
C33   N2    S    
C28   H41   S    
C12   O18   S    
C23   C34   S    
C55   H37   S    
C42   H27   S    
C73   H71   S    
C10   C11   A    
Ba1   O4    S    
C68   H53   S    
C75   O10   D    
C47   C48   D    
C25   C26   A    
C1    H73   S    
C16   H9    S    
C39   C43   A    
C20   C21   A    
O4    P1    S    
O16   P6    D    
Ba2   O24   S    
C67   H13   S    
C3    H24   S    
Ba1   P2    S    
