data_mof_unit_55611.cif
_audit_creation_date              2012-10-26T21:02:37-0400
_audit_creation_method            fapswitch 2.2
_symmetry_space_group_name_H-M    P1
_symmetry_Int_Tables_number       1
_space_group_crystal_system       triclinic
_cell_length_a                    12.430895
_cell_length_b                    13.090808
_cell_length_c                    15.011662
_cell_angle_alpha                 76.863356
_cell_angle_beta                  101.706688
_cell_angle_gamma                 116.980475
_cell_volume                      2105.94551162

loop_
_atom_site_label
_atom_site_type_symbol
_atom_type_description
_atom_site_fract_x
_atom_site_fract_y
_atom_site_fract_z
_atom_type_partial_charge
C1    C     C_R   0.855100 0.286187 0.506199 0.566953
C2    C     C_R   0.954210 0.390501 0.828850 -0.010484
C3    C     C_R   0.999780 0.497087 0.768276 -0.031724
C4    C     C_R   0.999102 0.498014 0.670922 0.621765
C5    C     C_R   0.047401 0.604399 0.800240 0.034775
C6    C     C_R   0.278889 0.044364 0.395719 0.061560
C7    C     C_R   0.227587 0.840807 0.461879 0.004852
C8    C     C_R   0.814036 0.077932 0.550257 -0.109232
C9    C     C_R   0.734970 0.959744 0.558932 0.037781
C10   C     C_R   0.611545 0.926233 0.527172 -0.111360
C11   C     C_R   0.566689 0.009373 0.482989 0.013082
C12   C     C_R   0.054361 0.607955 0.082719 0.006124
C13   C     C_R   0.651461 0.125808 0.462253 0.000905
C14   C     C_R   0.440627 0.981132 0.458480 0.001903
C15   C     C_R   0.403167 0.066492 0.405103 0.038063
C16   C     C_R   0.144991 0.715081 0.483058 0.577776
C17   C     C_R   0.492004 0.171567 0.363235 0.026978
C18   C     C_R   0.614080 0.201586 0.395922 -0.069180
C19   C     C_R   0.351284 0.871954 0.489559 -0.124193
C20   C     C_R   0.189649 0.928519 0.413521 -0.028325
C21   C     C_R   0.773045 0.161931 0.504372 -0.028949
C22   C     C_R   0.344665 0.323086 0.642975 -0.111127
C23   C     C_R   0.870247 0.290657 0.069008 0.055290
C24   C     C_R   0.754481 0.639009 0.370251 0.031812
C25   C     C_R   0.655961 0.667901 0.339322 0.020438
C26   C     C_R   0.555215 0.615199 0.389172 -0.119358
C27   C     C_R   0.549408 0.530538 0.467235 -0.006984
C28   C     C_R   0.000699 0.501479 0.329439 0.523560
C29   C     C_R   0.652150 0.503616 0.494712 0.154534
C30   C     C_R   0.444906 0.470463 0.517970 0.014187
C31   C     C_R   0.443395 0.379806 0.591223 0.060903
C32   C     C_R   0.540915 0.347969 0.614091 -0.004857
C33   C     C_R   0.645004 0.414153 0.568650 -0.068762
C34   C     C_R   0.874560 0.291142 0.976944 -0.085353
C35   C     C_R   0.340471 0.495273 0.499403 0.042424
C36   C     C_R   0.250578 0.355726 0.625776 0.204993
C37   C     C_R   0.051999 0.606408 0.175945 -0.101108
C38   C     C_R   0.999692 0.501723 0.233440 -0.010056
C39   C     C_R   0.942802 0.397220 0.199712 -0.117496
C40   C     C_R   0.934522 0.395421 0.105726 0.000638
C41   C     C_R   0.993977 0.501317 0.047089 0.028336
C42   C     C_3   0.461947 0.250371 0.280529 -0.275773
C43   C     C_3   0.526339 0.267373 0.197924 -0.410628
C44   C     C_2   0.247091 0.143146 0.389381 0.538080
C45   C     C_R   0.941713 0.393150 0.919671 -0.023321
C46   C     C_2   0.780462 0.871010 0.603307 0.578336
C47   C     C_2   0.169165 0.309927 0.696938 0.633993
C48   C     C_3   0.530471 0.242122 0.687417 -0.301092
C49   C     C_3   0.637334 0.211198 0.707499 -0.408768
C50   C     C_2   0.656127 0.750160 0.253061 0.555180
C51   C     C_2   0.796471 0.178392 0.123406 0.561443
C52   C     C_2   0.927558 0.277871 0.799785 0.543319
C53   C     C_2   0.100515 0.714662 0.735688 0.550191
C54   C     C_2   0.186005 0.826752 0.056568 0.567455
C55   C     C_3   0.057938 0.900895 0.376632 -0.246314
C56   C     C_R   0.994406 0.500218 0.953358 0.012962
C57   C     C_3   0.987226 0.902152 0.448368 -0.365387
C58   C     C_R   0.049207 0.605840 0.894141 -0.018922
C59   C     C_R   0.107738 0.710531 0.930573 -0.083853
C60   C     C_R   0.113524 0.712840 0.023909 0.056831
Cu1   Cu    Cu3+1 0.098270 0.475420 0.521130 1.047340
Cu2   Cu    Cu3+1 0.901730 0.524580 0.478870 0.930575
H1    H     H_    0.090351 0.685475 0.205421 0.153293
H2    H     H_    0.480665 0.638743 0.364082 0.153729
H3    H     H_    0.719770 0.393295 0.591749 0.196166
H4    H     H_    0.819813 0.210983 0.949467 0.187112
H5    H     H_    0.154931 0.791771 0.887370 0.188542
H6    H     H_    0.625912 0.319059 0.211275 0.174950
H7    H     H_    0.507599 0.181910 0.181357 0.210332
H8    H     H_    0.492001 0.315129 0.136987 0.157776
H9    H     H_    0.364080 0.213600 0.255067 0.188646
H10   H     H_    0.487970 0.336102 0.300325 0.170898
H11   H     H_    0.147843 0.230883 0.324963 0.348978
H12   H     H_    0.376326 0.808109 0.535484 0.150697
H13   H     H_    0.746803 0.701532 0.632883 0.355284
H14   H     H_    0.160284 0.314908 0.828781 0.364149
H15   H     H_    0.656593 0.195285 0.644177 0.189976
H16   H     H_    0.715615 0.283614 0.737012 0.167635
H17   H     H_    0.617206 0.131434 0.759472 0.168736
H18   H     H_    0.518633 0.257490 0.753907 0.154113
H19   H     H_    0.449104 0.164967 0.665803 0.180280
H20   H     H_    0.563790 0.828068 0.159544 0.357371
H21   H     H_    0.746649 0.006374 0.152890 0.368968
H22   H     H_    0.924839 0.118284 0.836052 0.380329
H23   H     H_    0.908081 0.104446 0.578940 0.213159
H24   H     H_    0.100066 0.869434 0.678655 0.355064
H25   H     H_    0.232968 0.998917 0.031564 0.349767
H26   H     H_    0.891049 0.879033 0.419179 0.154732
H27   H     H_    0.989582 0.839193 0.511301 0.204638
H28   H     H_    0.026312 0.989946 0.467949 0.184342
H29   H     H_    0.050822 0.962163 0.314055 0.220538
H30   H     H_    0.014430 0.818201 0.349302 0.154494
H31   H     H_    0.553131 0.834573 0.535273 0.152954
H32   H     H_    0.680588 0.282766 0.364760 0.153424
H33   H     H_    0.340814 0.255691 0.700978 0.103610
H34   H     H_    0.905506 0.318283 0.248046 0.151741
H35   H     H_    0.333444 0.561084 0.443747 0.123766
H36   H     H_    0.830470 0.675932 0.330740 0.155430
N1    N     N_R   0.246280 0.438190 0.553160 -0.266234
N2    N     N_R   0.754320 0.561190 0.447410 -0.262583
O1    O     O_R   0.972510 0.318130 0.526570 -0.463849
O2    O     O_R   0.159048 0.159962 0.321267 -0.715908
O3    O     O_2   0.884533 0.900625 0.641264 -0.484293
O4    O     O_R   0.704730 0.753163 0.601482 -0.708220
O5    O     O_2   0.079945 0.217152 0.694265 -0.488958
O6    O     O_R   0.207093 0.364344 0.775017 -0.682062
O7    O     O_2   0.744012 0.796316 0.209548 -0.520648
O8    O     O_R   0.554790 0.773876 0.220475 -0.677697
O9    O     O_2   0.729875 0.173471 0.175596 -0.552946
O10   O     O_R   0.800005 0.077048 0.111926 -0.646557
O11   O     O_2   0.894143 0.263383 0.719489 -0.518116
O12   O     O_R   0.806530 0.359650 0.490890 -0.538460
O13   O     O_R   0.945843 0.189576 0.864033 -0.682435
O14   O     O_2   0.183915 0.732550 0.694122 -0.517655
O15   O     O_R   0.055549 0.797856 0.723316 -0.654509
O16   O     O_2   0.256412 0.834854 0.127345 -0.513297
O17   O     O_R   0.178118 0.926224 0.003278 -0.666275
O18   O     O_R   0.082980 0.479210 0.647590 -0.424839
O19   O     O_R   0.917000 0.520730 0.611900 -0.522205
O20   O     O_R   0.193470 0.640350 0.509110 -0.498164
O21   O     O_R   0.027490 0.681870 0.473430 -0.511525
O22   O     O_R   0.083000 0.479270 0.388100 -0.509342
O23   O     O_R   0.917020 0.520790 0.352410 -0.521261
O24   O     O_2   0.302054 0.212515 0.443333 -0.530310

loop_
_geom_bond_atom_site_label_1
_geom_bond_atom_site_label_2
_ccdc_geom_bond_type
C1    C21   S    
H22   O13   S    
C27   C29   A    
C22   H33   S    
C34   H4    S    
C28   O23   A    
C33   H3    S    
C54   C60   S    
C52   O13   S    
C49   H16   S    
C26   C27   A    
C37   C38   A    
C57   H27   S    
C30   C35   A    
C24   H36   S    
C5    C53   S    
H25   O17   S    
C16   O20   A    
C1    O12   A    
C30   C31   A    
C11   C14   A    
C28   O22   A    
C23   C40   A    
C29   C33   A    
C48   H19   S    
C36   C47   S    
C8    H23   S    
C12   C37   A    
C26   H2    S    
C25   C50   S    
C55   H29   S    
C59   H5    S    
C6    C15   A    
C17   C42   S    
C45   C56   A    
C56   C58   A    
C43   H6    S    
C47   O5    D    
C54   O16   D    
C4    O19   A    
H20   O8    S    
C9    C10   A    
C23   C34   A    
C59   C60   A    
C43   H7    S    
C6    C44   S    
Cu1   O20   S    
C50   O8    S    
C32   C48   S    
C4    O18   A    
Cu1   N1    S    
C20   C55   S    
C35   N1    A    
Cu2   O23   S    
C37   H1    S    
C17   C18   A    
C2    C45   A    
C38   C39   A    
C22   C31   A    
C24   C25   A    
C57   H28   S    
C39   C40   A    
C44   O2    S    
C8    C9    A    
C10   H31   S    
C58   C59   A    
C46   O4    S    
C44   O24   D    
C49   H17   S    
Cu1   O22   S    
Cu1   O1    S    
C16   O21   A    
C41   C56   A    
C55   H30   S    
C23   C51   S    
C31   C32   A    
C28   C38   S    
C47   O6    S    
C42   H10   S    
C8    C21   A    
H21   O10   S    
C13   C21   A    
C34   C45   A    
Cu2   O19   S    
C2    C52   S    
Cu2   N2    S    
C13   C18   A    
C48   C49   S    
C7    C20   A    
C43   H8    S    
C7    C19   A    
C55   C57   S    
H13   O4    S    
C18   H32   S    
C42   C43   S    
C3    C4    S    
C1    O1    A    
C6    C20   A    
C53   O14   D    
C12   C41   A    
C15   C17   A    
C7    C16   S    
H14   O6    S    
C29   N2    A    
Cu1   O18   S    
C24   N2    A    
C14   C19   A    
C19   H12   S    
C3    C5    A    
C51   O10   S    
C22   C36   A    
C46   O3    D    
C52   O11   D    
C57   H26   S    
C32   C33   A    
C48   H18   S    
C2    C3    A    
C25   C26   A    
C11   C13   A    
C50   O7    D    
C42   H9    S    
C49   H15   S    
C36   N1    A    
Cu1   Cu2   S    
C39   H34   S    
C10   C11   A    
C12   C60   A    
C9    C46   S    
Cu2   O12   S    
C51   O9    D    
C5    C58   A    
C54   O17   S    
C14   C15   A    
H24   O15   S    
C40   C41   A    
C35   H35   S    
Cu2   O21   S    
H11   O2    S    
C53   O15   S    
C27   C30   A    
