data_mof_unit_29546.cif
_audit_creation_date              2012-12-10T20:46:50-0500
_audit_creation_method            fapswitch 2.2
_symmetry_space_group_name_H-M    P1
_symmetry_Int_Tables_number       1
_space_group_crystal_system       triclinic
_cell_length_a                    12.611037
_cell_length_b                    8.924474
_cell_length_c                    8.177463
_cell_angle_alpha                 89.957469
_cell_angle_beta                  95.166786
_cell_angle_gamma                 89.787026
_cell_volume                      916.601427039

loop_
_atom_site_label
_atom_site_type_symbol
_atom_type_description
_atom_site_fract_x
_atom_site_fract_y
_atom_site_fract_z
_atom_type_partial_charge
C1    C     C_R   0.500130 0.218282 0.500063 0.954789
C2    C     C_R   0.852136 0.674289 0.668492 -0.062148
C3    C     C_R   0.136121 0.630121 0.588890 -0.081294
C4    C     C_R   0.862804 0.591754 0.390894 -0.070137
C5    C     C_R   0.024566 0.647015 0.562177 -0.048963
C6    C     C_R   0.973650 0.610443 0.405405 -0.062934
C7    C     C_1   0.500290 0.065244 0.500126 -0.145219
C8    C     C_1   0.500341 0.934708 0.500026 -0.107112
C9    C     C_2   0.799823 0.640518 0.239132 1.056859
C10   C     C_2   0.194223 0.650311 0.752154 1.053374
C11   C     C_2   0.780176 0.763664 0.764378 0.989317
C12   C     C_R   0.500275 0.781748 0.500010 0.908873
C13   C     C_2   0.196073 0.739182 0.194854 1.001040
C14   C     C_R   0.300737 0.530893 0.470953 0.947073
C15   C     C_R   0.701087 0.524306 0.528193 0.896085
C16   C     C_R   0.809926 0.585133 0.535927 -0.288711
C17   C     C_R   0.192695 0.593829 0.453532 -0.305862
C18   C     C_R   0.035825 0.606579 0.269542 0.392288
C19   C     C_R   0.961286 0.707773 0.679661 0.420908
C20   C     C_R   0.145037 0.627101 0.296849 -0.068662
Cl1   Cl    Cl    0.987492 0.556736 0.068181 -0.474507
Cl2   Cl    Cl    0.011074 0.853673 0.810060 -0.465275
H1    H     H_    0.716700 0.812220 0.127397 0.366007
H2    H     H_    0.315858 0.754233 0.883352 0.363239
H3    H     H_    0.723632 0.968387 0.816148 0.348816
H4    H     H_    0.179413 0.933065 0.068622 0.374914
N1    N     N_1   0.500020 0.500000 0.073640 0.023135
N2    N     N_1   0.499980 0.500000 0.926360 0.019450
O1    O     O_R   0.499990 0.285340 0.636850 -0.609101
O2    O     O_R   0.771644 0.791793 0.222676 -0.774141
O3    O     O_2   0.175269 0.569548 0.866370 -0.560473
O4    O     O_R   0.274962 0.757491 0.771248 -0.784201
O5    O     O_2   0.723131 0.702352 0.856350 -0.584269
O6    O     O_R   0.776416 0.919436 0.746181 -0.743022
O7    O     O_2   0.291608 0.736105 0.181156 -0.636952
O8    O     O_R   0.135355 0.858648 0.127118 -0.705262
O9    O     O_R   0.500010 0.714660 0.363150 -0.600912
O10   O     O_R   0.500010 0.285340 0.363150 -0.606249
O11   O     O_R   0.499990 0.714660 0.636850 -0.609432
O12   O     O_R   0.346350 0.500000 0.614250 -0.620457
O13   O     O_R   0.653650 0.500000 0.385750 -0.613006
O14   O     O_R   0.346360 0.500000 0.340500 -0.572431
O15   O     O_R   0.653640 0.500000 0.659500 -0.553101
O16   O     O_2   0.766601 0.548505 0.136457 -0.514267
Zn1   Zn    Zn3+2 0.499990 0.500000 0.682780 1.074925
Zn2   Zn    Zn3+2 0.500010 0.500000 0.317220 1.077008

loop_
_geom_bond_atom_site_label_1
_geom_bond_atom_site_label_2
_ccdc_geom_bond_type
C4    C16   A    
O13   Zn2   S    
H2    O4    S    
C3    C17   A    
O11   Zn1   S    
C5    C19   A    
C18   Cl1   S    
C2    C16   A    
C8    C12   S    
H3    O6    S    
C14   O14   A    
C19   Cl2   S    
C12   O11   A    
C1    O1    A    
O9    Zn2   S    
C15   O15   A    
C7    C8    T    
C3    C10   S    
C1    C7    S    
O15   Zn1   S    
C14   C17   S    
C5    C6    A    
C1    O10   A    
C2    C11   S    
C9    O2    S    
N1    Zn2   S    
H4    O8    S    
C13   O7    D    
C18   C20   A    
O12   Zn1   S    
C6    C18   A    
N2    Zn1   S    
O10   Zn2   S    
C14   O12   A    
C15   C16   S    
H1    O2    S    
C10   O4    S    
C11   O5    D    
C17   C20   A    
C15   O13   A    
C13   O8    S    
C4    C6    A    
O14   Zn2   S    
C12   O9    A    
C9    O16   D    
C13   C20   S    
C3    C5    A    
C4    C9    S    
C2    C19   A    
C10   O3    D    
C11   O6    S    
O1    Zn1   S    
N1    N2    T    
