data_mof_unit_17592.cif
_audit_creation_date              2013-03-05T15:41:34-0500
_audit_creation_method            fapswitch 2.2
_symmetry_space_group_name_H-M    P1
_symmetry_Int_Tables_number       1
_space_group_crystal_system       triclinic
_cell_length_a                    24.638736
_cell_length_b                    17.464289
_cell_length_c                    15.534973
_cell_angle_alpha                 90.266642
_cell_angle_beta                  129.389728
_cell_angle_gamma                 89.659919
_cell_volume                      5166.13350748

loop_
_atom_site_label
_atom_site_type_symbol
_atom_site_description
_atom_site_fract_x
_atom_site_fract_y
_atom_site_fract_z
_atom_type_partial_charge
C1    C     C_R   0.345370 0.366701 0.224084 -0.144592
C2    C     C_R   0.335153 0.611717 0.200461 -0.141880
C3    C     C_R   0.835465 0.887552 0.201374 -0.132050
C4    C     C_R   0.844408 0.132261 0.222472 -0.151532
N1    N     N_R   0.389430 0.421450 0.294590 -0.049729
N2    N     N_R   0.389430 0.578550 0.294590 -0.052438
N3    N     N_R   0.889430 0.921450 0.294590 -0.056998
N4    N     N_R   0.889430 0.078550 0.294590 -0.049932
C5    C     C_R   0.665116 0.384547 0.793289 -0.121338
C6    C     C_R   0.657987 0.630324 0.772307 -0.126131
C7    C     C_R   0.157482 0.868480 0.770666 -0.124203
C8    C     C_R   0.165355 0.114480 0.794067 -0.119837
H1    H     H_    0.716939 0.379574 0.817474 0.097653
H2    H     H_    0.707197 0.640677 0.789362 0.106353
H3    H     H_    0.206675 0.857558 0.787624 0.104532
H4    H     H_    0.217048 0.119060 0.817843 0.096688
N5    N     N_R   0.612200 0.424040 0.705410 -0.050550
N6    N     N_R   0.612200 0.575960 0.705410 -0.051471
N7    N     N_R   0.112200 0.924040 0.705410 -0.051459
N8    N     N_R   0.112200 0.075960 0.705410 -0.049145
C9    C     C_R   0.615594 0.397662 0.408029 -0.136717
C10   C     C_R   0.613514 0.602459 0.405866 -0.135354
C11   C     C_R   0.114970 0.897678 0.407209 -0.132638
C12   C     C_R   0.112842 0.105992 0.406417 -0.141045
H5    H     H_    0.593451 0.396892 0.321736 0.101712
H6    H     H_    0.589811 0.602754 0.318833 0.096535
H7    H     H_    0.091851 0.895146 0.320483 0.099299
H8    H     H_    0.090577 0.104934 0.320050 0.092951
N9    N     N_R   0.581780 0.422390 0.443390 -0.036742
N10   N     N_R   0.581780 0.577610 0.443390 -0.035377
N11   N     N_R   0.081780 0.922390 0.443390 -0.036261
N12   N     N_R   0.081780 0.077610 0.443390 -0.034549
C13   C     C_R   0.410151 0.358027 0.590137 -0.023499
C14   C     C_R   0.403464 0.635198 0.590958 -0.092281
C15   C     C_R   0.897282 0.871302 0.589546 -0.125509
C16   C     C_R   0.911858 0.142894 0.591193 -0.038103
H9    H     H_    0.437908 0.339000 0.674207 0.112405
H10   H     H_    0.417687 0.639601 0.671498 0.122103
H11   H     H_    0.911201 0.867679 0.670148 0.128005
H12   H     H_    0.940792 0.160784 0.675913 0.115177
N13   N     N_R   0.419850 0.423100 0.556610 -0.019521
N14   N     N_R   0.419850 0.576900 0.556610 -0.031087
N15   N     N_R   0.919850 0.923100 0.556610 -0.036920
N16   N     N_R   0.919850 0.076900 0.556610 -0.024621
C17   C     C_R   0.689459 0.397892 0.592803 -0.122525
C18   C     C_R   0.689032 0.601670 0.590844 -0.143784
C19   C     C_R   0.189554 0.899402 0.591964 -0.138642
C20   C     C_R   0.187768 0.106856 0.592014 -0.131270
N17   N     N_R   0.627410 0.423100 0.556610 -0.035139
N18   N     N_R   0.627410 0.576900 0.556610 -0.034913
N19   N     N_R   0.127410 0.923100 0.556610 -0.036240
N20   N     N_R   0.127410 0.076900 0.556610 -0.033596
C21   C     C_R   0.331420 0.363918 0.405365 -0.099540
C22   C     C_R   0.334398 0.639689 0.406007 -0.087582
C23   C     C_R   0.828567 0.866643 0.404149 -0.041268
C24   C     C_R   0.834620 0.139941 0.406767 -0.098247
H13   H     H_    0.284198 0.358374 0.320683 0.108333
H14   H     H_    0.291679 0.651801 0.319606 0.102450
H15   H     H_    0.786011 0.856446 0.317121 0.127502
H16   H     H_    0.787273 0.148283 0.322757 0.120711
N21   N     N_R   0.374220 0.422390 0.443390 -0.043447
N22   N     N_R   0.374220 0.577610 0.443390 -0.039351
N23   N     N_R   0.874220 0.922390 0.443390 -0.047339
N24   N     N_R   0.874220 0.077610 0.443390 -0.037725
C25   C     C_R   0.577074 0.390163 0.800621 -0.088330
C26   C     C_R   0.571682 0.629156 0.783105 -0.047850
C27   C     C_R   0.070347 0.869129 0.779742 -0.047298
C28   C     C_R   0.077817 0.108588 0.802146 -0.100872
N25   N     N_R   0.555000 0.424040 0.705410 -0.064422
N26   N     N_R   0.555000 0.575960 0.705410 -0.067409
N27   N     N_R   0.055000 0.924040 0.705410 -0.066809
N28   N     N_R   0.055000 0.075960 0.705410 -0.064920
C29   C     C_R   0.438700 0.364165 0.229701 -0.127022
C30   C     C_R   0.426820 0.614588 0.202492 -0.133183
C31   C     C_R   0.926865 0.884773 0.202557 -0.132974
C32   C     C_R   0.937845 0.134989 0.228524 -0.127403
H17   H     H_    0.474472 0.350322 0.213872 0.111685
H18   H     H_    0.457086 0.615970 0.174072 0.103924
H19   H     H_    0.956953 0.883032 0.173803 0.107341
H20   H     H_    0.973265 0.148577 0.212173 0.101188
N29   N     N_R   0.446630 0.421450 0.294590 -0.047362
N30   N     N_R   0.446630 0.578550 0.294590 -0.046583
N31   N     N_R   0.946630 0.921450 0.294590 -0.047876
N32   N     N_R   0.946630 0.078550 0.294590 -0.046245
C33   C     C_R   0.376850 0.327161 0.188154 0.147908
C34   C     C_R   0.357037 0.635461 0.141735 0.150899
C35   C     C_R   0.857272 0.863492 0.142427 0.146823
C36   C     C_R   0.875460 0.171505 0.186219 0.147355
C37   C     C_R   0.644455 0.361152 0.853815 0.020939
C38   C     C_R   0.633426 0.666030 0.820716 -0.003250
C39   C     C_R   0.132167 0.831879 0.817054 -0.010898
C40   C     C_R   0.145216 0.137059 0.855811 0.010246
C41   C     C_R   0.684135 0.383159 0.500688 0.000423
C42   C     C_R   0.681422 0.618503 0.497162 0.009872
C43   C     C_R   0.183632 0.884085 0.499432 0.003119
C44   C     C_R   0.179294 0.126538 0.498421 0.007994
C45   C     C_R   0.353376 0.321270 0.496339 -0.077748
C46   C     C_R   0.353173 0.678544 0.498481 -0.050597
C47   C     C_R   0.843098 0.832195 0.495692 -0.033686
C48   C     C_R   0.857999 0.183453 0.498321 -0.073399
Ni1   Ni    Ni4+2 0.382890 0.500000 0.370170 0.233198
Ni2   Ni    Ni4+2 0.882890 0.000000 0.370170 0.239766
Ni3   Ni    Ni4+2 0.618740 0.500000 0.629830 0.206477
Ni4   Ni    Ni4+2 0.118740 0.000000 0.629830 0.205208
Ni5   Ni    Ni4+2 0.514090 0.500000 0.370170 0.210792
Ni6   Ni    Ni4+2 0.014090 0.000000 0.370170 0.207861
Ni7   Ni    Ni4+2 0.487550 0.500000 0.629830 0.301764
Ni8   Ni    Ni4+2 0.987550 0.000000 0.629830 0.298075
C49   C     C_3   0.349224 0.192519 0.560141 -0.388772
C50   C     C_3   0.353913 0.782873 0.607591 -0.376192
C51   C     C_3   0.848711 0.710557 0.579850 -0.381528
C52   C     C_3   0.857875 0.290027 0.606201 -0.385497
C53   C     C_3   0.804359 0.649216 0.580308 -0.401061
C54   C     C_3   0.810901 0.350674 0.602589 -0.402176
C55   C     C_3   0.301685 0.139604 0.566388 -0.401843
C56   C     C_3   0.308654 0.844802 0.604979 -0.416729
H21   H     H_    0.728982 0.749029 0.611489 0.165283
H22   H     H_    0.727783 0.241882 0.589690 0.163482
H23   H     H_    0.244930 0.245922 0.631543 0.155772
H24   H     H_    0.216962 0.739618 0.576302 0.157810
C57   C     C_3   0.283411 0.304903 0.558184 -0.237782
C58   C     C_3   0.249292 0.693325 0.485365 -0.208409
C59   C     C_3   0.758174 0.812192 0.527283 -0.229209
C60   C     C_3   0.757069 0.195233 0.494748 -0.202209
C61   C     C_3   0.244482 0.243957 0.375625 -0.351368
C62   C     C_3   0.278320 0.795128 0.400873 -0.345047
C63   C     C_3   0.750073 0.734622 0.377612 -0.371494
C64   C     C_3   0.777825 0.296423 0.398419 -0.358878
C65   C     C_3   0.308452 0.267097 0.496862 0.271267
C66   C     C_3   0.309191 0.736156 0.496676 0.257158
C67   C     C_3   0.800056 0.774283 0.493583 0.280225
C68   C     C_3   0.813531 0.240131 0.498362 0.259782
H25   H     H_    0.262731 0.218170 0.332165 0.181600
H26   H     H_    0.321450 0.829950 0.416342 0.164743
H27   H     H_    0.781300 0.705302 0.357922 0.161274
H28   H     H_    0.818272 0.333554 0.409028 0.159598
C69   C     C_3   0.725833 0.671813 0.495694 0.365573
C70   C     C_3   0.732949 0.334854 0.500982 0.355767
C71   C     C_3   0.226845 0.174799 0.497365 0.371567
C72   C     C_3   0.230979 0.833891 0.499334 0.364227
C73   C     C_3   0.714023 0.751006 0.527127 -0.443624
C74   C     C_3   0.714795 0.251500 0.507541 -0.460740
C75   C     C_3   0.229611 0.253072 0.547431 -0.467903
C76   C     C_3   0.207575 0.751156 0.497282 -0.454070
C77   C     C_3   0.704555 0.676420 0.377891 -0.422874
C78   C     C_3   0.724271 0.346272 0.393463 -0.365899
C79   C     C_3   0.198558 0.187236 0.376406 -0.395999
C80   C     C_3   0.226131 0.847809 0.395771 -0.375250
H29   H     H_    0.649046 0.695582 0.315277 0.168138
H30   H     H_    0.670709 0.329418 0.318549 0.202479
H31   H     H_    0.144150 0.210873 0.323011 0.166737
H32   H     H_    0.172432 0.835181 0.317687 0.193797
H33   H     H_    0.778862 0.384505 0.014660 0.153809
H34   H     H_    0.684604 0.788251 0.800474 0.159388
H35   H     H_    0.188443 0.711458 0.799970 0.153374
H36   H     H_    0.280865 0.116033 0.013186 0.150119
C81   C     C_2   0.689336 0.320405 0.960568 -0.069359
C82   C     C_2   0.670912 0.727495 0.903416 -0.058753
C83   C     C_2   0.168765 0.769224 0.898094 -0.068688
C84   C     C_2   0.190471 0.177016 0.963634 -0.047258
C85   C     C_2   0.758098 0.338554 0.033093 -0.217621
C86   C     C_2   0.695050 0.786074 0.879742 -0.234596
C87   C     C_2   0.195465 0.711850 0.876485 -0.226079
C88   C     C_2   0.259728 0.160403 0.033875 -0.208410
H37   H     H_    0.334035 0.711390 0.009486 0.146498
H38   H     H_    0.352562 0.251835 0.053340 0.149340
H39   H     H_    0.850668 0.246421 0.051414 0.145686
H40   H     H_    0.833823 0.786770 0.009832 0.148120
C89   C     C_2   0.311939 0.668751 0.030094 -0.234002
C90   C     C_2   0.348068 0.258850 0.118155 -0.229543
C91   C     C_2   0.846364 0.239682 0.116400 -0.230200
C92   C     C_2   0.811850 0.829655 0.031019 -0.225637
C93   C     C_2   0.242923 0.655217 0.961196 -0.077523
C94   C     C_2   0.309998 0.210534 0.127024 -0.095279
C95   C     C_2   0.808667 0.288607 0.126157 -0.085201
C96   C     C_2   0.742664 0.842940 0.963457 -0.065236
H41   H     H_    0.292768 0.358078 0.194313 0.129206
H42   H     H_    0.281875 0.610034 0.170411 0.138924
H43   H     H_    0.782314 0.888963 0.171937 0.143442
H44   H     H_    0.791486 0.140195 0.191942 0.145370
H45   H     H_    0.365517 0.162512 0.516374 0.174590
H46   H     H_    0.399715 0.809713 0.621269 0.183273
H47   H     H_    0.880248 0.683546 0.559211 0.174639
H48   H     H_    0.901630 0.318526 0.615511 0.178559
H49   H     H_    0.813067 0.592464 0.557877 0.160392
H50   H     H_    0.825949 0.408978 0.595959 0.163248
H51   H     H_    0.299383 0.081779 0.533801 0.156384
H52   H     H_    0.327195 0.902683 0.604643 0.164598
H53   H     H_    0.324658 0.132896 0.654890 0.158685
H54   H     H_    0.315671 0.839486 0.682682 0.155684
H55   H     H_    0.821678 0.644607 0.665859 0.160456
H56   H     H_    0.820236 0.347952 0.682434 0.155006
H57   H     H_    0.329808 0.307786 0.648552 0.128848
H58   H     H_    0.274110 0.651987 0.555694 0.117582
H59   H     H_    0.797081 0.833579 0.614320 0.111666
H60   H     H_    0.785262 0.155709 0.567576 0.136222
H61   H     H_    0.714746 0.775775 0.309218 0.209422
H62   H     H_    0.750660 0.266725 0.317430 0.204632
H63   H     H_    0.211245 0.294370 0.326484 0.195363
H64   H     H_    0.251191 0.767534 0.318574 0.176877
H65   H     H_    0.709933 0.619289 0.351825 0.164211
H66   H     H_    0.731748 0.407533 0.383949 0.148640
H67   H     H_    0.197586 0.131916 0.339483 0.167532
H68   H     H_    0.237763 0.908709 0.392461 0.150705
C97   C     C_2   0.256054 0.386220 0.523224 1.059209
O1    O     O_2   0.203155 0.400303 0.428266 -0.638369
O2    O     O_R   0.291778 0.445113 0.601664 -0.791630
H69   H     H_    0.268459 0.496863 0.570820 0.351243
C98   C     C_2   0.200789 0.647273 0.378394 0.999568
O3    O     O_2   0.159774 0.679441 0.288497 -0.656427
O4    O     O_R   0.203108 0.567405 0.383253 -0.793529
H70   H     H_    0.169058 0.542858 0.307064 0.347479
C99   C     C_2   0.712172 0.880537 0.459070 1.067415
O5    O     O_2   0.696527 0.895452 0.369017 -0.665350
O6    O     O_R   0.685453 0.925344 0.499518 -0.789335
H71   H     H_    0.652930 0.967463 0.446056 0.341347
C100  C     C_2   0.708138 0.146205 0.391371 0.997749
O7    O     O_2   0.663738 0.175694 0.300398 -0.639811
O8    O     O_R   0.714389 0.066649 0.400635 -0.790924
H72   H     H_    0.680009 0.040436 0.325873 0.349580
H73   H     H_    0.656952 0.765652 0.467660 0.167643
H74   H     H_    0.657230 0.241262 0.443505 0.178392
H75   H     H_    0.176192 0.279400 0.493621 0.185483
H76   H     H_    0.149987 0.744340 0.429071 0.178364
H77   H     H_    0.220527 0.612188 0.980593 0.178557
H78   H     H_    0.306964 0.217231 0.193413 0.180830
H79   H     H_    0.805372 0.281985 0.192258 0.169386
H80   H     H_    0.720316 0.886189 0.983362 0.166253
C101  C     C_2   0.657740 0.255381 0.977247 1.093363
O9    O     O_2   0.681436 0.235662 0.070723 -0.660056
O10   O     O_R   0.598471 0.218638 0.884244 -0.824333
H81   H     H_    0.580793 0.176365 0.905262 0.325474
C102  C     C_2   0.686210 0.718791 0.012475 1.069196
O11   O     O_2   0.691813 0.774918 0.064879 -0.669270
O12   O     O_R   0.692394 0.645416 0.053627 -0.807979
H82   H     H_    0.701913 0.646462 0.127428 0.319648
C103  C     C_2   0.179865 0.774541 0.004076 1.076756
O13   O     O_2   0.188923 0.837149 0.046921 -0.653242
O14   O     O_R   0.177659 0.708822 0.052742 -0.803049
H83   H     H_    0.184785 0.720396 0.123293 0.328996
C104  C     C_2   0.158905 0.240160 0.984409 1.087099
O15   O     O_2   0.108400 0.275683 0.905619 -0.669405
O16   O     O_R   0.184569 0.257000 0.092458 -0.831401
H84   H     H_    0.157978 0.300389 0.094730 0.315192
H85   H     H_    0.735861 0.396584 0.679414 0.086112
H86   H     H_    0.736426 0.603836 0.676704 0.089159
H87   H     H_    0.236426 0.900166 0.678152 0.087333
H88   H     H_    0.235115 0.109648 0.677962 0.087949
C105  C     C_2   0.545081 0.404544 0.854312 1.009675
O17   O     O_2   0.575103 0.384041 0.950049 -0.634198
O18   O     O_R   0.481144 0.443556 0.796598 -0.769800
H89   H     H_    0.463777 0.447742 0.840681 0.352264
C106  C     C_2   0.539281 0.639375 0.835712 0.973243
O19   O     O_2   0.521449 0.583957 0.859592 -0.612033
O20   O     O_R   0.529882 0.713173 0.859683 -0.822129
H90   H     H_    0.507280 0.713080 0.896022 0.322553
C107  C     C_2   0.035266 0.855905 0.827390 0.964098
O21   O     O_2   0.024795 0.790360 0.840929 -0.661141
O22   O     O_R   0.015583 0.917404 0.859663 -0.753916
H91   H     H_    0.992583 0.900586 0.892136 0.327448
C108  C     C_2   0.047468 0.091685 0.857436 1.021233
O23   O     O_2   0.990190 0.060928 0.805151 -0.627720
O24   O     O_R   0.085187 0.107674 0.970497 -0.795712
H92   H     H_    0.059025 0.092447 0.998254 0.330000
H93   H     H_    0.397797 0.205606 0.645976 0.165555
H94   H     H_    0.374566 0.745400 0.680173 0.168887
H95   H     H_    0.886387 0.734904 0.665152 0.191034
H96   H     H_    0.881293 0.253924 0.681139 0.166151

loop_
_geom_bond_atom_site_label_1
_geom_bond_atom_site_label_2
_geom_bond_distance
_ccdc_geom_bond_type
N6    N26   1.409336 A    
C82   C86   1.350530 D    
N3    N31   1.409336 A    
C60   H60   1.114962 S    
N5    N25   1.409336 A    
N2    N30   1.409336 A    
C23   H15   1.076917 S    
C34   C89   1.461660 S    
H23   C75   1.113762 S    
C57   C75   1.528460 S    
N7    N27   1.409336 A    
O14   H83   1.013417 S    
C14   N14   1.322042 A    
C58   C76   1.529126 S    
C4    N4    1.336288 A    
C60   C74   1.529328 S    
C72   C80   1.555984 S    
C44   C71   1.455851 S    
C52   C54   1.538842 S    
N25   Ni7   1.847180 S    
N15   N23   1.359403 A    
O24   H92   1.013932 S    
C26   C38   1.396579 A    
N9    N17   1.359403 A    
C99   O5    1.221199 D    
N16   N24   1.359431 A    
C25   C37   1.395880 A    
O18   H89   1.014149 S    
C56   H52   1.113145 S    
C7    N7    1.332205 A    
C105  O17   1.221842 D    
C31   H19   1.081610 S    
C9    H5    1.080089 S    
C8    N8    1.333116 A    
C3    C35   1.386382 A    
C1    N1    1.336360 A    
C84   C88   1.349274 D    
C6    N6    1.330294 A    
C69   C77   1.553586 S    
H24   C76   1.114645 S    
C30   N30   1.341561 A    
C104  O15   1.223241 D    
C3    N3    1.331555 A    
N26   Ni7   1.853488 S    
C12   C44   1.372750 A    
C82   C102  1.492240 S    
C75   H75   1.114693 S    
C108  O23   1.220660 D    
C85   C95   1.454679 S    
N2    Ni1   1.882600 S    
C27   N27   1.359366 A    
C86   C96   1.455795 S    
C62   C66   1.556441 S    
C49   H45   1.112973 S    
O16   H84   1.013849 S    
C64   C68   1.556076 S    
N4    Ni2   1.882600 S    
C95   H79   1.086969 S    
C60   C68   1.570569 S    
N10   Ni5   1.875435 S    
C107  O21   1.223015 D    
N24   Ni2   1.862042 S    
N30   Ni5   1.879944 S    
C29   N29   1.340955 A    
C46   C66   1.461551 S    
C3    H43   1.079045 S    
N12   N20   1.359431 A    
C5    H1    1.081277 S    
C41   C70   1.462608 S    
C98   O4    1.396084 S    
C20   C44   1.376317 A    
C78   H30   1.111215 S    
C71   C75   1.549896 S    
C31   N31   1.342793 A    
C91   C95   1.335570 D    
C8    H4    1.081158 S    
C74   H74   1.115279 S    
N3    Ni2   1.873221 S    
C23   N23   1.312221 A    
N32   Ni6   1.879944 S    
O12   H82   1.014079 S    
C24   N24   1.322592 A    
C88   C94   1.456334 S    
C57   C97   1.515691 S    
C84   C104  1.493377 S    
N13   N21   1.359403 A    
C15   N15   1.326916 A    
N14   Ni7   1.859946 S    
N14   N22   1.359431 A    
C39   C83   1.468218 S    
C4    H44   1.076088 S    
N22   Ni1   1.862042 S    
C99   O6    1.398179 S    
C55   H51   1.113016 S    
N10   N18   1.359431 A    
C17   C41   1.374747 A    
N18   Ni3   1.862563 S    
C36   C91   1.457070 S    
N12   Ni6   1.875435 S    
N27   Ni8   1.847180 S    
H37   C89   1.087031 S    
C10   C42   1.370983 A    
C59   H59   1.114078 S    
C2    N2    1.333773 A    
C21   N21   1.311605 A    
C58   H58   1.114894 S    
N23   Ni2   1.871571 S    
C15   C47   1.380461 A    
C63   H61   1.108597 S    
H35   C87   1.087114 S    
C57   H57   1.115064 S    
C28   C108  1.484658 S    
C35   C92   1.461889 S    
H34   C86   1.087260 S    
C25   C105  1.486730 S    
N29   Ni5   1.886358 S    
C11   H7    1.080433 S    
N16   Ni8   1.859946 S    
C1    C33   1.389094 A    
H21   C73   1.114377 S    
C53   H55   1.111618 S    
N1    Ni1   1.873221 S    
C32   N32   1.340404 A    
C105  O18   1.396435 S    
C54   H56   1.109979 S    
C27   C39   1.396598 A    
C20   H88   1.081296 S    
C81   C101  1.493997 S    
O2    H69   1.012407 S    
N4    N32   1.409336 A    
C80   H32   1.111148 S    
C16   H12   1.070526 S    
N9    Ni5   1.868767 S    
C52   H48   1.112972 S    
C70   C74   1.548081 S    
C57   C65   1.568253 S    
O8    H72   1.013427 S    
C108  O24   1.397642 S    
C62   C80   1.537374 S    
C61   H63   1.110307 S    
C19   N19   1.320844 A    
C22   N22   1.321133 A    
C21   C45   1.370920 A    
N19   Ni4   1.853078 S    
C97   O1    1.222581 D    
C9    N9    1.325436 A    
C13   H9    1.073097 S    
C32   C36   1.382555 A    
C24   H16   1.073705 S    
H33   C85   1.086613 S    
C104  O16   1.397985 S    
C11   N11   1.322046 A    
C38   C82   1.465877 S    
N21   Ni1   1.871571 S    
O6    H71   1.013400 S    
C12   N12   1.313934 A    
C101  O9    1.222474 D    
C61   C79   1.514121 S    
N1    N29   1.409336 A    
N7    Ni4   1.849743 S    
O4    H70   1.013806 S    
C18   C42   1.377182 A    
C26   C106  1.470389 S    
C17   N17   1.323090 A    
C28   N28   1.350082 A    
C53   H49   1.113083 S    
C59   C73   1.528289 S    
C51   H47   1.113360 S    
C98   O3    1.223337 D    
C43   C72   1.455835 S    
C58   C98   1.521526 S    
C51   C53   1.538074 S    
N5    Ni3   1.849743 S    
C52   C68   1.560210 S    
C102  O12   1.398456 S    
C18   H86   1.080441 S    
C27   C107  1.471162 S    
C10   H6    1.080273 S    
C63   C77   1.520107 S    
C4    C36   1.388867 A    
C71   C79   1.550402 S    
C51   C67   1.559085 S    
C49   H93   1.112468 S    
C55   C71   1.552740 S    
H38   C90   1.086872 S    
C7    H3    1.080422 S    
C69   C73   1.550877 S    
C103  O14   1.397427 S    
C59   C99   1.517768 S    
C49   C65   1.553993 S    
N11   Ni6   1.868767 S    
C83   C87   1.348639 D    
C16   N16   1.334753 A    
C32   H20   1.080175 S    
C24   C48   1.373853 A    
C17   H85   1.079626 S    
O20   H90   1.013810 S    
C87   C93   1.456939 S    
C50   C56   1.530862 S    
C50   H94   1.110547 S    
C50   H46   1.113295 S    
C80   H68   1.113019 S    
C12   H8    1.080365 S    
C106  O20   1.398145 S    
C22   H14   1.077555 S    
H40   C92   1.086932 S    
C62   H64   1.107728 S    
C52   H96   1.111629 S    
C60   C100  1.519164 S    
N20   Ni4   1.862563 S    
C21   H13   1.072972 S    
C83   C103  1.490469 S    
C10   N10   1.313149 A    
C64   H62   1.108705 S    
C59   C67   1.565739 S    
C14   H10   1.066360 S    
C8    C40   1.385633 A    
C15   H11   1.070015 S    
N8    N28   1.409336 A    
C72   C76   1.551607 S    
N11   N19   1.359403 A    
C81   C85   1.349287 D    
H22   C74   1.114569 S    
N13   Ni7   1.866589 S    
N17   Ni3   1.853078 S    
C19   C43   1.374726 A    
H39   C91   1.086934 S    
C16   C48   1.382989 A    
C37   C81   1.467521 S    
C2    C34   1.387617 A    
N8    Ni4   1.840509 S    
C90   C94   1.336155 D    
C5    C37   1.386970 A    
C30   C34   1.384208 A    
C18   N18   1.325147 A    
C61   H25   1.113949 S    
C33   C90   1.458735 S    
C54   H50   1.113011 S    
N31   Ni6   1.886358 S    
C47   C67   1.454962 S    
C40   C84   1.471007 S    
C53   C69   1.547564 S    
C13   N13   1.336655 A    
C14   C46   1.382757 A    
C64   H28   1.113115 S    
H36   C88   1.086420 S    
C100  O7    1.223585 D    
C45   C65   1.464326 S    
C29   C33   1.384178 A    
C78   H66   1.113009 S    
C93   H77   1.085395 S    
C48   C68   1.472480 S    
C96   H80   1.085490 S    
C77   H65   1.113463 S    
N6    Ni3   1.840509 S    
C64   C78   1.537213 S    
C106  O19   1.217622 D    
C9    C41   1.378827 A    
C56   H54   1.109786 S    
C25   N25   1.347922 A    
C79   H31   1.113931 S    
C79   H67   1.113854 S    
C28   C40   1.395981 A    
N28   Ni8   1.853488 S    
C11   C43   1.375927 A    
C50   C66   1.560975 S    
C5    N5    1.333553 A    
N15   Ni8   1.866589 S    
C54   C70   1.552817 S    
C94   H78   1.086087 S    
C100  O8    1.395001 S    
C63   H27   1.113680 S    
C63   C67   1.557165 S    
C76   H76   1.114828 S    
C49   C55   1.547036 S    
C51   H95   1.112089 S    
C6    H2    1.080461 S    
C55   H53   1.112394 S    
C7    C39   1.377111 A    
C70   C78   1.557137 S    
C20   N20   1.325246 A    
C6    C38   1.374552 A    
C26   N26   1.361374 A    
C62   H26   1.113117 S    
C29   H17   1.080633 S    
C101  O10   1.398721 S    
C61   C65   1.558098 S    
C30   H18   1.081554 S    
C23   C47   1.368129 A    
O10   H81   1.013865 S    
C42   C69   1.452100 S    
C89   C93   1.336228 D    
C19   H87   1.078952 S    
C22   C46   1.374587 A    
C2    H42   1.079144 S    
C13   C45   1.380969 A    
C107  O22   1.391950 S    
C103  O13   1.223090 D    
C97   O2    1.398307 S    
C1    H41   1.075730 S    
C58   C66   1.565651 S    
C77   H29   1.112579 S    
C31   C35   1.386471 A    
O22   H91   1.013938 S    
C102  O11   1.222378 D    
C73   H73   1.115957 S    
C92   C96   1.337193 D    
C56   C72   1.551604 S    
