data_mof_unit_7173.cif
_audit_creation_date              2013-03-05T16:48:43-0500
_audit_creation_method            fapswitch 2.2
_symmetry_space_group_name_H-M    P1
_symmetry_Int_Tables_number       1
_space_group_crystal_system       triclinic
_cell_length_a                    27.77055
_cell_length_b                    8.916229
_cell_length_c                    8.097903
_cell_angle_alpha                 90.024323
_cell_angle_beta                  89.999944
_cell_angle_gamma                 90.000045
_cell_volume                      2005.1101085

loop_
_atom_site_label
_atom_site_type_symbol
_atom_site_description
_atom_site_fract_x
_atom_site_fract_y
_atom_site_fract_z
_atom_type_partial_charge
O1    O     O_R   0.500000 0.285350 0.636850 -0.613899
O2    O     O_R   0.500000 0.714650 0.363150 -0.613899
O3    O     O_R   0.500000 0.714650 0.636850 -0.613712
O4    O     O_R   0.500000 0.285350 0.363150 -0.613712
C1    C     C_R   0.500000 0.217994 0.499978 0.946765
C2    C     C_R   0.500000 0.782006 0.500022 0.946765
O5    O     O_R   0.428760 0.500000 0.636860 -0.623822
O6    O     O_R   0.571240 0.500000 0.363140 -0.623821
O7    O     O_R   0.571240 0.500000 0.636860 -0.623821
O8    O     O_R   0.428760 0.500000 0.363140 -0.623822
C3    C     C_R   0.405755 0.500000 0.500000 0.871966
C4    C     C_R   0.594244 0.500000 0.500000 0.871973
Zn1   Zn    Zn3+2 0.500000 0.500000 0.682780 0.996734
Zn2   Zn    Zn3+2 0.500000 0.500000 0.317220 0.996734
C5    C     C_R   0.177792 0.368911 0.529342 0.506503
C6    C     C_R   0.822215 0.631099 0.470729 0.506470
C7    C     C_R   0.177791 0.631089 0.470660 0.506502
C8    C     C_R   0.822215 0.368894 0.529268 0.506471
O9    O     O_2   0.202827 0.241573 0.557051 -0.533983
O10   O     O_2   0.797183 0.758459 0.443121 -0.534026
O11   O     O_2   0.202826 0.758427 0.442951 -0.533983
O12   O     O_2   0.797183 0.241533 0.556875 -0.534027
N1    N     N_R   0.201648 0.500000 0.500001 -0.361052
N2    N     N_R   0.798356 0.499996 0.499998 -0.361009
C9    C     C_R   0.277807 0.495558 0.649855 -0.096714
C10   C     C_R   0.722191 0.505358 0.350197 -0.096595
C11   C     C_R   0.277807 0.504443 0.350147 -0.096714
C12   C     C_R   0.722191 0.494635 0.649801 -0.096596
C13   C     C_R   0.327828 0.495733 0.650094 -0.205233
C14   C     C_R   0.672170 0.505178 0.349957 -0.205335
C15   C     C_R   0.327828 0.504267 0.349907 -0.205233
C16   C     C_R   0.672170 0.494818 0.650042 -0.205336
C17   C     C_R   0.252889 0.500001 0.500001 0.320737
C18   C     C_R   0.747112 0.499996 0.499999 0.320452
C19   C     C_R   0.101806 0.499999 0.500001 -0.050147
C20   C     C_R   0.898200 0.499997 0.499999 -0.050157
C21   C     C_R   0.127433 0.366401 0.529879 -0.021350
C22   C     C_R   0.872573 0.633604 0.470178 -0.021322
C23   C     C_R   0.127433 0.633598 0.470123 -0.021350
C24   C     C_R   0.872574 0.366390 0.529820 -0.021321
C25   C     C_R   0.102488 0.233541 0.559400 -0.137839
C26   C     C_R   0.897519 0.766473 0.440709 -0.137827
C27   C     C_R   0.102488 0.766458 0.440603 -0.137839
C28   C     C_R   0.897519 0.233521 0.559289 -0.137827
C29   C     C_R   0.353160 0.500000 0.500000 -0.040887
C30   C     C_R   0.646838 0.499999 0.500000 -0.040885
H1    H     H_    0.258336 0.507665 0.234277 0.137656
H2    H     H_    0.741660 0.490696 0.765636 0.137803
H3    H     H_    0.258336 0.492336 0.765724 0.137657
H4    H     H_    0.741660 0.509296 0.234362 0.137803
H5    H     H_    0.121449 0.129458 0.582747 0.191342
H6    H     H_    0.878558 0.870565 0.417411 0.191333
H7    H     H_    0.121448 0.870541 0.417255 0.191341
H8    H     H_    0.878559 0.129428 0.582586 0.191333
C31   C     C_R   0.974464 0.363889 0.530259 0.048445
C32   C     C_R   0.025543 0.636103 0.469719 0.048442
C33   C     C_R   0.974464 0.636106 0.469740 0.048446
C34   C     C_R   0.025543 0.363893 0.530281 0.048442
C35   C     C_R   0.949280 0.499998 0.499999 0.070423
C36   C     C_R   0.050727 0.499999 0.500000 0.070431
C37   C     C_R   0.947383 0.231900 0.559623 -0.220281
C38   C     C_R   0.052624 0.768081 0.440286 -0.220288
C39   C     C_R   0.947383 0.768095 0.440375 -0.220281
C40   C     C_R   0.052624 0.231917 0.559716 -0.220288
H9    H     H_    0.963278 0.124227 0.583799 0.136579
H10   H     H_    0.036728 0.875743 0.416049 0.136608
H11   H     H_    0.963278 0.875768 0.416200 0.136579
H12   H     H_    0.036729 0.124254 0.583953 0.136608
C41   C     C_1   0.500000 0.065221 0.499968 -0.182719
C42   C     C_1   0.500000 0.934779 0.500032 -0.182719
N3    N     N_1   0.500000 0.500000 0.073640 -0.035340
N4    N     N_1   0.500000 0.500000 0.926360 -0.035340
H13   H     H_    0.346578 0.507588 0.232639 0.164241
H14   H     H_    0.653419 0.490758 0.767267 0.164261
H15   H     H_    0.346578 0.492412 0.767361 0.164241
H16   H     H_    0.653419 0.509239 0.232732 0.164261

loop_
_geom_bond_atom_site_label_1
_geom_bond_atom_site_label_2
_geom_bond_distance
_ccdc_geom_bond_type
C31   C35   1.422037 A    
Zn2   N3    1.972487 S    
C20   C35   1.418500 A    
C11   C17   1.397506 A    
C5    O9    1.350175 S    
C7    N1    1.364461 A    
O1    C1    1.260399 A    
C40   H12   1.074720 S    
C19   C21   1.408616 A    
C22   C26   1.393053 A    
C10   H4    1.083263 S    
C16   H14   1.083338 S    
C15   H13   1.083423 S    
C34   C36   1.422039 A    
C32   C33   1.418506 A    
C7    C23   1.398663 A    
C8    C24   1.398669 A    
C5    C21   1.398666 A    
C20   C24   1.408604 A    
O7    Zn1   2.013015 S    
C27   H7    1.083694 S    
N1    C17   1.423002 S    
C1    C41   1.362162 S    
C8    N2    1.364494 A    
O3    Zn1   1.949829 S    
C6    O10   1.350178 S    
O3    C2    1.260532 A    
C5    N1    1.364461 A    
C12   C18   1.397445 A    
C6    N2    1.364494 A    
C21   C25   1.393053 A    
O2    C2    1.260399 A    
C10   C18   1.397444 A    
C33   C39   1.416795 A    
C9    C13   1.389110 A    
C39   H11   1.074713 S    
C38   H10   1.074720 S    
C11   C15   1.389107 A    
C12   C16   1.389107 A    
C4    C30   1.460567 S    
O8    Zn2   2.013017 S    
C23   C27   1.393052 A    
C34   C40   1.416803 A    
N2    C18   1.423085 S    
C32   C36   1.422039 A    
C13   C29   1.404885 A    
C19   C36   1.418495 A    
C19   C23   1.408618 A    
C37   H9    1.074713 S    
C14   H16   1.083338 S    
O5    C3    1.279224 A    
C24   C28   1.393053 A    
O6    C4    1.279219 A    
C9    C17   1.397505 A    
C10   C14   1.389107 A    
C32   C38   1.416803 A    
C3    C29   1.460587 S    
O1    Zn1   1.949519 S    
C11   H1    1.083345 S    
C2    C42   1.362162 S    
C12   H2    1.083262 S    
O6    Zn2   2.013015 S    
C8    O12   1.350177 S    
C16   C30   1.404765 A    
C14   C30   1.404767 A    
O4    C1    1.260532 A    
C13   H15   1.083423 S    
Zn1   N4    1.972487 S    
C28   C37   1.384826 A    
C20   C22   1.408605 A    
N3    N4    1.192658 T    
C31   C37   1.416796 A    
O4    Zn2   1.949829 S    
C41   C42   1.163052 T    
O2    Zn2   1.949519 S    
O7    C4    1.279219 A    
C9    H3    1.083343 S    
C33   C35   1.422036 A    
O8    C3    1.279224 A    
C28   H8    1.083688 S    
O5    Zn1   2.013018 S    
C15   C29   1.404886 A    
C31   C34   1.418506 A    
C6    C22   1.398666 A    
C25   C40   1.384823 A    
C26   C39   1.384826 A    
C25   H5    1.083693 S    
C27   C38   1.384826 A    
C26   H6    1.083688 S    
C7    O11   1.350177 S    
