data_mof_unit_32910.cif
_audit_creation_date              2012-12-10T19:12:29-0500
_audit_creation_method            fapswitch 2.2
_symmetry_space_group_name_H-M    P1
_symmetry_Int_Tables_number       1
_space_group_crystal_system       triclinic
_cell_length_a                    15.697141
_cell_length_b                    10.870235
_cell_length_c                    9.75836
_cell_angle_alpha                 91.850976
_cell_angle_beta                  90.783706
_cell_angle_gamma                 90.847227
_cell_volume                      1663.86700793

loop_
_atom_site_label
_atom_site_type_symbol
_atom_type_description
_atom_site_fract_x
_atom_site_fract_y
_atom_site_fract_z
_atom_type_partial_charge
C1    C     C_R   0.501822 0.257285 0.497691 0.929127
C2    C     C_3   0.600156 0.932997 0.539593 0.324242
C3    C     C_3   0.434076 0.072297 0.587857 -0.451446
C4    C     C_R   0.337903 0.499705 0.499102 0.925867
C5    C     C_3   0.488630 0.059412 0.341845 0.716404
C6    C     C_3   0.507093 0.120442 0.494093 -0.133998
C7    C     C_3   0.508111 0.878873 0.504652 -0.155022
C8    C     C_3   0.441024 0.932285 0.604338 -0.389244
C9    C     C_3   0.482177 0.918982 0.358385 -0.526717
C10   C     C_3   0.533268 0.384952 0.078504 -0.222795
C11   C     C_3   0.536401 0.384425 0.917519 -0.313210
C12   C     C_3   0.082462 0.491717 0.497499 0.191308
C13   C     C_3   0.410347 0.514059 0.077198 0.125799
C14   C     C_3   0.552876 0.600165 0.084539 -0.247541
C15   C     C_3   0.410990 0.503016 0.914948 -0.234348
C16   C     C_R   0.503871 0.742374 0.502102 0.960464
C17   C     C_3   0.547481 0.603613 0.923056 -0.201281
C18   C     C_R   0.661916 0.494940 0.500468 0.967797
C19   C     C_3   0.972408 0.385905 0.555932 -0.163138
C20   C     C_3   0.026800 0.391951 0.425157 -0.148355
C21   C     C_1   0.248856 0.497190 0.497167 -0.162934
C22   C     C_1   0.750904 0.490895 0.501681 -0.122567
C23   C     C_3   0.972892 0.588136 0.572724 -0.136942
C24   C     C_3   0.029942 0.485678 0.628240 -0.169839
C25   C     C_3   0.367838 0.636739 0.120492 -0.862302
C26   C     C_3   0.601550 0.114218 0.719527 -0.724271
C27   C     C_3   0.678309 0.138603 0.505452 -0.740310
C28   C     C_3   0.917178 0.488435 0.500418 0.188541
C29   C     C_3   0.027154 0.594179 0.442012 -0.161352
C30   C     C_3   0.969684 0.494455 0.369680 -0.158653
C31   C     C_1   0.173437 0.494554 0.496659 -0.065480
C32   C     C_1   0.826252 0.488677 0.501622 -0.047186
C33   C     C_3   0.596315 0.077020 0.562922 0.209537
H1    H     H_    0.051119 0.311921 0.364775 0.149224
H2    H     H_    0.599327 0.375132 0.117212 0.213010
H3    H     H_    0.603715 0.377270 0.884528 0.159504
H4    H     H_    0.501220 0.301619 0.876133 0.189062
H5    H     H_    0.368627 0.439174 0.114828 0.192317
H6    H     H_    0.373938 0.419374 0.880038 0.150015
H7    H     H_    0.534941 0.690791 0.129637 0.190948
H8    H     H_    0.620330 0.588047 0.117414 0.159410
H9    H     H_    0.612791 0.606039 0.880481 0.198088
H10   H     H_    0.516116 0.689928 0.893538 0.207484
H11   H     H_    0.942790 0.497946 0.264082 0.146142
H12   H     H_    0.433444 0.119057 0.690549 0.205025
H13   H     H_    0.377759 0.581280 0.867935 0.173870
H14   H     H_    0.051714 0.679279 0.395410 0.148696
H15   H     H_    0.948601 0.668200 0.633098 0.166798
H16   H     H_    0.056818 0.482199 0.733850 0.143490
H17   H     H_    0.637751 0.912512 0.446684 0.130492
H18   H     H_    0.657113 0.846185 0.890240 0.391573
H19   H     H_    0.250990 0.059371 0.293168 0.387087
H20   H     H_    0.583256 0.124974 0.003542 0.365329
H21   H     H_    0.375931 0.660449 0.230303 0.286103
H22   H     H_    0.393976 0.715176 0.063316 0.240662
H23   H     H_    0.458651 0.911977 0.711813 0.244134
H24   H     H_    0.298399 0.630084 0.097419 0.223545
H25   H     H_    0.551516 0.071212 0.780679 0.263348
H26   H     H_    0.662471 0.089722 0.769050 0.275457
H27   H     H_    0.602152 0.214415 0.735460 0.211476
H28   H     H_    0.669239 0.237959 0.490076 0.219222
H29   H     H_    0.733522 0.132847 0.577209 0.240763
H30   H     H_    0.702075 0.093322 0.411376 0.291880
H31   H     H_    0.519770 0.870468 0.278769 0.226385
H32   H     H_    0.416627 0.882251 0.336964 0.237726
H33   H     H_    0.370729 0.095824 0.547630 0.254002
H34   H     H_    0.377493 0.888307 0.583133 0.196086
H35   H     H_    0.494127 0.306140 0.111118 0.259871
H36   H     H_    0.947717 0.300850 0.602470 0.149083
N1    N     N_3   0.498170 0.499750 0.138610 -0.067557
N2    N     N_3   0.498850 0.496730 0.861320 -0.066660
O1    O     O_R   0.499980 0.314910 0.616040 -0.656108
O2    O     O_2   0.747669 0.920776 0.687417 -0.328148
O3    O     O_3   0.611974 0.858815 0.820402 -0.588885
O4    O     O_2   0.369864 0.235994 0.259307 -0.335315
O5    O     O_2   0.379679 0.048238 0.118426 -0.254022
O6    O     O_3   0.302533 0.036148 0.345405 -0.627904
O7    O     O_2   0.620393 0.206005 0.248366 -0.389325
O8    O     O_2   0.638535 0.986381 0.215418 -0.366853
O9    O     O_3   0.535310 0.091292 0.056104 -0.517225
O10   O     O_R   0.500040 0.314680 0.383960 -0.543166
O11   O     O_R   0.376750 0.500100 0.616020 -0.641826
O12   O     O_R   0.376810 0.499870 0.383940 -0.606111
O13   O     O_R   0.499960 0.685320 0.616040 -0.575192
O14   O     O_R   0.500020 0.685090 0.383960 -0.667154
O15   O     O_R   0.623190 0.500130 0.616060 -0.594122
O16   O     O_R   0.623250 0.499900 0.383980 -0.622049
O17   O     O_2   0.678756 0.727417 0.624499 -0.320700
S1    S     S_3+6 0.662374 0.857055 0.669562 -0.019322
S2    S     S_3+6 0.384763 0.100218 0.262940 -0.002020
S3    S     S_3+6 0.573878 0.087137 0.216896 -0.026776
Zn1   Zn    Zn3+2 0.499960 0.500150 0.654960 0.949083
Zn2   Zn    Zn3+2 0.500040 0.499850 0.345040 0.979898

loop_
_geom_bond_atom_site_label_1
_geom_bond_atom_site_label_2
_ccdc_geom_bond_type
C12   C29   S    
C9    H31   S    
C2    C7    S    
H18   O3    S    
C3    C6    S    
C30   H11   S    
C8    H23   S    
C7    C8    S    
C20   C30   S    
C27   C33   S    
C21   C31   T    
C18   O15   A    
C22   C32   T    
C29   H14   S    
C23   C29   S    
O3    S1    S    
C11   H3    S    
C5    C6    S    
O1    Zn1   S    
C11   N2    S    
C13   N1    S    
C1    O10   A    
O12   Zn2   S    
C16   O13   A    
O11   Zn1   S    
C11   H4    S    
C17   H9    S    
C27   H28   S    
O4    S2    D    
O14   Zn2   S    
N2    Zn1   S    
C19   C20   S    
C23   C24   S    
C10   H2    S    
C2    H17   S    
C26   H26   S    
O8    S3    D    
C5    S2    S    
C20   H1    S    
C14   N1    S    
C14   C17   S    
C13   C25   S    
C25   H24   S    
O6    S2    S    
C1    O1    A    
C1    C6    S    
C28   C32   S    
N1    Zn2   S    
C25   H21   S    
C3    C8    S    
H20   O9    S    
C3    H12   S    
C2    S1    S    
C17   H10   S    
C5    C9    S    
C29   C30   S    
C27   H29   S    
O10   Zn2   S    
C26   C33   S    
C12   C20   S    
C23   C28   S    
C19   C28   S    
C26   H25   S    
C15   H6    S    
C13   H5    S    
C5    S3    S    
C27   H30   S    
C14   H8    S    
C10   N1    S    
C2    C33   S    
C7    C16   S    
C17   N2    S    
C13   C15   S    
C12   C31   S    
C16   O14   A    
C19   H36   S    
C3    H33   S    
H19   O6    S    
C24   H16   S    
C7    C9    S    
C23   H15   S    
C18   C22   S    
C25   H22   S    
C10   H35   S    
O7    S3    D    
C15   N2    S    
C12   C24   S    
C18   O16   A    
C6    C33   S    
O9    S3    S    
C28   C30   S    
C19   C24   S    
O2    S1    D    
O15   Zn1   S    
C4    C21   S    
C4    O12   A    
O16   Zn2   S    
C9    H32   S    
C10   C11   S    
C14   H7    S    
C4    O11   A    
O17   S1    D    
C8    H34   S    
O13   Zn1   S    
C15   H13   S    
C26   H27   S    
O5    S2    D    
