data_mof_unit_46148.cif
_audit_creation_date              2012-12-10T17:30:17-0500
_audit_creation_method            fapswitch 2.2
_symmetry_space_group_name_H-M    P1
_symmetry_Int_Tables_number       1
_space_group_crystal_system       triclinic
_cell_length_a                    12.079652
_cell_length_b                    12.838855
_cell_length_c                    14.931041
_cell_angle_alpha                 90.412022
_cell_angle_beta                  83.459049
_cell_angle_gamma                 94.066681
_cell_volume                      2294.77222398

loop_
_atom_site_label
_atom_site_type_symbol
_atom_type_description
_atom_site_fract_x
_atom_site_fract_y
_atom_site_fract_z
_atom_type_partial_charge
C1    C     C_R   0.523448 0.700694 0.498045 0.931844
C2    C     C_R   0.368091 0.137962 0.566900 0.142668
C3    C     C_R   0.458589 0.866804 0.547716 -0.282421
C4    C     C_R   0.543618 0.132052 0.469691 -0.271770
C5    C     C_R   0.456934 0.974066 0.538927 0.108409
C6    C     C_R   0.550104 0.027884 0.488361 0.103694
C7    C     C_R   0.964922 0.427316 0.400478 -0.290439
C8    C     C_R   0.035291 0.577377 0.596402 -0.280794
C9    C     C_R   0.846883 0.428296 0.411003 0.256126
C10   C     C_R   0.152180 0.568693 0.590276 0.244403
C11   C     C_R   0.854177 0.530930 0.543585 -0.027793
C12   C     C_R   0.476402 0.299528 0.503574 0.931228
C13   C     C_R   0.146489 0.474041 0.453433 -0.024896
C14   C     C_R   0.972385 0.529120 0.534130 0.055403
C15   C     C_R   0.028227 0.476539 0.462216 0.053099
C16   C     C_R   0.497793 0.497936 0.672986 0.927011
C17   C     C_R   0.502285 0.501798 0.327055 0.925360
C18   C     C_R   0.515337 0.410625 0.185889 -0.290175
C19   C     C_R   0.486444 0.589330 0.814137 -0.291796
C20   C     C_R   0.506512 0.504693 0.231476 -0.100220
C21   C     C_R   0.494228 0.495119 0.768617 -0.096212
C22   C     C_R   0.493897 0.598274 0.187462 0.106727
C23   C     C_R   0.489959 0.688905 0.952834 0.146293
C24   C     C_R   0.508434 0.401854 0.812597 0.107322
C25   C     C_R   0.495328 0.597257 0.093645 0.038223
C26   C     C_R   0.506651 0.402820 0.906427 0.042203
C27   C     C_R   0.502086 0.501035 0.046818 0.012559
C28   C     C_R   0.499550 0.498981 0.953266 0.010392
C29   C     C_R   0.510415 0.406782 0.093627 0.082283
C30   C     C_R   0.491575 0.593247 0.906402 0.081935
C31   C     C_R   0.490563 0.689939 0.045597 -0.185200
C32   C     C_R   0.511705 0.310137 0.954445 -0.190600
C33   C     C_3   0.760841 0.033659 0.430342 -0.417345
C34   C     C_R   0.512519 0.311167 0.047180 0.142813
C35   C     C_3   0.840466 0.014496 0.500929 -0.326898
C36   C     C_3   0.954868 0.071880 0.476415 -0.828913
C37   C     C_3   0.264984 0.975072 0.635878 -0.428893
C38   C     C_3   0.286430 0.975898 0.735377 -0.285873
C39   C     C_3   0.177828 0.968077 0.798864 -0.812454
C40   C     C_3   0.212675 0.603307 0.670157 -0.359771
C41   C     C_3   0.148307 0.666505 0.744180 -0.472139
C42   C     C_3   0.219895 0.694557 0.819788 -0.802785
C43   C     C_3   0.783708 0.378605 0.337242 -0.373065
C44   C     C_3   0.842123 0.292133 0.281854 -0.477997
C45   C     C_R   0.458877 0.187723 0.511901 -0.111550
C46   C     C_3   0.763079 0.232967 0.223488 -0.791871
C47   C     C_R   0.541402 0.812958 0.498980 -0.120755
C48   C     C_R   0.646499 0.975702 0.455600 0.077168
C49   C     C_R   0.364415 0.028785 0.577927 0.076022
C50   C     C_R   0.637123 0.866241 0.452908 0.142883
H1    H     H_    0.523122 0.340631 0.224021 0.169797
H2    H     H_    0.811752 0.573037 0.598837 0.139369
H3    H     H_    0.993373 0.044674 0.410038 0.271122
H4    H     H_    0.947010 0.157472 0.473540 0.261539
H5    H     H_    0.010507 0.056006 0.528335 0.258061
H6    H     H_    0.804209 0.042727 0.567750 0.240936
H7    H     H_    0.851759 0.929973 0.507209 0.245362
H8    H     H_    0.796776 0.010051 0.362112 0.236395
H9    H     H_    0.757807 0.119020 0.427164 0.204302
H10   H     H_    0.133224 0.040315 0.794684 0.279361
H11   H     H_    0.122320 0.900506 0.781263 0.253951
H12   H     H_    0.479402 0.659393 0.775927 0.166042
H13   H     H_    0.196862 0.958779 0.869277 0.267970
H14   H     H_    0.337227 0.909993 0.747484 0.230405
H15   H     H_    0.334919 0.049003 0.751907 0.267730
H16   H     H_    0.187913 0.014030 0.627147 0.230591
H17   H     H_    0.243276 0.894601 0.613415 0.184191
H18   H     H_    0.241008 0.622623 0.853111 0.273043
H19   H     H_    0.298090 0.738923 0.792300 0.265823
H20   H     H_    0.173495 0.743063 0.871035 0.267346
H21   H     H_    0.123065 0.738919 0.714467 0.232406
H22   H     H_    0.072910 0.619592 0.775049 0.244765
H23   H     H_    0.009186 0.389348 0.343893 0.147280
H24   H     H_    0.231168 0.531027 0.703986 0.247516
H25   H     H_    0.289536 0.651399 0.645179 0.228575
H26   H     H_    0.690810 0.194130 0.266088 0.259636
H27   H     H_    0.732558 0.287552 0.175978 0.278414
H28   H     H_    0.807985 0.172180 0.183911 0.272108
H29   H     H_    0.913583 0.327166 0.235792 0.244509
H30   H     H_    0.873520 0.235902 0.327458 0.236549
H31   H     H_    0.703253 0.342670 0.367623 0.244330
H32   H     H_    0.769292 0.440930 0.289618 0.230083
H33   H     H_    0.990663 0.617638 0.651397 0.142514
H34   H     H_    0.489188 0.764828 0.078813 0.213765
H35   H     H_    0.513071 0.235236 0.921241 0.210518
H36   H     H_    0.603815 0.172437 0.420865 0.147411
H37   H     H_    0.393462 0.822200 0.589282 0.156318
H38   H     H_    0.189093 0.433380 0.397375 0.141295
I1    I     I_    0.468274 0.738075 0.264612 -0.311936
I2    I     I_    0.540061 0.263119 0.735606 -0.357535
I3    I     I_    0.493156 0.837258 0.889364 -0.409947
I4    I     I_    0.510892 0.162929 0.110701 -0.364018
I5    I     I_    0.240818 0.226991 0.639496 -0.380020
I6    I     I_    0.762718 0.785637 0.370588 -0.343390
N1    N     N_R   0.207800 0.519350 0.516680 -0.112387
N2    N     N_R   0.792200 0.480650 0.483320 -0.112696
O1    O     O_R   0.421700 0.658830 0.504450 -0.627883
O2    O     O_R   0.578300 0.341170 0.495550 -0.635300
O3    O     O_R   0.609310 0.646410 0.493750 -0.594117
O4    O     O_R   0.390690 0.353590 0.506250 -0.590445
O5    O     O_R   0.406180 0.506230 0.637500 -0.645785
O6    O     O_R   0.593820 0.493770 0.362500 -0.640279
O7    O     O_R   0.593800 0.493820 0.626800 -0.605367
O8    O     O_R   0.406200 0.506180 0.373200 -0.607557
Zn1   Zn    Zn3+2 0.374730 0.508290 0.507150 0.971699
Zn2   Zn    Zn3+2 0.625270 0.491710 0.492850 0.972192

loop_
_geom_bond_atom_site_label_1
_geom_bond_atom_site_label_2
_ccdc_geom_bond_type
C11   N2    A    
C25   C31   A    
C26   C32   A    
C33   H8    S    
C27   C29   A    
C8    H33   S    
C41   C42   S    
C35   C36   S    
C43   C44   S    
C1    O3    A    
C46   H26   S    
C7    H23   S    
O4    Zn1   S    
C16   C21   S    
C6    C48   A    
C13   N1    A    
C19   C21   A    
C17   O8    A    
C24   C26   A    
C38   C39   S    
C11   C14   A    
C4    H36   S    
C32   H35   S    
C19   H12   S    
C42   H20   S    
C17   C20   S    
C10   C40   S    
C3    C47   A    
C11   H2    S    
N1    Zn1   S    
C22   C25   A    
C36   H3    S    
C12   O2    A    
C41   H21   S    
O1    Zn1   S    
C48   C50   A    
C33   H9    S    
C42   H18   S    
C5    C49   A    
O8    Zn1   S    
C44   C46   S    
C18   H1    S    
C47   C50   A    
C38   H14   S    
C4    C45   A    
C2    I5    S    
C2    C45   A    
O5    Zn1   S    
C39   H11   S    
C9    C43   S    
C3    H37   S    
C23   C30   A    
C44   H30   S    
C4    C6    A    
C1    O1    A    
C46   H28   S    
C1    C47   S    
C29   C34   A    
C42   H19   S    
C31   H34   S    
C32   C34   A    
C17   O6    A    
C37   C38   S    
C2    C49   A    
C37   C49   S    
C16   O7    A    
C38   H15   S    
C37   H16   S    
C18   C29   A    
C9    N2    A    
C41   H22   S    
C40   C41   S    
C20   C22   A    
C13   C15   A    
C43   H31   S    
C23   I3    S    
C7    C9    A    
O3    Zn2   S    
N2    Zn2   S    
C8    C14   A    
C35   H6    S    
C44   H29   S    
C50   I6    S    
C12   C45   S    
C3    C5    A    
C24   I2    S    
C46   H27   S    
C25   C27   A    
C39   H13   S    
C26   C28   A    
O2    Zn2   S    
C40   H25   S    
C35   H7    S    
C28   C30   A    
C36   H5    S    
C5    C6    A    
C10   N1    A    
C39   H10   S    
C37   H17   S    
C13   H38   S    
C7    C15   A    
C33   C35   S    
C22   I1    S    
C40   H24   S    
O6    Zn2   S    
O7    Zn2   S    
C18   C20   A    
C34   I4    S    
C12   O4    A    
C36   H4    S    
C16   O5    A    
C8    C10   A    
C21   C24   A    
C27   C28   A    
C33   C48   S    
C14   C15   A    
C19   C30   A    
C43   H32   S    
C23   C31   A    
