data_mof_unit_34809.cif
_audit_creation_date              2012-12-11T16:53:25-0500
_audit_creation_method            fapswitch 2.2
_symmetry_space_group_name_H-M    P1
_symmetry_Int_Tables_number       1
_space_group_crystal_system       triclinic
_cell_length_a                    14.926157
_cell_length_b                    14.777919
_cell_length_c                    16.949313
_cell_angle_alpha                 109.107688
_cell_angle_beta                  106.17272
_cell_angle_gamma                 108.155535
_cell_volume                      3040.38950859

loop_
_atom_site_label
_atom_site_type_symbol
_atom_type_description
_atom_site_fract_x
_atom_site_fract_y
_atom_site_fract_z
_atom_type_partial_charge
C1    C     C_R   0.089449 0.274842 0.049832 -0.141032
C2    C     C_R   0.063466 0.548273 0.265304 -0.123246
C3    C     C_R   0.279953 0.784704 0.176044 -0.132794
C4    C     C_R   0.935077 0.521167 0.747666 -0.092518
C5    C     C_R   0.698647 0.407655 0.997426 -0.162113
C6    C     C_R   0.336027 0.781094 0.254284 0.063565
C7    C     C_R   0.640570 0.440985 0.944883 0.103781
C8    C     C_R   0.970869 0.533670 0.274815 0.060604
C9    C     C_R   0.990817 0.825341 0.030243 0.080178
C10   C     C_R   0.394780 0.464377 0.873438 0.069732
C11   C     C_R   0.348601 0.417758 0.920708 0.107867
C12   C     C_R   0.025371 0.583138 0.746185 0.073329
C13   C     C_R   0.377789 0.343669 0.941396 -0.196412
C14   C     C_R   0.468109 0.338567 0.936767 -0.175629
C15   C     C_R   0.529456 0.408863 0.912695 0.073448
C16   C     C_R   0.770538 0.200506 0.810446 -0.142571
C17   C     C_R   0.484975 0.460931 0.870532 -0.072966
C18   C     C_3   0.529270 0.572236 0.880533 0.679708
C19   C     C_3   0.430320 0.575763 0.882937 -0.633291
C20   C     C_R   0.961038 0.577923 0.361557 0.130299
C21   C     C_R   0.032232 0.625096 0.679402 0.124731
C22   C     C_R   0.135739 0.697324 0.607647 -0.222944
C23   C     C_R   0.755042 0.194828 0.723793 0.118333
C24   C     C_R   0.129608 0.681716 0.682890 -0.174947
C25   C     C_R   0.941038 0.597286 0.604978 -0.261756
C26   C     C_R   0.946619 0.607367 0.527563 0.184701
C27   C     C_R   0.044832 0.653260 0.527486 0.187665
C28   C     C_R   0.253088 0.529936 0.944388 -0.129090
C29   C     C_R   0.051014 0.642288 0.444775 -0.272672
C30   C     C_R   0.862934 0.544353 0.363552 -0.161182
C31   C     C_R   0.855802 0.560494 0.446674 -0.212227
C32   C     C_R   0.714359 0.097494 0.637274 -0.060179
C33   C     C_R   0.445001 0.852648 0.320074 0.134178
C34   C     C_R   0.286969 0.458867 0.961364 0.064128
C35   C     C_R   0.594465 0.024644 0.389935 -0.126150
C36   C     C_R   0.501536 0.945085 0.315439 -0.204723
C37   C     C_R   0.489334 0.834664 0.394518 -0.218144
C38   C     C_R   0.577767 0.916402 0.471464 0.115630
C39   C     C_R   0.628295 0.014170 0.470920 -0.016195
C40   C     C_R   0.779645 0.297902 0.734355 -0.102395
C41   C     C_R   0.702361 0.103025 0.553746 0.640989
C42   C     C_R   0.674717 0.996822 0.635533 -0.247268
C43   C     C_R   0.608300 0.906093 0.552489 -0.215377
C44   C     C_R   0.100005 0.060514 0.978352 0.153148
C45   C     C_R   0.273400 0.688431 0.252512 -0.142036
C46   C     C_R   0.006549 0.068460 0.968367 0.034332
C47   C     C_R   0.913183 0.972277 0.913287 -0.187801
C48   C     C_R   0.914275 0.877151 0.859685 -0.190956
C49   C     C_R   0.008205 0.875760 0.861188 0.030995
C50   C     C_R   0.100505 0.965839 0.926533 0.157242
C51   C     C_3   0.193505 0.021953 0.914373 -0.481498
C52   C     C_R   0.256782 0.440405 0.027461 -0.127907
C53   C     C_3   0.192710 0.125641 0.969854 -0.533056
C54   C     C_R   0.107113 0.605966 0.824464 -0.152342
C55   C     C_R   0.917215 0.191572 0.974724 -0.118499
C56   C     C_R   0.705301 0.501544 0.918823 -0.020592
C57   C     C_R   0.004572 0.174002 0.999912 0.066367
C58   C     C_R   0.889750 0.463493 0.187889 -0.120430
C59   C     C_R   0.079939 0.808930 0.047399 -0.138575
C60   C     C_R   0.907573 0.724453 0.970821 -0.108137
F1    F     F_    0.614193 0.644193 0.964261 -0.691994
F2    F     F_    0.754258 0.195625 0.552423 -0.737920
H1    H     H_    0.167985 0.291891 0.090054 0.096711
H2    H     H_    0.856318 0.501778 0.705298 0.081838
H3    H     H_    0.540804 0.576185 0.819507 -0.029041
H4    H     H_    0.443659 0.636118 0.950403 0.233072
H5    H     H_    0.382199 0.578725 0.821453 0.153164
H6    H     H_    0.127076 0.673822 0.445251 0.118171
H7    H     H_    0.791660 0.498857 0.300984 0.118185
H8    H     H_    0.211658 0.734573 0.609079 0.127014
H9    H     H_    0.779748 0.527156 0.446178 0.129485
H10   H     H_    0.201525 0.707549 0.740465 0.115409
H11   H     H_    0.865167 0.557301 0.602137 0.119790
H12   H     H_    0.682498 0.524490 0.864936 0.068710
H13   H     H_    0.751981 0.134354 0.826163 0.091675
H14   H     H_    0.688019 0.987927 0.697947 0.145826
H15   H     H_    0.633311 0.098184 0.387250 0.178536
H16   H     H_    0.572249 0.830461 0.553132 0.135793
H17   H     H_    0.471405 0.959593 0.257376 0.118126
H18   H     H_    0.449757 0.762441 0.398350 0.106496
H19   H     H_    0.838491 0.971578 0.905115 0.126325
H20   H     H_    0.841686 0.806322 0.812734 0.128153
H21   H     H_    0.262087 0.012735 0.950650 0.185721
H22   H     H_    0.176095 0.004356 0.841294 0.203677
H23   H     H_    0.807369 0.434775 0.169181 0.097471
H24   H     H_    0.261679 0.176836 0.037486 0.184631
H25   H     H_    0.258987 0.559385 0.894948 0.116904
H26   H     H_    0.173408 0.167294 0.928388 0.206215
H27   H     H_    0.773608 0.325501 0.682633 0.176981
H28   H     H_    0.275833 0.393366 0.059977 0.087766
H29   H     H_    0.186617 0.665406 0.852831 0.086987
H30   H     H_    0.837752 0.133288 0.947255 0.082614
H31   H     H_    0.295879 0.650489 0.293953 0.086617
H32   H     H_    0.141934 0.597408 0.318162 0.094960
H33   H     H_    0.159015 0.870048 0.090690 0.101732
H34   H     H_    0.826304 0.706972 0.942890 0.136562
H35   H     H_    0.309736 0.837183 0.148064 0.086305
H36   H     H_    0.669647 0.346507 0.017809 0.090450
H37   H     H_    0.340307 0.300702 0.972681 0.125230
H38   H     H_    0.495707 0.290517 0.963534 0.118212
N1    N     N_R   0.055640 0.348550 0.045600 -0.038605
N2    N     N_R   0.811290 0.303400 0.871650 -0.043688
N3    N     N_R   0.205180 0.552990 0.997660 -0.041135
N4    N     N_R   0.814810 0.361830 0.823710 -0.062649
N5    N     N_R   0.201660 0.494570 0.045600 -0.037685
N6    N     N_R   0.068420 0.560530 0.871650 -0.037937
N7    N     N_R   0.948050 0.295860 0.997660 -0.038188
N8    N     N_R   0.185190 0.638170 0.176290 -0.037754
N9    N     N_R   0.798340 0.505430 0.954400 -0.052415
N10   N     N_R   0.931580 0.439470 0.128350 -0.041239
N11   N     N_R   0.051950 0.704140 0.002340 -0.041603
N12   N     N_R   0.944360 0.651450 0.954400 -0.050881
N13   N     N_R   0.039170 0.492150 0.176290 -0.042217
N14   N     N_R   0.188710 0.696600 0.128350 -0.037412
N15   N     N_R   0.794820 0.447010 0.002340 -0.041149
N16   N     N_R   0.960830 0.507850 0.823710 -0.043061
Ni1   Ni    Ni4+2 0.119330 0.493420 0.109950 0.217474
Ni2   Ni    Ni4+2 0.880670 0.506580 0.890050 0.204575
Ni3   Ni    Ni4+2 0.872590 0.372590 0.000000 0.214499
Ni4   Ni    Ni4+2 0.127410 0.627410 0.000000 0.213208

loop_
_geom_bond_atom_site_label_1
_geom_bond_atom_site_label_2
_ccdc_geom_bond_type
N1    N7    A    
C6    C45   A    
C1    N1    A    
C27   C29   A    
C16   H13   S    
C52   H28   S    
N11   N12   A    
C3    C6    A    
C45   H31   S    
C39   C41   A    
C20   C30   A    
C43   H16   S    
C26   C27   A    
C8    C20   S    
C41   F2    S    
C37   C38   A    
C30   C31   A    
C2    N13   A    
C10   C17   A    
C23   C40   A    
C33   C36   A    
C19   H4    S    
C18   C19   S    
N8    N14   A    
C8    C58   A    
C44   C53   S    
N3    Ni4   S    
N16   Ni2   S    
C59   N11   A    
C32   C41   A    
C19   H5    S    
C53   H24   S    
C40   H27   S    
C4    C12   A    
C45   N8    A    
C31   H9    S    
C28   C34   A    
C26   C31   A    
C3    N14   A    
C13   C14   A    
C5    N15   A    
N5    Ni1   S    
C59   H33   S    
C7    C56   A    
C1    H1    S    
N7    Ni3   S    
C44   C46   A    
N9    Ni2   S    
C50   C51   S    
N4    Ni2   S    
C20   C29   A    
C37   H18   S    
C56   H12   S    
C54   N6    A    
C2    H32   S    
C5    C7    A    
C25   C26   A    
C12   C21   S    
C35   H15   S    
C33   C37   A    
C55   N7    A    
N11   Ni4   S    
C18   H3    S    
C35   C36   A    
C13   H37   S    
C35   C39   A    
C55   H30   S    
C60   N12   A    
C1    C57   A    
C40   N4    A    
C29   H6    S    
C3    H35   S    
C47   C48   A    
C10   C19   S    
C28   H25   S    
C17   C18   S    
N3    N5    A    
N2    N4    A    
N10   N13   A    
N13   Ni1   S    
C60   H34   S    
C16   N2    A    
C48   C49   A    
C52   N5    A    
C16   C23   A    
N15   Ni3   S    
C22   C27   A    
C55   C57   A    
C46   C57   S    
C22   C24   A    
C42   C43   A    
C58   H23   S    
C51   H21   S    
C56   N9    A    
C30   H7    S    
C24   H10   S    
C44   C50   A    
C15   C17   A    
C21   C25   A    
C46   C47   A    
N6    Ni4   S    
C58   N10   A    
C34   C52   A    
N8    Ni1   S    
C4    N16   A    
C11   C34   S    
C2    C8    A    
C36   H17   S    
N10   Ni3   S    
C18   F1    S    
C14   H38   S    
C4    H2    S    
C42   H14   S    
C6    C33   S    
C9    C60   A    
N1    Ni1   S    
C23   C32   S    
C38   C43   A    
N12   Ni2   S    
C11   C13   A    
C28   N3    A    
C38   C39   A    
C7    C15   S    
C48   H20   S    
C53   H26   S    
C25   H11   S    
C47   H19   S    
C12   C54   A    
C10   C11   A    
N9    N15   A    
C54   H29   S    
C5    H36   S    
C49   C50   A    
C21   C24   A    
N6    N16   A    
C32   C42   A    
C14   C15   A    
C51   C53   S    
C9    C59   A    
C51   H22   S    
C22   H8    S    
N14   Ni4   S    
N2    Ni3   S    
