data_mof_unit_49223.cif
_audit_creation_date              2012-12-11T16:45:50-0500
_audit_creation_method            fapswitch 2.2
_symmetry_space_group_name_H-M    P1
_symmetry_Int_Tables_number       1
_space_group_crystal_system       triclinic
_cell_length_a                    20.013556
_cell_length_b                    17.116284
_cell_length_c                    15.351082
_cell_angle_alpha                 89.9665
_cell_angle_beta                  52.281309
_cell_angle_gamma                 90.03639
_cell_volume                      4159.69970677

loop_
_atom_site_label
_atom_site_type_symbol
_atom_type_description
_atom_site_fract_x
_atom_site_fract_y
_atom_site_fract_z
_atom_type_partial_charge
C1    C     C_R   0.848925 0.681103 0.029615 0.065265
C2    C     C_R   0.150579 0.311205 0.068421 0.156122
C3    C     C_R   0.349542 0.810894 0.931768 0.156941
C4    C     C_R   0.650579 0.811204 0.068420 0.156122
C5    C     C_R   0.890472 0.686215 0.303342 0.047450
C6    C     C_R   0.106900 0.686672 0.697979 0.056639
C7    C     C_R   0.390474 0.186216 0.303340 0.047448
C8    C     C_R   0.606900 0.186672 0.697980 0.056636
C9    C     C_R   0.855173 0.720551 0.482249 0.131639
C10   C     C_R   0.142904 0.720847 0.518690 0.132014
C11   C     C_R   0.355175 0.220552 0.482248 0.131655
C12   C     C_R   0.154187 0.678945 0.965327 0.061363
C13   C     C_R   0.642903 0.220849 0.518691 0.132004
C14   C     C_R   0.871448 0.745203 0.384283 0.042737
C15   C     C_R   0.125859 0.745708 0.616969 0.040460
C16   C     C_R   0.371452 0.245204 0.384281 0.042730
C17   C     C_R   0.625859 0.245709 0.616970 0.040461
C18   C     C_R   0.348145 0.321006 0.377879 -0.199574
C19   C     C_R   0.650071 0.321263 0.622819 -0.203645
C20   C     C_R   0.848144 0.821006 0.377881 -0.199579
C21   C     C_R   0.150070 0.821262 0.622819 -0.203646
C22   C     C_R   0.297698 0.365707 0.472699 -0.181562
C23   C     C_R   0.348925 0.181102 0.029616 0.065265
C24   C     C_R   0.701730 0.365486 0.527532 -0.180903
C25   C     C_R   0.797699 0.865708 0.472700 -0.181563
C26   C     C_R   0.201729 0.865485 0.527532 -0.180905
C27   C     C_R   0.268989 0.334417 0.574955 -0.010144
C28   C     C_R   0.730739 0.334029 0.425289 -0.009336
C29   C     C_R   0.768990 0.834418 0.574957 -0.010173
C30   C     C_R   0.230739 0.834028 0.425289 -0.009333
C31   C     C_R   0.802373 0.764009 0.578526 0.127471
C32   C     C_R   0.196772 0.763847 0.422007 0.127287
C33   C     C_R   0.302374 0.264011 0.578523 0.127375
C34   C     C_R   0.654188 0.178945 0.965326 0.061363
C35   C     C_R   0.696771 0.263848 0.422008 0.127297
C36   C     C_3   0.862215 0.757042 0.606011 -0.006257
C37   C     C_3   0.137494 0.757113 0.393511 -0.005835
C38   C     C_3   0.362215 0.257045 0.606011 -0.006247
C39   C     C_3   0.637493 0.257114 0.393512 -0.005837
C40   C     C_R   0.850703 0.328780 0.220855 -0.145475
C41   C     C_R   0.149342 0.329056 0.779304 -0.147203
C42   C     C_R   0.350703 0.828780 0.220855 -0.145475
C43   C     C_R   0.649346 0.829061 0.779305 -0.147192
C44   C     C_3   0.920870 0.713777 0.499110 -0.543368
C45   C     C_R   0.808535 0.362549 0.324213 0.075515
C46   C     C_3   0.077888 0.714202 0.500688 -0.546172
C47   C     C_3   0.420870 0.213778 0.499112 -0.543311
C48   C     C_3   0.577887 0.214203 0.500690 -0.546172
C49   C     C_2   0.773216 0.190987 0.978215 -0.211527
C50   C     C_2   0.227899 0.192096 0.020329 -0.216021
C51   C     C_2   0.273214 0.690988 0.978219 -0.211527
C52   C     C_2   0.727900 0.692096 0.020326 -0.216035
C53   C     C_2   0.310825 0.751675 0.909112 -0.192180
C54   C     C_2   0.691137 0.752804 0.089261 -0.210948
C55   C     C_2   0.810826 0.251675 0.909110 -0.192183
C56   C     C_R   0.191506 0.362998 0.675973 0.076486
C57   C     C_2   0.191136 0.252805 0.089263 -0.210949
C58   C     C_R   0.866959 0.387810 0.896000 -0.154195
C59   C     C_R   0.133238 0.388073 0.103854 -0.160408
C60   C     C_R   0.366959 0.887810 0.896000 -0.154196
C61   C     C_R   0.633238 0.888073 0.103853 -0.160409
C62   C     C_R   0.908900 0.608400 0.302740 0.039827
C63   C     C_R   0.090362 0.608483 0.697563 0.038739
C64   C     C_R   0.408901 0.108400 0.302739 0.039825
C65   C     C_R   0.590360 0.108484 0.697564 0.038743
C66   C     C_R   0.877278 0.298909 0.992821 -0.150418
C67   C     C_R   0.308536 0.862549 0.324213 0.075516
C68   C     C_R   0.122555 0.298985 0.007637 -0.145876
C69   C     C_R   0.377278 0.798909 0.992822 -0.150418
C70   C     C_R   0.622555 0.798984 0.007637 -0.145874
C71   C     C_R   0.898214 0.698361 0.208667 -0.156455
C72   C     C_R   0.098322 0.698982 0.793066 -0.178225
C73   C     C_R   0.398215 0.198361 0.208666 -0.156453
C74   C     C_R   0.598321 0.198982 0.793066 -0.178225
C75   C     C_R   0.858623 0.422491 0.316034 -0.130801
C76   C     C_R   0.141438 0.422797 0.684037 -0.131731
C77   C     C_R   0.358623 0.922491 0.316035 -0.130802
C78   C     C_R   0.691509 0.863001 0.675974 0.076490
C79   C     C_R   0.641439 0.922798 0.684037 -0.131734
C80   C     C_R   0.835219 0.584532 0.942050 -0.178860
C81   C     C_R   0.165680 0.583514 0.056238 -0.185963
C82   C     C_R   0.335218 0.084532 0.942051 -0.178854
C83   C     C_R   0.665681 0.083513 0.056236 -0.185963
C84   C     C_R   0.798309 0.652394 0.003407 0.122842
C85   C     C_R   0.204013 0.650326 0.992667 0.137131
C86   C     C_R   0.298308 0.152394 0.003409 0.122835
C87   C     C_R   0.704014 0.150326 0.992665 0.137131
C88   C     C_3   0.829514 0.708209 0.710129 -0.297653
C89   C     C_R   0.849543 0.310894 0.931767 0.156942
C90   C     C_3   0.778651 0.634914 0.726417 -0.924514
C91   C     C_3   0.170340 0.708045 0.289675 -0.294588
C92   C     C_3   0.220592 0.634646 0.274459 -0.926282
C93   C     C_3   0.329508 0.208218 0.710136 -0.297657
C94   C     C_3   0.278668 0.134908 0.726407 -0.924367
C95   C     C_3   0.670340 0.208046 0.289677 -0.294592
C96   C     C_3   0.720593 0.134648 0.274460 -0.926281
H1    H     H_    0.275412 0.421288 0.466325 0.123944
H2    H     H_    0.020852 0.748838 0.562659 0.182490
H3    H     H_    0.478069 0.248092 0.436316 0.183029
H4    H     H_    0.520851 0.248839 0.562660 0.182492
H5    H     H_    0.934269 0.652737 0.508113 0.205631
H6    H     H_    0.064241 0.653108 0.492192 0.205999
H7    H     H_    0.434268 0.152738 0.508116 0.205623
H8    H     H_    0.564240 0.153109 0.492195 0.205996
H9    H     H_    0.784434 0.176940 0.037005 0.134307
H10   H     H_    0.214279 0.176745 0.964308 0.137680
H11   H     H_    0.284429 0.676942 0.037011 0.134306
H12   H     H_    0.724566 0.420817 0.533700 0.123490
H13   H     H_    0.714282 0.676746 0.964304 0.137706
H14   H     H_    0.302892 0.763881 0.846770 0.136039
H15   H     H_    0.702601 0.766257 0.148142 0.147427
H16   H     H_    0.802892 0.263882 0.846770 0.136040
H17   H     H_    0.202600 0.266258 0.148145 0.147427
H18   H     H_    0.830594 0.279867 0.198256 0.112852
H19   H     H_    0.169436 0.280195 0.801998 0.113102
H20   H     H_    0.330594 0.779867 0.198255 0.112853
H21   H     H_    0.669446 0.780206 0.802002 0.113090
H22   H     H_    0.862530 0.413840 0.835473 0.090984
H23   H     H_    0.775416 0.921290 0.466326 0.123946
H24   H     H_    0.138142 0.414336 0.163816 0.092749
H25   H     H_    0.362529 0.913840 0.835474 0.090984
H26   H     H_    0.638142 0.914335 0.163815 0.092749
H27   H     H_    0.886279 0.243689 0.018552 0.095752
H28   H     H_    0.113706 0.243765 0.981791 0.095373
H29   H     H_    0.386279 0.743689 0.018552 0.095753
H30   H     H_    0.613706 0.743765 0.981791 0.095374
H31   H     H_    0.901099 0.754456 0.174947 0.102216
H32   H     H_    0.089393 0.755256 0.829946 0.090601
H33   H     H_    0.401100 0.254456 0.174946 0.102215
H34   H     H_    0.224564 0.920817 0.533700 0.123490
H35   H     H_    0.589393 0.255256 0.829946 0.090601
H36   H     H_    0.845094 0.460468 0.380583 0.091472
H37   H     H_    0.154994 0.460859 0.619468 0.091887
H38   H     H_    0.345093 0.960468 0.380583 0.091471
H39   H     H_    0.654995 0.960859 0.619467 0.091886
H40   H     H_    0.815790 0.550498 0.901726 0.110486
H41   H     H_    0.184573 0.549793 0.097425 0.110071
H42   H     H_    0.315789 0.050498 0.901726 0.110498
H43   H     H_    0.684574 0.049792 0.097423 0.110071
H44   H     H_    0.361869 0.343542 0.302705 0.123917
H45   H     H_    0.888369 0.814520 0.605866 0.107248
H46   H     H_    0.636357 0.343757 0.697975 0.122351
H47   H     H_    0.861867 0.843542 0.302708 0.123918
H48   H     H_    0.136355 0.843757 0.697975 0.122350
H49   H     H_    0.852611 0.795504 0.994703 0.106499
H50   H     H_    0.920490 0.770363 0.016483 0.082625
H51   H     H_    0.183449 0.767195 0.860662 0.087931
H52   H     H_    0.085437 0.773193 0.983245 0.092455
H53   H     H_    0.352610 0.295503 0.994704 0.106499
H54   H     H_    0.420489 0.270363 0.016484 0.082625
H55   H     H_    0.683450 0.267195 0.860661 0.087932
H56   H     H_    0.112013 0.814704 0.392745 0.108368
H57   H     H_    0.585438 0.273193 0.983244 0.092456
H58   H     H_    0.721202 0.650496 0.734721 0.252661
H59   H     H_    0.817226 0.593541 0.656950 0.255798
H60   H     H_    0.758459 0.604300 0.802714 0.235165
H61   H     H_    0.884230 0.690101 0.707036 0.194112
H62   H     H_    0.789786 0.746345 0.783401 0.173980
H63   H     H_    0.277964 0.650146 0.266435 0.252914
H64   H     H_    0.181551 0.593516 0.344299 0.256287
H65   H     H_    0.240866 0.603812 0.198328 0.235313
H66   H     H_    0.115742 0.690048 0.292393 0.194962
H67   H     H_    0.388369 0.314524 0.605864 0.107248
H68   H     H_    0.210552 0.745998 0.216157 0.175068
H69   H     H_    0.221263 0.150464 0.734579 0.252662
H70   H     H_    0.317296 0.093501 0.656991 0.255744
H71   H     H_    0.258397 0.104342 0.802774 0.235134
H72   H     H_    0.384218 0.190128 0.707067 0.194099
H73   H     H_    0.289761 0.246354 0.783405 0.173971
H74   H     H_    0.777968 0.150150 0.266430 0.252911
H75   H     H_    0.681554 0.093520 0.344304 0.256288
H76   H     H_    0.740864 0.103812 0.198332 0.235315
H77   H     H_    0.615742 0.190047 0.292396 0.194963
H78   H     H_    0.612012 0.314705 0.392746 0.108368
H79   H     H_    0.710551 0.245999 0.216159 0.175070
H80   H     H_    0.977909 0.529560 0.316388 0.105260
H81   H     H_    0.886629 0.557493 0.436391 0.081227
H82   H     H_    0.021540 0.528938 0.684396 0.105046
H83   H     H_    0.112564 0.557342 0.564127 0.081566
H84   H     H_    0.477906 0.029557 0.316391 0.105257
H85   H     H_    0.386629 0.057496 0.436392 0.081242
H86   H     H_    0.521567 0.028922 0.684372 0.105040
H87   H     H_    0.612574 0.057359 0.564115 0.081568
H88   H     H_    0.978068 0.748092 0.436315 0.183043
N1    N     N_R   0.908660 0.628630 0.995840 -0.057160
N2    N     N_R   0.096530 0.421430 0.063580 -0.037533
N3    N     N_R   0.403470 0.921430 0.936420 -0.038131
N4    N     N_R   0.596530 0.921430 0.063580 -0.037533
N5    N     N_R   0.927500 0.575670 0.211370 -0.053801
N6    N     N_R   0.072500 0.575670 0.788630 -0.053093
N7    N     N_R   0.427500 0.075670 0.211370 -0.053800
N8    N     N_R   0.572500 0.075670 0.788630 -0.053092
N9    N     N_R   0.908660 0.365680 0.995820 -0.041081
N10   N     N_R   0.091340 0.365680 0.004180 -0.041679
N11   N     N_R   0.408660 0.865680 0.995820 -0.041082
N12   N     N_R   0.091340 0.628630 0.004160 -0.059581
N13   N     N_R   0.591340 0.865680 0.004180 -0.041680
N14   N     N_R   0.922310 0.631420 0.151980 -0.046033
N15   N     N_R   0.077690 0.631420 0.848020 -0.046247
N16   N     N_R   0.422310 0.131420 0.151980 -0.046033
N17   N     N_R   0.577690 0.131420 0.848020 -0.046247
N18   N     N_R   0.927500 0.426330 0.211360 -0.042895
N19   N     N_R   0.072500 0.426330 0.788640 -0.043257
N20   N     N_R   0.427500 0.926330 0.211360 -0.042895
N21   N     N_R   0.572500 0.926330 0.788640 -0.043258
N22   N     N_R   0.903470 0.570760 0.936440 -0.047769
N23   N     N_R   0.408660 0.128630 0.995840 -0.057161
N24   N     N_R   0.096530 0.570760 0.063560 -0.047106
N25   N     N_R   0.403470 0.070760 0.936440 -0.047767
N26   N     N_R   0.596530 0.070760 0.063560 -0.047106
N27   N     N_3   0.857949 0.761575 0.046823 -0.229252
N28   N     N_3   0.148597 0.759464 0.945493 -0.217823
N29   N     N_3   0.357949 0.261574 0.046825 -0.229251
N30   N     N_3   0.648597 0.259463 0.945492 -0.217823
N31   N     N_3   0.938924 0.577568 0.359696 -0.222844
N32   N     N_3   0.060278 0.577143 0.640909 -0.223507
N33   N     N_3   0.438924 0.077568 0.359696 -0.222847
N34   N     N_R   0.591340 0.128630 0.004160 -0.059581
N35   N     N_3   0.560283 0.077140 0.640904 -0.223507
N36   N     N_R   0.922310 0.368460 0.151950 -0.038890
N37   N     N_R   0.077690 0.368460 0.848050 -0.039074
N38   N     N_R   0.422310 0.868460 0.151950 -0.038890
N39   N     N_R   0.577690 0.868460 0.848050 -0.039075
N40   N     N_R   0.903470 0.421430 0.936420 -0.038131
Ni1   Ni    Ni4+2 1.000000 0.630300 0.000000 0.192854
Ni2   Ni    Ni4+2 0.500000 0.130300 0.000000 0.192854
Ni3   Ni    Ni4+2 0.000000 0.369700 0.000000 0.210596
Ni4   Ni    Ni4+2 0.500000 0.869700 0.000000 0.210595
Ni5   Ni    Ni4+2 0.988090 0.497570 0.863760 0.202166
Ni6   Ni    Ni4+2 0.011910 0.497570 0.136240 0.202987
Ni7   Ni    Ni4+2 0.488090 0.997570 0.863760 0.202170
Ni8   Ni    Ni4+2 0.511910 0.997570 0.136240 0.202987

loop_
_geom_bond_atom_site_label_1
_geom_bond_atom_site_label_2
_ccdc_geom_bond_type
C92   H65   S    
C53   H14   S    
N8    Ni7   S    
C83   C87   A    
C21   C26   A    
C78   C79   A    
N20   Ni8   S    
C59   H24   S    
C56   C76   A    
C55   H16   S    
C1    N27   S    
C62   N31   S    
C49   C87   S    
C11   C47   S    
C95   C96   S    
C67   C77   A    
C58   H22   S    
C80   C84   A    
C71   H31   S    
C68   H28   S    
C83   H43   S    
H50   N27   S    
C76   N19   A    
C42   N38   A    
C7    C73   A    
C27   C33   A    
C43   C78   A    
C6    C72   A    
H82   N32   S    
C46   H6    S    
C93   H73   S    
C93   C94   S    
C12   C85   A    
C72   H32   S    
C92   H63   S    
C52   H13   S    
C3    C69   A    
C13   C35   A    
C2    C68   A    
C10   C15   A    
H52   N28   S    
C20   C25   A    
C64   N33   S    
C48   H8    S    
C73   N16   A    
C69   N11   A    
C47   H3    S    
N19   N37   A    
C59   N2    A    
N25   Ni7   S    
H54   N29   S    
N18   N36   A    
C52   C84   S    
C95   H79   S    
C6    C15   S    
C54   H15   S    
N9    N40   A    
C40   H18   S    
C29   C78   S    
C28   C35   A    
N7    Ni8   S    
C96   H75   S    
H83   N32   S    
C10   C46   S    
N8    N17   A    
C91   H66   S    
C24   H12   S    
C45   C75   A    
C88   H62   S    
C63   N32   S    
C90   H58   S    
C44   H88   S    
C9    C31   A    
C30   C67   S    
C26   H34   S    
N14   Ni1   S    
C81   C85   A    
N18   Ni6   S    
C82   N25   A    
N3    Ni7   S    
C3    C60   A    
C70   H30   S    
C88   H61   S    
C46   H2    S    
C69   H29   S    
H86   N35   S    
C22   H1    S    
C96   H74   S    
C74   H35   S    
C40   N36   A    
N22   Ni5   S    
C12   N12   A    
C20   H47   S    
C94   H70   S    
H84   N33   S    
C40   C45   A    
C41   H19   S    
C39   H78   S    
C25   H23   S    
C94   H69   S    
C4    C70   A    
H57   N30   S    
C75   N18   A    
C52   C54   D    
N6    N15   A    
C66   C89   A    
N40   Ni5   S    
C25   C29   A    
N17   Ni2   S    
C48   H4    S    
C73   H33   S    
C28   C45   S    
C2    C57   S    
C47   H7    S    
C37   C91   S    
C14   C20   A    
C11   C33   A    
N7    N16   A    
C93   H72   S    
C34   N30   S    
C81   H41   S    
C91   C92   S    
N19   Ni5   S    
C58   N40   A    
N39   Ni4   S    
C49   H9    S    
C79   N21   A    
C80   N22   A    
C4    C61   A    
N21   N39   A    
N5    N14   A    
C36   C88   S    
N36   Ni3   S    
C61   H26   S    
C1    C84   A    
N10   Ni3   S    
N12   N24   A    
C35   C39   S    
C9    C14   A    
C41   C56   A    
C6    C63   A    
C11   C16   A    
N23   Ni2   S    
C65   N8    A    
N38   Ni4   S    
C44   H5    S    
N1    Ni1   S    
C8    C74   A    
C5    C14   S    
H80   N31   S    
C90   H59   S    
C16   C18   A    
N16   Ni2   S    
C32   C37   S    
C27   C56   S    
C18   H44   S    
N15   Ni1   S    
C12   N28   S    
C38   C47   S    
C43   H21   S    
C81   N24   A    
N11   Ni4   S    
C51   H11   S    
C7    C16   S    
C88   C90   S    
C26   C30   A    
C19   H46   S    
C4    C54   S    
C22   C27   A    
H85   N33   S    
C42   C67   A    
C91   H68   S    
C36   C44   S    
C77   H38   S    
C37   H56   S    
C90   H60   S    
H51   N28   S    
C77   N20   A    
C66   N9    A    
C75   H36   S    
C71   N14   A    
C65   N35   S    
C23   N29   S    
C42   H20   S    
C36   H45   S    
N12   Ni1   S    
C38   H67   S    
C9    C44   S    
H87   N35   S    
C23   N23   A    
C2    C59   A    
C50   C57   D    
N20   N38   A    
N1    N22   A    
N2    N10   A    
C24   C28   A    
C21   H48   S    
N23   N25   A    
C64   N7    A    
C49   C55   D    
N26   N34   A    
C94   H71   S    
C13   C48   S    
C57   H17   S    
C76   H37   S    
C34   N34   A    
N2    Ni6   S    
C74   N17   A    
C1    N1    A    
C60   N3    A    
C63   N6    A    
C79   H39   S    
N37   Ni3   S    
C8    C17   S    
C80   H40   S    
C13   C17   A    
C92   H64   S    
N6    Ni5   S    
C18   C22   A    
C19   C24   A    
C95   H77   S    
C5    C71   A    
C70   N13   A    
C82   C86   A    
C62   N5    A    
C82   H42   S    
C72   N15   A    
C30   C32   A    
C3    C53   S    
C15   C21   A    
H55   N30   S    
N4    N13   A    
C38   C93   S    
C17   C19   A    
C5    C62   A    
N5    Ni6   S    
N9    Ni3   S    
C39   C95   S    
C34   C87   A    
C61   N4    A    
C60   H25   S    
C55   C89   S    
C58   C89   A    
H53   N29   S    
C7    C64   A    
C83   N26   A    
N21   Ni7   S    
C50   C86   S    
H81   N31   S    
C66   H27   S    
N13   Ni4   S    
C10   C32   A    
C8    C65   A    
C29   C31   A    
C96   H76   S    
C23   C86   A    
C50   H10   S    
N26   Ni8   S    
C31   C36   S    
N3    N11   A    
C33   C38   S    
C68   N10   A    
C51   C85   S    
C51   C53   D    
C37   C46   S    
N4    Ni8   S    
N34   Ni2   S    
C41   N37   A    
C43   N39   A    
N24   Ni6   S    
C39   C48   S    
H49   N27   S    
