data_mof_unit_19324.cif
_audit_creation_date              2012-12-10T17:35:34-0500
_audit_creation_method            fapswitch 2.2
_symmetry_space_group_name_H-M    P1
_symmetry_Int_Tables_number       1
_space_group_crystal_system       triclinic
_cell_length_a                    10.716206
_cell_length_b                    12.323922
_cell_length_c                    13.177937
_cell_angle_alpha                 116.758213
_cell_angle_beta                  77.275331
_cell_angle_gamma                 101.357301
_cell_volume                      1506.24248158

loop_
_atom_site_label
_atom_site_type_symbol
_atom_type_description
_atom_site_fract_x
_atom_site_fract_y
_atom_site_fract_z
_atom_type_partial_charge
C1    C     C_R   0.517161 0.854501 0.285862 0.822247
C2    C     C_3   0.121781 0.999684 0.500486 0.165926
C3    C     C_3   0.074465 0.122523 0.592918 -0.381425
C4    C     C_3   0.040011 0.894049 0.527576 -0.367157
C5    C     C_R   0.307965 0.282952 0.017039 -0.196470
C6    C     C_R   0.448066 0.228951 0.834404 -0.049667
C7    C     C_R   0.625845 0.806865 0.082622 0.029355
C8    C     C_R   0.639763 0.728467 0.965995 -0.226593
C9    C     C_R   0.579327 0.609940 0.928084 -0.196231
C10   C     C_R   0.498766 0.567428 0.006056 0.086283
C11   C     C_R   0.463275 0.653246 0.120420 0.054139
C12   C     C_R   0.739899 0.999533 0.499900 0.782791
C13   C     C_R   0.451413 0.442277 0.973417 0.079857
C14   C     C_R   0.355353 0.406779 0.049066 0.166425
C15   C     C_R   0.306685 0.495557 0.154809 -0.240662
C16   C     C_R   0.359050 0.617149 0.189821 -0.198221
C17   C     C_R   0.500018 0.350845 0.868683 -0.255634
C18   C     C_R   0.353403 0.194346 0.909562 -0.202790
C19   C     C_R   0.533355 0.771980 0.161542 -0.144436
C20   C     C_R   0.709415 0.349243 0.331884 -0.312696
C21   C     C_R   0.324454 0.759168 0.644947 0.072055
C22   C     C_R   0.285962 0.662354 0.676242 -0.258693
C23   C     C_R   0.479257 0.145228 0.713525 0.787770
C24   C     C_R   0.351787 0.558978 0.621518 -0.194340
C25   C     C_R   0.457697 0.551201 0.534251 -0.005775
C26   C     C_R   0.493706 0.653037 0.505227 0.291645
C27   C     C_R   0.529496 0.447063 0.475179 -0.036631
C28   C     C_R   0.635960 0.448043 0.389781 0.184323
C29   C     C_R   0.669087 0.547701 0.362681 -0.291554
C30   C     C_R   0.599409 0.647524 0.418769 -0.192022
C31   C     C_R   0.501147 0.341256 0.496729 0.014829
C32   C     C_R   0.677372 0.249094 0.358040 0.060775
C33   C     C_R   0.260011 0.000243 0.500360 0.741757
C34   C     C_3   0.956209 0.981003 0.380996 -0.337304
C35   C     C_3   0.100228 0.981367 0.381069 -0.402826
C36   C     C_3   0.930305 0.122010 0.592965 -0.382132
C37   C     C_3   0.897176 0.893501 0.527217 -0.376994
C38   C     C_3   0.877789 0.998964 0.500293 0.133428
Cu1   Cu    Cu3+1 0.529690 0.098270 0.475420 0.947323
Cu2   Cu    Cu3+1 0.470310 0.901730 0.524580 0.915835
H1    H     H_    0.944602 0.055543 0.359274 0.198153
H2    H     H_    0.053204 0.904877 0.613279 0.162438
H3    H     H_    0.875382 0.136211 0.679356 0.151435
H4    H     H_    0.089429 0.137185 0.679344 0.149658
H5    H     H_    0.311098 0.100159 0.883520 0.143163
H6    H     H_    0.229197 0.470728 0.211566 0.140607
H7    H     H_    0.233734 0.255163 0.073988 0.132156
H8    H     H_    0.578653 0.372004 0.811153 0.144625
H9    H     H_    0.597145 0.553599 0.836851 0.138878
H10   H     H_    0.705549 0.756136 0.904341 0.131602
H11   H     H_    0.920064 0.892765 0.313483 0.183731
H12   H     H_    0.314804 0.682104 0.271074 0.165949
H13   H     H_    0.734804 0.173588 0.314719 0.169868
H14   H     H_    0.750233 0.548775 0.297181 0.150101
H15   H     H_    0.791537 0.349717 0.267090 0.136139
H16   H     H_    0.421600 0.332319 0.559626 0.120629
H17   H     H_    0.272793 0.839010 0.687901 0.118634
H18   H     H_    0.318050 0.486954 0.649392 0.132348
H19   H     H_    0.204841 0.667484 0.743212 0.142619
H20   H     H_    0.632662 0.718759 0.391454 0.207548
H21   H     H_    0.133707 0.893378 0.313607 0.151102
H22   H     H_    0.157187 0.055937 0.359279 0.177589
H23   H     H_    0.917838 0.199588 0.575935 0.172636
H24   H     H_    0.130765 0.200101 0.575558 0.167325
H25   H     H_    0.841933 0.903712 0.612578 0.174542
H26   H     H_    0.861003 0.803721 0.461590 0.167859
H27   H     H_    0.071752 0.804288 0.462431 0.168377
N1    N     N_R   0.574690 0.246280 0.438200 -0.181348
N2    N     N_R   0.426100 0.754320 0.561190 -0.205337
O1    O     O_R   0.537340 0.972510 0.318130 -0.543199
O2    O     O_R   0.487200 0.806530 0.359650 -0.606007
O3    O     O_R   0.707380 0.082980 0.479220 -0.568604
O4    O     O_R   0.657240 0.917000 0.520740 -0.609328
O5    O     O_R   0.512800 0.193470 0.640350 -0.587153
O6    O     O_R   0.462660 0.027490 0.681870 -0.585345
O7    O     O_R   0.342760 0.083000 0.479260 -0.591186
O8    O     O_R   0.292620 0.917020 0.520780 -0.601687
C39   C     C_2   0.717681 0.919200 0.117022 0.334241
H28   H     H_    0.741808 0.970407 0.065162 0.052822
O9    O     O_2   0.774692 0.950013 0.198023 -0.594085

loop_
_geom_bond_atom_site_label_1
_geom_bond_atom_site_label_2
_ccdc_geom_bond_type
C2    C35   S    
Cu2   O2    S    
Cu1   N1    S    
C17   H8    S    
C7    C8    A    
C3    H24   S    
C5    H7    S    
C11   C19   A    
C34   H11   S    
C1    O2    A    
C21   C22   A    
C28   C29   A    
C37   C38   S    
C39   O9    D    
C29   H14   S    
C15   C16   A    
Cu2   O4    S    
C34   C35   S    
Cu1   O5    S    
C8    C9    A    
C30   H20   S    
Cu1   O3    S    
C31   H16   S    
C36   H23   S    
C9    C10   A    
C32   N1    A    
C12   O3    A    
C13   C14   A    
C34   H1    S    
C20   H15   S    
C31   N1    A    
C6    C18   A    
C3    H4    S    
C1    C19   S    
Cu2   N2    S    
C27   C31   A    
C9    H9    S    
C24   C25   A    
Cu1   Cu2   S    
C39   H28   S    
C5    C18   A    
C20   C28   A    
C25   C26   A    
C21   N2    A    
C2    C4    S    
C21   H17   S    
C29   C30   A    
C11   C16   A    
C33   O7    A    
C14   C15   A    
C37   H26   S    
C35   H21   S    
Cu1   O7    S    
C5    C14   A    
C7    C39   S    
C2    C33   S    
C37   H25   S    
C26   C30   A    
C7    C19   A    
C22   C24   A    
C23   O5    A    
C18   H5    S    
C8    H10   S    
C32   H13   S    
C22   H19   S    
C20   C32   A    
C6    C17   A    
C34   C38   S    
C16   H12   S    
C23   O6    A    
C10   C13   A    
C4    H27   S    
C25   C27   A    
C1    O1    A    
Cu2   O6    S    
C13   C17   A    
C36   C38   S    
C2    C3    S    
C33   O8    A    
C4    H2    S    
C3    C36   S    
C6    C23   S    
Cu1   O1    S    
C35   H22   S    
C12   C38   S    
C10   C11   A    
C4    C37   S    
C24   H18   S    
C27   C28   A    
C26   N2    A    
Cu2   O8    S    
C36   H3    S    
C15   H6    S    
C12   O4    A    
