data_mof_unit_20751.cif
_audit_creation_date              2013-03-05T16:11:32-0500
_audit_creation_method            fapswitch 2.2
_symmetry_space_group_name_H-M    P1
_symmetry_Int_Tables_number       1
_space_group_crystal_system       triclinic
_cell_length_a                    10.631702
_cell_length_b                    9.88119
_cell_length_c                    15.761659
_cell_angle_alpha                 89.89837
_cell_angle_beta                  89.873925
_cell_angle_gamma                 90.590708
_cell_volume                      1655.72855589

loop_
_atom_site_label
_atom_site_type_symbol
_atom_site_description
_atom_site_fract_x
_atom_site_fract_y
_atom_site_fract_z
_atom_type_partial_charge
O1    O     O_R   0.316750 0.614620 0.499990 -0.582388
O2    O     O_R   0.316750 0.385380 0.499990 -0.605290
C1    C     C_R   0.260517 0.499668 0.500036 0.886804
O3    O     O_R   0.499990 0.614720 0.377140 -0.606296
O4    O     O_R   0.499990 0.385280 0.377140 -0.542820
C2    C     C_R   0.499107 0.500210 0.338401 0.916474
Zn1   Zn    Zn3+2 0.499980 0.653120 0.500000 1.061747
Zn2   Zn    Zn3+2 0.499980 0.346880 0.500000 1.075607
O5    O     O_R   0.683220 0.614710 0.500000 -0.561937
O6    O     O_R   0.683220 0.385290 0.500000 -0.580766
O7    O     O_R   0.499980 0.614620 0.622860 -0.593344
O8    O     O_R   0.499980 0.385380 0.622860 -0.586261
C3    C     C_R   0.739755 0.500512 0.500287 1.010393
C4    C     C_R   0.497931 0.499877 0.661525 0.932022
C5    C     C_3   0.501663 0.651946 0.049945 0.549896
C6    C     C_3   0.359897 0.431252 0.052514 0.548821
C7    C     C_3   0.366885 0.415355 0.952837 0.107693
C8    C     C_3   0.482431 0.649586 0.949884 0.021824
H1    H     H_    0.390225 0.308672 0.937430 0.155247
H2    H     H_    0.565278 0.697721 0.918775 0.156024
C9    C     C_1   0.490518 0.499710 0.749984 -0.075791
C10   C     C_3   0.491860 0.498084 0.082568 -0.275322
C11   C     C_3   0.479722 0.500849 0.916602 -0.170506
C12   C     C_3   0.603119 0.432595 0.945969 -0.595982
C13   C     C_3   0.606531 0.411975 0.044701 0.388740
C14   C     C_1   0.483806 0.500010 0.824994 0.129114
C15   C     C_1   0.495876 0.499819 0.174417 0.219213
C16   C     C_1   0.498067 0.500684 0.249695 -0.011124
H3    H     H_    0.682601 0.498781 0.924778 0.262053
H4    H     H_    0.618736 0.336490 0.911154 0.263075
C17   C     C_R   0.065889 0.433708 0.435140 -0.267052
C18   C     C_R   0.066891 0.569636 0.563768 -0.213605
H5    H     H_    0.118152 0.387374 0.383937 0.188045
H6    H     H_    0.119685 0.619803 0.613668 0.197057
C19   C     C_R   0.936362 0.433567 0.433839 0.243444
C20   C     C_R   0.937339 0.569261 0.565311 0.290090
C21   C     C_R   0.872636 0.501347 0.499708 -0.289154
C22   C     C_R   0.128747 0.499873 0.500063 -0.116897
C23   C     C_R   0.584974 0.073261 0.547948 0.350966
C24   C     C_R   0.578261 0.928325 0.552803 0.325106
N1    N     N_R   0.499970 0.857200 0.499980 -0.185210
N2    N     N_R   0.499970 0.142800 0.499980 -0.185385
C25   C     C_R   0.421786 0.926301 0.447314 0.348084
C26   C     C_R   0.413979 0.070813 0.452872 0.370522
N3    N     N_R   0.373889 0.728127 0.919713 0.252819
O9    O     O_R   0.262758 0.715754 0.953684 -0.205513
O10   O     O_R   0.390573 0.818005 0.860171 -0.397616
N4    N     N_R   0.243348 0.438655 0.912192 0.287340
O11   O     O_R   0.145566 0.369995 0.938298 -0.240801
O12   O     O_R   0.231806 0.510194 0.843301 -0.322596
O13   O     O_3   0.344392 0.853137 0.393564 -0.580279
C27   C     C_3   0.382857 0.875602 0.308965 -0.151838
H7    H     H_    0.335298 0.799555 0.268074 0.187716
H8    H     H_    0.486165 0.862668 0.300564 0.175340
H9    H     H_    0.354207 0.977192 0.286354 0.214820
O14   O     O_3   0.322898 0.139730 0.408336 -0.553913
C28   C     C_3   0.204093 0.111348 0.445205 -0.201530
H10   H     H_    0.130561 0.157978 0.405586 0.209815
H11   H     H_    0.197695 0.154356 0.510206 0.157173
H12   H     H_    0.180845 0.001625 0.447350 0.188518
O15   O     O_3   0.405050 0.728612 0.090376 -0.613492
C29   C     C_3   0.421876 0.870816 0.082225 0.014402
H13   H     H_    0.472130 0.902018 0.023314 0.193968
H14   H     H_    0.473686 0.911309 0.137763 0.176661
H15   H     H_    0.328026 0.918751 0.081582 0.220870
O16   O     O_3   0.258910 0.522278 0.070027 -0.546535
C30   C     C_3   0.188744 0.495541 0.144558 0.080989
H16   H     H_    0.121826 0.579591 0.153943 0.191860
H17   H     H_    0.248736 0.492139 0.201806 0.087795
H18   H     H_    0.131571 0.401447 0.137907 0.215766
N5    N     N_R   0.335083 0.294253 0.090335 0.174469
O17   O     O_R   0.357863 0.268991 0.169882 -0.400952
O18   O     O_R   0.268236 0.204940 0.049171 -0.333295
N6    N     N_R   0.626552 0.709933 0.074383 0.181513
O19   O     O_R   0.649505 0.737420 0.153678 -0.340421
O20   O     O_R   0.712708 0.741155 0.018649 -0.343590
N7    N     N_R   0.731909 0.456552 0.075932 0.258898
O21   O     O_R   0.750258 0.477042 0.156429 -0.263868
O22   O     O_R   0.831245 0.433880 0.029746 -0.276550
N8    N     N_R   0.592473 0.267254 0.067980 0.237315
O23   O     O_R   0.615763 0.229003 0.145417 -0.269778
O24   O     O_R   0.566509 0.174211 0.012108 -0.392332
N9    N     N_R   0.871749 0.368523 0.364624 0.218739
O25   O     O_R   0.920408 0.263409 0.327885 -0.365245
O26   O     O_R   0.774174 0.424607 0.330387 -0.346528
N10   N     N_R   0.873505 0.632287 0.635161 0.238777
O27   O     O_R   0.782246 0.568797 0.673909 -0.407162
O28   O     O_R   0.920056 0.741709 0.669193 -0.344234
O29   O     O_3   0.671302 0.145816 0.595569 -0.566206
C31   C     C_3   0.793251 0.124537 0.562775 -0.159685
H19   H     H_    0.797058 0.136245 0.492450 0.162479
H20   H     H_    0.829356 0.023893 0.581631 0.205826
H21   H     H_    0.857690 0.201916 0.590101 0.182949
O30   O     O_3   0.653902 0.857349 0.608028 -0.556434
C32   C     C_3   0.611007 0.877807 0.691851 -0.042296
H22   H     H_    0.655744 0.802022 0.733758 0.217827
H23   H     H_    0.507247 0.863302 0.697775 0.150755
H24   H     H_    0.639056 0.979440 0.715514 0.184365

loop_
_geom_bond_atom_site_label_1
_geom_bond_atom_site_label_2
_geom_bond_distance
_ccdc_geom_bond_type
C5    C8    1.590956 S    
C9    C14   1.184285 T    
C13   N8    1.481678 S    
C32   H22   1.109168 S    
C7    N4    1.482524 S    
C28   H10   1.105426 S    
C32   H24   1.110048 S    
N7    O21   1.300006 A    
Zn1   O7    1.972828 S    
C7    C11   1.566322 S    
N6    O20   1.302146 A    
C13   N7    1.484828 S    
C18   C20   1.377483 A    
C4    C9    1.396307 S    
C20   C21   1.410249 A    
C19   C21   1.412157 A    
Zn2   N2    2.016553 S    
O4    C2    1.288556 A    
O7    C4    1.286218 A    
N10   O28   1.301506 A    
C28   H11   1.112072 S    
O14   C28   1.414441 S    
C11   C14   1.444494 S    
O5    C3    1.283976 A    
C12   H3    1.113535 S    
C29   H14   1.108431 S    
C5    C10   1.606367 S    
C2    C16   1.398230 S    
C1    C22   1.400963 S    
C6    C7    1.580848 S    
C10   C13   1.608254 S    
C11   C12   1.552433 S    
C17   H5    1.083639 S    
C18   C22   1.387364 A    
C3    C21   1.412700 S    
C27   H9    1.110395 S    
N4    O12   1.301328 A    
O16   C30   1.413241 S    
N1    C25   1.363440 A    
O15   C29   1.420209 S    
C6    N5    1.498857 S    
N2    C26   1.372786 A    
O3    Zn1   1.973962 S    
C27   H8    1.114680 S    
C23   N2    1.369111 A    
N3    O10   1.301538 A    
N6    O19   1.302508 A    
C30   H16   1.109032 S    
C12   C13   1.569657 S    
O3    C2    1.286644 A    
C23   C24   1.435083 A    
N5    O18   1.302310 A    
C19   N9    1.439373 S    
N10   O27   1.300545 A    
C28   H12   1.109969 S    
C20   N10   1.438182 S    
N3    O9    1.300628 A    
O13   C27   1.410381 S    
C30   H17   1.106798 S    
C18   H6    1.084874 S    
C25   C26   1.434038 A    
C29   H13   1.111791 S    
C26   O14   1.381693 S    
C31   H20   1.109953 S    
N9    O25   1.301394 A    
Zn2   O8    1.974152 S    
C5    O15   1.431755 S    
N7    O22   1.302911 A    
N8    O24   1.302177 A    
N4    O11   1.301123 A    
N9    O26   1.299134 A    
O8    C4    1.286381 A    
C10   C15   1.448543 S    
C17   C19   1.377282 A    
C6    O16   1.434372 S    
C8    N3    1.476375 S    
C27   H7    1.109517 S    
C31   H21   1.109561 S    
Zn1   O5    1.988617 S    
C24   N1    1.368581 A    
C6    C10   1.616725 S    
C29   H15   1.108973 S    
O1    Zn1   1.980991 S    
O2    Zn2   1.988690 S    
C24   O30   1.381589 S    
N8    O23   1.302127 A    
O6    C3    1.281981 A    
O4    Zn2   1.972640 S    
C32   H23   1.114650 S    
C17   C22   1.384755 A    
C30   H18   1.110810 S    
O2    C1    1.283223 A    
N5    O17   1.301710 A    
C25   O13   1.382176 S    
C31   H19   1.114868 S    
C8    C11   1.561394 S    
C7    H1    1.112581 S    
C8    H2    1.109559 S    
Zn1   N1    2.016554 S    
O30   C32   1.412290 S    
C12   H4    1.111388 S    
C5    N6    1.492313 S    
Zn2   O6    1.980936 S    
C15   C16   1.186830 T    
O1    C1    1.278128 A    
O29   C31   1.412590 S    
C23   O29   1.382427 S    
