data_mof_unit_67992.cif
_audit_creation_date              2012-12-11T14:01:15-0500
_audit_creation_method            fapswitch 2.2
_symmetry_space_group_name_H-M    P1
_symmetry_Int_Tables_number       1
_space_group_crystal_system       triclinic
_cell_length_a                    19.404483
_cell_length_b                    11.111365
_cell_length_c                    18.753046
_cell_angle_alpha                 90.324595
_cell_angle_beta                  90.731126
_cell_angle_gamma                 89.970235
_cell_volume                      4042.9552742

loop_
_atom_site_label
_atom_site_type_symbol
_atom_type_description
_atom_site_fract_x
_atom_site_fract_y
_atom_site_fract_z
_atom_type_partial_charge
C1    C     C_R   0.287435 0.006356 0.861262 0.578506
C2    C     C_R   0.011079 0.667924 0.961940 0.302861
C3    C     C_3   0.679436 0.395434 0.401455 0.035418
C4    C     C_3   0.610363 0.421382 0.362383 -0.288477
C5    C     C_3   0.561291 0.314740 0.361036 -0.437925
C6    C     C_3   0.814249 0.893918 0.599136 0.058766
C7    C     C_3   0.892074 0.893209 0.613811 -0.235406
C8    C     C_3   0.912269 0.807186 0.674083 -0.399990
C9    C     C_3   0.178655 0.892748 0.392614 0.027374
C10   C     C_3   0.104667 0.916726 0.364502 -0.293621
C11   C     C_3   0.058943 0.805263 0.362601 -0.406803
C12   C     C_3   0.072715 0.803737 0.094060 0.022257
C13   C     C_R   0.516098 0.157660 0.030107 0.258485
C14   C     C_3   0.085212 0.795319 0.174737 -0.236683
C15   C     C_3   0.160193 0.821300 0.194813 -0.459950
C16   C     C_3   0.964641 0.859180 0.946524 0.036375
C17   C     C_3   0.932241 0.921857 0.882239 -0.237569
C18   C     C_3   0.875424 0.845886 0.848925 -0.419278
C19   C     C_3   0.577653 0.302736 0.089710 0.038961
C20   C     C_3   0.583894 0.291292 0.170856 -0.241973
C21   C     C_3   0.656249 0.323208 0.197333 -0.460963
C22   C     C_3   0.473954 0.318498 0.910041 0.011082
C23   C     C_3   0.443590 0.283359 0.837635 -0.249774
C24   C     C_R   0.529485 0.156795 0.957143 0.296251
C25   C     C_3   0.371068 0.334055 0.829547 -0.480055
C26   C     C_3   0.174666 0.417773 0.867138 0.048182
C27   C     C_3   0.144030 0.453836 0.794090 -0.233917
C28   C     C_3   0.187765 0.408704 0.733213 -0.496992
C29   C     C_3   0.839500 0.415373 0.138402 0.011815
C30   C     C_3   0.841957 0.449867 0.218137 -0.233988
C31   C     C_3   0.867176 0.345068 0.263748 -0.471358
C32   C     C_3   0.678676 0.904922 0.845487 0.044334
C33   C     C_3   0.672900 0.960588 0.770153 -0.238644
C34   C     C_3   0.636375 0.879853 0.716221 -0.457615
C35   C     C_2   0.243851 0.566250 0.910847 0.282758
C36   C     C_3   0.337428 0.913296 0.126914 0.030383
C37   C     C_3   0.343509 0.935831 0.208000 -0.244668
C38   C     C_3   0.363793 0.821668 0.247908 -0.449375
C39   C     C_3   0.390817 0.587197 0.431344 0.066136
C40   C     C_3   0.419147 0.460398 0.443459 -0.232800
C41   C     C_3   0.390409 0.366465 0.393484 -0.377930
C42   C     C_3   0.535311 0.576883 0.583477 -0.019484
C43   C     C_3   0.557115 0.461515 0.546877 -0.314522
C44   C     C_3   0.617318 0.403718 0.584069 -0.341741
C45   C     C_3   0.921621 0.103627 0.452226 0.002229
C46   C     C_2   0.759058 0.548160 0.096112 0.293840
C47   C     C_3   0.905072 0.984566 0.415896 -0.210973
C48   C     C_3   0.912312 0.993548 0.335439 -0.384134
C49   C     C_3   0.093153 0.071980 0.550913 0.041967
C50   C     C_3   0.077539 0.936963 0.550323 -0.196493
C51   C     C_3   0.071208 0.886081 0.624974 -0.370589
C52   C     C_2   0.741536 0.053491 0.904152 0.283919
C53   C     C_2   0.257856 0.053139 0.093622 0.283806
C54   C     C_2   0.217355 0.495658 0.066068 0.410619
C55   C     C_2   0.772747 0.538819 0.934491 0.369585
C56   C     C_2   0.715848 0.988507 0.064605 0.374764
C57   C     C_R   0.706300 0.988601 0.141620 0.612065
C58   C     C_2   0.270285 0.043177 0.933439 0.379308
C59   C     C_2   0.263685 0.574291 0.042271 0.341233
C60   C     C_2   0.733260 0.470351 0.976178 0.352304
C61   C     C_2   0.738161 0.088062 0.033534 0.355891
C62   C     C_2   0.230190 0.975237 0.974873 0.327543
C63   C     C_2   0.284001 0.587793 0.968043 -0.044481
C64   C     C_2   0.712714 0.517355 0.045561 -0.043829
C65   C     C_2   0.771281 0.089429 0.964948 -0.013214
C66   C     C_2   0.210301 0.021500 0.044490 -0.073183
C67   C     C_2   0.493797 0.830064 0.573854 0.376061
C68   C     C_R   0.788286 0.504394 0.861262 0.573675
C69   C     C_2   0.488371 0.846775 0.413847 0.430349
C70   C     C_2   0.013988 0.339854 0.587202 0.398198
C71   C     C_2   0.003911 0.339299 0.424527 0.393679
C72   C     C_2   0.464059 0.753310 0.449114 0.240872
C73   C     C_2   0.480445 0.737394 0.526981 0.234613
C74   C     C_2   0.004424 0.243567 0.468638 0.221407
C75   C     C_2   0.026578 0.244816 0.545151 0.229931
C76   C     C_2   0.242862 0.551350 0.587153 0.214551
C77   C     C_2   0.756275 0.553492 0.412494 0.237644
C78   C     C_2   0.743313 0.057306 0.584824 0.222488
C79   C     C_R   0.206501 0.489261 0.141806 0.634804
C80   C     C_2   0.255849 0.049042 0.410418 0.239345
C81   C     C_2   0.204221 0.472597 0.434945 0.307464
C82   C     C_2   0.795172 0.473519 0.564539 0.308226
C83   C     C_2   0.705141 0.972824 0.434143 0.320078
C84   C     C_2   0.290149 0.973972 0.564607 0.313300
C85   C     C_R   0.472796 0.821766 0.851694 0.562584
C86   C     C_R   0.532931 0.820937 0.143931 0.580301
C87   C     C_R   0.971799 0.322876 0.852641 0.545432
C88   C     C_R   0.031868 0.321939 0.144612 0.574858
C89   C     C_2   0.167572 0.544047 0.478077 0.448984
C90   C     C_R   0.501380 0.050763 0.064998 0.394510
C91   C     C_2   0.831074 0.546243 0.521585 0.437924
C92   C     C_2   0.666340 0.041169 0.477212 0.435913
C93   C     C_2   0.331634 0.032509 0.519614 0.406600
C94   C     C_2   0.179702 0.558054 0.555561 0.435437
C95   C     C_2   0.819697 0.556544 0.443775 0.422113
C96   C     C_2   0.679671 0.060160 0.554103 0.401574
C97   C     C_2   0.318980 0.047065 0.441742 0.404798
C98   C     C_R   0.260296 0.633944 0.848256 0.547589
C99   C     C_R   0.739255 0.634430 0.150503 0.576494
C100  C     C_R   0.759404 0.130410 0.845832 0.538205
C101  C     C_R   0.530399 0.048196 0.920049 0.404708
C102  C     C_R   0.238994 0.135464 0.150076 0.569514
C103  C     C_R   0.293672 0.990028 0.642516 0.608007
C104  C     C_R   0.705458 0.989442 0.356695 0.610063
C105  C     C_R   0.794360 0.489834 0.642692 0.603311
C106  C     C_R   0.205456 0.489605 0.357011 0.602199
C107  C     C_R   0.468089 0.822596 0.646522 0.557706
C108  C     C_R   0.528305 0.825847 0.350066 0.579241
C109  C     C_R   0.972805 0.324338 0.650659 0.566837
C110  C     C_R   0.030458 0.324442 0.352512 0.565298
C111  C     C_R   0.259696 0.633225 0.647485 0.587998
C112  C     C_R   0.996058 0.554268 0.069930 0.408495
C113  C     C_R   0.740688 0.632351 0.351422 0.590423
C114  C     C_R   0.759787 0.134709 0.646931 0.581891
C115  C     C_R   0.240793 0.131412 0.350810 0.593181
C116  C     C_R   0.514302 0.826321 0.067379 -0.023890
C117  C     C_R   0.513755 0.828630 0.918041 -0.013670
C118  C     C_R   0.011445 0.331744 0.068743 -0.018615
C119  C     C_R   0.011794 0.334982 0.919610 -0.033102
C120  C     C_R   0.511150 0.938269 0.030481 -0.128061
C121  C     C_R   0.518815 0.938401 0.955562 -0.100061
C122  C     C_R   0.007208 0.444212 0.033203 -0.113388
C123  C     C_R   0.016168 0.560496 0.923701 0.429916
C124  C     C_R   0.012348 0.446614 0.957877 -0.097274
C125  C     C_R   0.526723 0.720071 0.954179 0.265274
C126  C     C_R   0.520288 0.717739 0.027495 0.267184
C127  C     C_R   0.026933 0.227063 0.955871 0.263490
C128  C     C_R   0.014544 0.224906 0.028432 0.278429
C129  C     C_3   0.590541 0.595096 0.879653 0.016528
C130  C     C_3   0.573938 0.604960 0.799675 -0.285362
C131  C     C_3   0.631188 0.565567 0.752453 -0.439592
C132  C     C_3   0.459616 0.552628 0.065861 0.038812
C133  C     C_3   0.443965 0.527038 0.144467 -0.249240
C134  C     C_R   0.005208 0.663698 0.036478 0.257856
C135  C     C_3   0.403864 0.410769 0.155052 -0.371543
C136  C     C_3   0.092453 0.102460 0.881905 0.003918
C137  C     C_3   0.079915 0.127587 0.802163 -0.279078
C138  C     C_3   0.136657 0.088514 0.754362 -0.439659
C139  C     C_3   0.921438 0.117334 0.061976 0.011182
C140  C     C_3   0.898354 0.081999 0.136161 -0.279646
C141  C     C_3   0.907973 0.947903 0.147110 -0.336954
C142  C     C_3   0.314556 0.383984 0.594785 0.030577
C143  C     C_3   0.378932 0.407329 0.641855 -0.302037
C144  C     C_3   0.430480 0.304001 0.645506 -0.421461
Cr1   Cr    Cr6+3 0.230530 0.836340 0.748870 1.031013
Cr2   Cr    Cr6+3 0.614360 0.677860 0.250770 0.973662
Cr3   Cr    Cr6+3 0.885640 0.177860 0.749230 0.960478
Cr4   Cr    Cr6+3 0.114360 0.177860 0.250770 0.971119
Cr5   Cr    Cr6+3 0.769470 0.836340 0.251130 1.019699
Cr6   Cr    Cr6+3 0.730530 0.336340 0.748870 1.025879
Cr7   Cr    Cr6+3 0.269470 0.336340 0.251130 0.997419
Cr8   Cr    Cr6+3 0.387420 0.989430 0.750820 1.047826
Cr9   Cr    Cr6+3 0.612580 0.989430 0.249180 1.046096
Cr10  Cr    Cr6+3 0.887420 0.489430 0.750820 1.073746
Cr11  Cr    Cr6+3 0.112580 0.489430 0.249180 1.052044
Cr12  Cr    Cr6+3 0.385640 0.677860 0.749230 0.950409
F1    F     F_    0.118035 0.615993 0.450209 -0.602665
F2    F     F_    0.763709 0.374133 0.537115 -0.705786
F3    F     F_    0.739833 0.876144 0.460011 -0.681103
F4    F     F_    0.248543 0.884115 0.540554 -0.680086
F5    F     F_    0.472193 0.060160 0.130058 -0.619060
F6    F     F_    0.546278 0.050936 0.849937 -0.623867
F7    F     F_    0.970584 0.559244 0.136840 -0.611902
F8    F     F_    0.029048 0.571310 0.853352 -0.614495
F9    F     F_    0.297543 0.645188 0.090241 -0.737883
F10   F     F_    0.703684 0.367131 0.951420 -0.629153
F11   F     F_    0.743857 0.191067 0.071004 -0.733815
F12   F     F_    0.878656 0.623086 0.549689 -0.599356
F13   F     F_    0.201617 0.870690 0.950776 -0.653878
F14   F     F_    0.192945 0.402900 0.025762 -0.670375
F15   F     F_    0.800138 0.643319 0.960591 -0.641492
F16   F     F_    0.719238 0.880621 0.030119 -0.649073
F17   F     F_    0.296572 0.149097 0.958759 -0.651885
F18   F     F_    0.481726 0.961680 0.437345 -0.484919
F19   F     F_    0.518158 0.938784 0.554042 -0.515408
F20   F     F_    0.995556 0.454065 0.447547 -0.503876
F21   F     F_    0.026841 0.454288 0.566983 -0.514972
F22   F     F_    0.614250 0.108031 0.449150 -0.595417
F23   F     F_    0.387564 0.091051 0.546367 -0.587938
F24   F     F_    0.127125 0.611490 0.591138 -0.573688
F25   F     F_    0.873557 0.603753 0.407406 -0.571826
F26   F     F_    0.626252 0.109661 0.590404 -0.589647
F27   F     F_    0.373195 0.088456 0.404112 -0.597584
F28   F     F_    0.233188 0.371307 0.461764 -0.710687
H1    H     H_    0.331128 0.638991 0.960707 0.094872
H2    H     H_    0.620690 0.592697 0.697052 0.104779
H3    H     H_    0.920301 0.319397 0.248786 0.165644
H4    H     H_    0.832497 0.266269 0.256562 0.135102
H5    H     H_    0.867395 0.371887 0.320887 0.171645
H6    H     H_    0.632967 0.848121 0.853395 0.168850
H7    H     H_    0.723572 0.843091 0.848848 0.121703
H8    H     H_    0.644607 0.047151 0.771621 0.275688
H9    H     H_    0.725500 0.976191 0.750049 0.104860
H10   H     H_    0.581912 0.868624 0.731376 0.182206
H11   H     H_    0.663554 0.792905 0.711815 0.114487
H12   H     H_    0.636678 0.921827 0.663034 0.208614
H13   H     H_    0.634447 0.466082 0.754119 0.210231
H14   H     H_    0.385685 0.871624 0.108178 0.188629
H15   H     H_    0.296487 0.847010 0.115295 0.183193
H16   H     H_    0.382219 0.007055 0.219497 0.260489
H17   H     H_    0.293325 0.965984 0.229292 0.122451
H18   H     H_    0.416123 0.792279 0.232428 0.168486
H19   H     H_    0.326275 0.748427 0.236233 0.183263
H20   H     H_    0.364072 0.839814 0.306214 0.165312
H21   H     H_    0.349540 0.587102 0.390048 0.161076
H22   H     H_    0.366521 0.624639 0.480109 0.196197
H23   H     H_    0.474979 0.461154 0.434740 0.186195
H24   H     H_    0.460349 0.467632 0.034994 0.187396
H25   H     H_    0.410281 0.431889 0.498534 0.195141
H26   H     H_    0.338229 0.345704 0.410722 0.274865
H27   H     H_    0.421431 0.283458 0.398437 0.228093
H28   H     H_    0.391415 0.397353 0.337359 0.149982
H29   H     H_    0.524185 0.552541 0.639309 0.164685
H30   H     H_    0.579075 0.642207 0.582833 0.121394
H31   H     H_    0.514980 0.395540 0.544053 0.171032
H32   H     H_    0.573377 0.485523 0.493507 0.200825
H33   H     H_    0.659114 0.470184 0.582622 0.219818
H34   H     H_    0.632949 0.321929 0.554578 0.266030
H35   H     H_    0.416800 0.607160 0.042917 0.144628
H36   H     H_    0.604456 0.379036 0.639553 0.159169
H37   H     H_    0.886274 0.174198 0.430498 0.132487
H38   H     H_    0.912496 0.094076 0.510363 0.194963
H39   H     H_    0.939771 0.913106 0.436397 0.173401
H40   H     H_    0.851832 0.958359 0.428551 0.243263
H41   H     H_    0.877726 0.064099 0.313381 0.153882
H42   H     H_    0.898493 0.904754 0.312333 0.158204
H43   H     H_    0.965911 0.015945 0.320627 0.174998
H44   H     H_    0.139219 0.090474 0.584758 0.149572
H45   H     H_    0.107202 0.099760 0.496248 0.195588
H46   H     H_    0.492067 0.520724 0.176465 0.189058
H47   H     H_    0.028857 0.921090 0.520360 0.163843
H48   H     H_    0.118688 0.886573 0.523177 0.243885
H49   H     H_    0.122667 0.876965 0.649775 0.213103
H50   H     H_    0.048211 0.794976 0.621758 0.219723
H51   H     H_    0.039040 0.945230 0.658737 0.146374
H52   H     H_    0.413723 0.603328 0.166266 0.187060
H53   H     H_    0.380159 0.413114 0.208425 0.162362
H54   H     H_    0.437531 0.331225 0.155636 0.212527
H55   H     H_    0.364635 0.398141 0.112117 0.211952
H56   H     H_    0.107852 0.006701 0.886907 0.226411
H57   H     H_    0.659534 0.546019 0.050029 0.124458
H58   H     H_    0.136233 0.155865 0.903953 0.118432
H59   H     H_    0.033410 0.079046 0.782656 0.198589
H60   H     H_    0.074430 0.224724 0.793662 0.156046
H61   H     H_    0.186204 0.127132 0.772981 0.182551
H62   H     H_    0.125958 0.122782 0.700154 0.153110
H63   H     H_    0.136874 0.989011 0.752698 0.197628
H64   H     H_    0.901142 0.051632 0.022521 0.124713
H65   H     H_    0.895945 0.204883 0.048980 0.105795
H66   H     H_    0.927413 0.132184 0.177833 0.168835
H67   H     H_    0.843793 0.107384 0.142341 0.186152
H68   H     H_    0.813891 0.152870 0.962325 0.082513
H69   H     H_    0.885536 0.919102 0.197729 0.151493
H70   H     H_    0.963404 0.930395 0.149490 0.202568
H71   H     H_    0.883348 0.894899 0.103314 0.209709
H72   H     H_    0.326223 0.311988 0.555506 0.228907
H73   H     H_    0.271747 0.347114 0.626787 0.118185
H74   H     H_    0.406361 0.486276 0.621478 0.255769
H75   H     H_    0.362980 0.429441 0.696564 0.148818
H76   H     H_    0.412416 0.232823 0.681273 0.216549
H77   H     H_    0.479960 0.337683 0.668138 0.113301
H78   H     H_    0.440629 0.266816 0.591909 0.251984
H79   H     H_    0.156664 0.046663 0.050883 0.110742
H80   H     H_    0.672763 0.318166 0.437766 0.234474
H81   H     H_    0.718586 0.364578 0.362168 0.096697
H82   H     H_    0.584000 0.501340 0.384175 0.217103
H83   H     H_    0.619773 0.445931 0.306889 0.160811
H84   H     H_    0.585175 0.235719 0.335747 0.233542
H85   H     H_    0.515409 0.338235 0.328229 0.114023
H86   H     H_    0.545523 0.291635 0.415908 0.230106
H87   H     H_    0.800006 0.809250 0.571020 0.240964
H88   H     H_    0.786320 0.892272 0.650847 0.082669
H89   H     H_    0.919055 0.866714 0.564347 0.193428
H90   H     H_    0.609670 0.502668 0.889912 0.230734
H91   H     H_    0.909671 0.985165 0.628366 0.209537
H92   H     H_    0.867040 0.779513 0.705208 0.163844
H93   H     H_    0.948956 0.851355 0.711682 0.097306
H94   H     H_    0.937233 0.725210 0.652504 0.254255
H95   H     H_    0.179784 0.808532 0.423966 0.237688
H96   H     H_    0.213672 0.875808 0.346886 0.086890
H97   H     H_    0.079233 0.985442 0.397723 0.234814
H98   H     H_    0.106474 0.952956 0.309741 0.163128
H99   H     H_    0.084697 0.730482 0.335057 0.227456
H100  H     H_    0.011182 0.823120 0.331858 0.123901
H101  H     H_    0.632907 0.657324 0.896096 0.117032
H102  H     H_    0.044377 0.779471 0.417367 0.254697
H103  H     H_    0.077994 0.899161 0.078270 0.179753
H104  H     H_    0.113405 0.752350 0.065013 0.170857
H105  H     H_    0.052480 0.860102 0.203824 0.119236
H106  H     H_    0.070350 0.704460 0.193243 0.238630
H107  H     H_    0.195587 0.787801 0.153533 0.199550
H108  H     H_    0.173648 0.776682 0.245727 0.170351
H109  H     H_    0.168215 0.918527 0.201533 0.141251
H110  H     H_    0.991553 0.927163 0.979833 0.226113
H111  H     H_    0.922099 0.820429 0.978717 0.176763
H112  H     H_    0.527523 0.550484 0.785782 0.188564
H113  H     H_    0.909908 0.008923 0.899517 0.173777
H114  H     H_    0.971940 0.939366 0.841702 0.197596
H115  H     H_    0.836166 0.824059 0.889205 0.217705
H116  H     H_    0.898258 0.762028 0.827516 0.224368
H117  H     H_    0.849894 0.896502 0.805215 0.117590
H118  H     H_    0.583349 0.398560 0.075816 0.199687
H119  H     H_    0.620866 0.254493 0.063233 0.217073
H120  H     H_    0.547279 0.351838 0.197697 0.118257
H121  H     H_    0.569816 0.199003 0.187184 0.240331
H122  H     H_    0.695940 0.290165 0.161679 0.238781
H123  H     H_    0.565658 0.699706 0.786354 0.167368
H124  H     H_    0.666809 0.282866 0.250105 0.159999
H125  H     H_    0.662233 0.421175 0.200182 0.138051
H126  H     H_    0.481251 0.416536 0.910484 0.202055
H127  H     H_    0.436080 0.299833 0.952972 0.165127
H128  H     H_    0.476902 0.318912 0.794954 0.148949
H129  H     H_    0.441849 0.184286 0.832383 0.247003
H130  H     H_    0.374537 0.432262 0.822493 0.159622
H131  H     H_    0.340087 0.315097 0.877422 0.217601
H132  H     H_    0.344346 0.292964 0.782882 0.159352
H133  H     H_    0.140205 0.351564 0.891023 0.170095
H134  H     H_    0.679208 0.613071 0.768317 0.189516
H135  H     H_    0.224338 0.368053 0.862046 0.126888
H136  H     H_    0.091451 0.417117 0.787107 0.178372
H137  H     H_    0.138608 0.552424 0.789107 0.267832
H138  H     H_    0.194658 0.310619 0.735567 0.128459
H139  H     H_    0.239395 0.450825 0.736479 0.141359
H140  H     H_    0.161809 0.430351 0.681963 0.187290
H141  H     H_    0.889608 0.375763 0.124359 0.173434
H142  H     H_    0.801541 0.343284 0.129301 0.174662
H143  H     H_    0.876387 0.528434 0.226994 0.265120
H144  H     H_    0.789637 0.473520 0.236652 0.115943
O1    O     O_R   0.215090 0.709860 0.828130 -0.435026
O2    O     O_R   0.543740 0.718170 0.330000 -0.516341
O3    O     O_R   0.956260 0.218170 0.670000 -0.524641
O4    O     O_R   0.043740 0.218170 0.330000 -0.527585
O5    O     O_R   0.320940 0.626760 0.674370 -0.514550
O6    O     O_R   0.679060 0.626760 0.325630 -0.522204
O7    O     O_R   0.820940 0.126760 0.674370 -0.513438
O8    O     O_R   0.179060 0.126760 0.325630 -0.509476
O9    O     O_3   0.334530 0.834540 0.749640 -0.312792
O10   O     O_3   0.665470 0.834540 0.250360 -0.328800
O11   O     O_3   0.834530 0.334540 0.749640 -0.313645
O12   O     O_R   0.784910 0.709860 0.171870 -0.464855
O13   O     O_3   0.165470 0.334540 0.250360 -0.326065
O14   O     O_R   0.236990 0.958390 0.823710 -0.519033
O15   O     O_R   0.763010 0.958390 0.176290 -0.532367
O16   O     O_R   0.736990 0.458390 0.823710 -0.522609
O17   O     O_R   0.263010 0.458390 0.176290 -0.509367
O18   O     O_R   0.332380 0.074750 0.830850 -0.529374
O19   O     O_R   0.667620 0.074750 0.169150 -0.543582
O20   O     O_R   0.832380 0.574750 0.830850 -0.513334
O21   O     O_R   0.167620 0.574750 0.169150 -0.555503
O22   O     O_R   0.445800 0.917770 0.825070 -0.466851
O23   O     O_R   0.715090 0.209860 0.828130 -0.426957
O24   O     O_R   0.554200 0.917770 0.174930 -0.468054
O25   O     O_R   0.945800 0.417770 0.825070 -0.452973
O26   O     O_R   0.054200 0.417770 0.174930 -0.460736
O27   O     O_R   0.456410 0.716580 0.829970 -0.506477
O28   O     O_R   0.543590 0.716580 0.170030 -0.497785
O29   O     O_R   0.956410 0.216580 0.829970 -0.511760
O30   O     O_R   0.043590 0.216580 0.170030 -0.495403
O31   O     O_R   0.321080 0.625290 0.822650 -0.566631
O32   O     O_R   0.678920 0.625290 0.177350 -0.557386
O33   O     O_R   0.821080 0.125290 0.822650 -0.566979
O34   O     O_R   0.284910 0.209860 0.171870 -0.480232
O35   O     O_R   0.178920 0.125290 0.177350 -0.558242
O36   O     O_R   0.214930 0.711450 0.668160 -0.463707
O37   O     O_R   0.785070 0.711450 0.331840 -0.453275
O38   O     O_R   0.714930 0.211450 0.668160 -0.474498
O39   O     O_R   0.285070 0.211450 0.331840 -0.494719
O40   O     O_R   0.236850 0.959870 0.675420 -0.532173
O41   O     O_R   0.763150 0.959870 0.324580 -0.518316
O42   O     O_R   0.736850 0.459870 0.675420 -0.546118
O43   O     O_R   0.263150 0.459870 0.324580 -0.536033
O44   O     O_R   0.332230 0.076350 0.670880 -0.529764
O45   O     O_R   0.445660 0.919250 0.676780 -0.442603
O46   O     O_R   0.667770 0.076350 0.329120 -0.530429
O47   O     O_R   0.832230 0.576350 0.670880 -0.519706
O48   O     O_R   0.167770 0.576350 0.329120 -0.530512
O49   O     O_3   0.529501 0.609620 0.919425 -0.566448
O50   O     O_3   0.525479 0.606438 0.060130 -0.547673
O51   O     O_3   0.030773 0.116502 0.920978 -0.570082
O52   O     O_3   0.994502 0.117566 0.058408 -0.544264
O53   O     O_3   0.296366 0.488842 0.555334 -0.608775
O54   O     O_3   0.701219 0.495414 0.444059 -0.593910
O55   O     O_3   0.796826 0.992966 0.554791 -0.606395
O56   O     O_R   0.554340 0.919250 0.323220 -0.459254
O57   O     O_3   0.200762 0.987580 0.438924 -0.602061
O58   O     O_3   0.004485 0.767068 0.077454 -0.588301
O59   O     O_3   0.014403 0.774547 0.923803 -0.509637
O60   O     O_3   0.511515 0.265312 0.066354 -0.586696
O61   O     O_3   0.538926 0.263263 0.920916 -0.496957
O62   O     O_3   0.178829 0.516522 0.915119 -0.502384
O63   O     O_3   0.827634 0.514186 0.092214 -0.506026
O64   O     O_3   0.679705 0.990750 0.902261 -0.515332
O65   O     O_3   0.326481 0.020294 0.087658 -0.504897
O66   O     O_3   0.445473 0.656419 0.405701 -0.610961
O67   O     O_R   0.945660 0.419250 0.676780 -0.456180
O68   O     O_3   0.473604 0.620378 0.551601 -0.596899
O69   O     O_3   0.991125 0.131567 0.439707 -0.604148
O70   O     O_3   0.035268 0.133821 0.577952 -0.600420
O71   O     O_R   0.054340 0.419250 0.323220 -0.452723
O72   O     O_R   0.456260 0.718170 0.670000 -0.556218

loop_
_geom_bond_atom_site_label_1
_geom_bond_atom_site_label_2
_ccdc_geom_bond_type
C20   H121  S    
C27   H137  S    
C28   H138  S    
C19   C20   S    
C2    C123  A    
C108  O56   A    
C2    C134  A    
C86   O24   A    
C45   H38   S    
C131  H13   S    
C74   O69   S    
C12   H103  S    
Cr7   O43   S    
C143  C144  S    
C130  H112  S    
C15   H108  S    
C56   C57   S    
C51   H51   S    
Cr7   O13   S    
C82   C105  S    
C89   C94   S    
C23   H129  S    
C80   O57   S    
C76   C94   D    
C69   C108  S    
C78   C96   D    
C14   H106  S    
C30   H144  S    
Cr10  O11   S    
C139  O52   S    
C34   H10   S    
C38   H20   S    
C18   H115  S    
C129  H90   S    
C139  H65   S    
C140  H67   S    
C11   H100  S    
C77   C113  S    
C144  H77   S    
C97   F27   S    
C45   C47   S    
C84   F4    S    
C79   O17   A    
C16   H111  S    
Cr10  O20   S    
C104  O41   A    
C44   H34   S    
C140  C141  S    
C83   C104  S    
C4    C5    S    
C64   H57   S    
C90   F5    S    
C40   H25   S    
C88   O26   A    
C77   O54   S    
C135  H53   S    
C32   H7    S    
C49   O70   S    
C24   O61   S    
C43   C44   S    
Cr7   O17   S    
C37   C38   S    
C138  H62   S    
C48   H42   S    
C53   C102  S    
C114  O38   A    
C143  H75   S    
C49   H44   S    
C85   C117  S    
C100  O33   A    
C8    H92   S    
Cr3   O11   S    
C127  O51   S    
C136  H56   S    
C66   H79   S    
Cr5   O41   S    
C54   C79   S    
C47   H39   S    
C98   O31   A    
C46   O63   S    
C95   F25   S    
C112  C134  A    
C72   C73   S    
C139  C140  S    
C89   F1    S    
C6    C7    S    
C59   C63   S    
C51   H49   S    
C60   C64   S    
C10   H98   S    
C129  H101  S    
C99   O32   A    
Cr2   O32   S    
Cr12  O5    S    
Cr12  O27   S    
C107  O45   A    
C130  C131  S    
C104  O46   A    
C84   C93   D    
C137  H59   S    
C61   C65   S    
C28   H139  S    
C20   C21   S    
C38   H18   S    
C131  H134  S    
C31   H3    S    
C32   O64   S    
C22   C23   S    
C35   C63   D    
C52   C65   D    
Cr8   O18   S    
Cr5   O37   S    
C39   H22   S    
C136  O51   S    
C48   H41   S    
C75   O70   S    
C80   C97   D    
C85   O22   A    
C44   H36   S    
C36   H15   S    
C126  O50   S    
C8    H93   S    
C123  C124  A    
C4    H83   S    
C5    H86   S    
C20   H120  S    
C141  H70   S    
C36   C37   S    
Cr2   O10   S    
C99   O12   A    
C82   F2    S    
C25   H130  S    
C92   C96   S    
C142  H72   S    
Cr5   O10   S    
C24   C101  A    
C118  C122  A    
C133  H46   S    
C57   O19   A    
C9    H96   S    
C50   H48   S    
C22   H127  S    
C9    O57   S    
C9    C10   S    
C59   F9    S    
C109  O67   A    
C111  O36   A    
Cr11  O48   S    
C43   H32   S    
Cr9   O56   S    
C102  O34   A    
C54   C59   D    
C17   H113  S    
C62   C66   S    
C140  H66   S    
C22   H126  S    
C39   C40   S    
Cr11  O13   S    
C105  O47   A    
C71   C110  S    
C107  O72   A    
C52   C100  S    
C116  C120  A    
C16   H110  S    
C133  H52   S    
C90   C120  A    
C69   C72   D    
C87   C119  S    
C29   C30   S    
C17   C18   S    
C19   H118  S    
C32   H6    S    
C23   H128  S    
Cr1   O1    S    
Cr2   O28   S    
C53   O65   S    
C41   H26   S    
C79   O21   A    
C122  C124  A    
C3    C4    S    
C93   C97   S    
C109  O3    A    
C120  C121  A    
C133  C135  S    
C129  C130  S    
C6    H87   S    
C142  C143  S    
C136  C137  S    
C108  O2    A    
Cr8   O9    S    
C70   F21   S    
C132  H24   S    
C25   H132  S    
Cr5   O12   S    
C88   C118  S    
C45   H37   S    
C42   H29   S    
C12   H104  S    
Cr3   O7    S    
C76   O53   S    
C76   C111  S    
C78   O55   S    
Cr3   O33   S    
C35   O62   S    
C15   H107  S    
C21   H122  S    
Cr8   O44   S    
C10   C11   S    
C91   C95   S    
C105  O42   A    
C3    H80   S    
C65   H68   S    
C70   C75   D    
C14   C15   S    
C81   F28   S    
C117  C125  A    
C103  O40   A    
C119  C127  A    
C34   H11   S    
C58   C62   D    
Cr11  O71   S    
C46   C99   S    
Cr12  O72   S    
C18   H116  S    
C13   C90   A    
Cr7   O39   S    
C54   F14   S    
C11   H99   S    
C47   H40   S    
C144  H78   S    
Cr6   O11   S    
C55   C68   S    
C93   F23   S    
C143  H74   S    
Cr12  O31   S    
C26   C27   S    
C26   O62   S    
C101  F6    S    
C36   H14   S    
C3    H81   S    
C30   C31   S    
C129  O49   S    
C130  H123  S    
Cr10  O25   S    
C4    H82   S    
C18   H117  S    
Cr6   O42   S    
Cr10  O67   S    
C37   H16   S    
C55   F15   S    
C138  H63   S    
C106  O48   A    
C81   C106  S    
C41   H28   S    
C67   F19   S    
C16   C17   S    
C63   H1    S    
Cr5   O15   S    
Cr11  O26   S    
C67   C73   D    
C73   O68   S    
C35   C98   S    
C81   C89   D    
Cr9   O46   S    
C103  O44   A    
C40   H23   S    
C33   H9    S    
C55   C60   D    
C56   F16   S    
C21   H125  S    
Cr8   O45   S    
C78   C114  S    
C139  H64   S    
Cr3   O3    S    
C68   O20   A    
C110  O71   A    
Cr4   O30   S    
C27   H136  S    
C7    C8    S    
Cr4   O4    S    
C110  O4    A    
C112  F7    S    
C115  O8    A    
C21   H124  S    
C101  C121  A    
Cr6   O38   S    
C142  H73   S    
Cr6   O16   S    
C80   C115  S    
Cr4   O35   S    
C14   H105  S    
C113  O37   A    
C30   H143  S    
C114  O7    A    
C115  O39   A    
C12   O58   S    
C28   H140  S    
C6    O55   S    
C38   H19   S    
C33   H8    S    
C125  C126  A    
C19   H119  S    
C58   F17   S    
C69   F18   S    
C61   F11   S    
Cr1   O14   S    
Cr2   O2    S    
Cr1   O36   S    
C16   O59   S    
C44   H33   S    
C96   F26   S    
C71   C74   D    
C8    H94   S    
C36   O65   S    
C31   H5    S    
C5    H85   S    
C135  H54   S    
C136  H58   S    
C141  H69   S    
C32   C33   S    
C138  H61   S    
C123  F8    S    
C68   O16   A    
C29   H141  S    
C49   H45   S    
Cr9   O10   S    
C60   F10   S    
C82   C91   D    
C42   O68   S    
C5    H84   S    
C37   H17   S    
C56   C61   D    
C9    H95   S    
C87   O25   A    
Cr12  O9    S    
C26   H135  S    
C85   O27   A    
C111  O5    A    
C43   H31   S    
C113  O6    A    
C125  O49   S    
C102  O35   A    
C119  C124  A    
C71   F20   S    
C83   C92   D    
Cr3   O29   S    
C51   H50   S    
C10   H97   S    
C29   O63   S    
C29   H142  S    
C7    H91   S    
C52   O64   S    
C19   O60   S    
Cr9   O24   S    
C86   C116  S    
C1    O14   A    
C117  C121  A    
C137  H60   S    
C132  C133  S    
C31   H4    S    
C88   O30   A    
Cr6   O23   S    
C106  O43   A    
C116  C126  A    
C142  O53   S    
C118  C128  A    
C13   O60   S    
C50   C51   S    
C74   C75   S    
Cr1   O9    S    
C6    H88   S    
C141  H71   S    
C91   F12   S    
C48   H43   S    
C25   H131  S    
C77   C95   D    
C13   C24   A    
C46   C64   D    
Cr1   O40   S    
C112  C122  A    
C1    O18   A    
C42   H30   S    
C70   C109  S    
C47   C48   S    
C33   C34   S    
C3    O54   S    
C50   H47   S    
C62   F13   S    
C94   F24   S    
C53   C66   D    
C92   F22   S    
C40   C41   S    
C26   H133  S    
C12   C14   S    
C49   C50   S    
Cr9   O19   S    
Cr4   O8    S    
Cr10  O47   S    
C34   H12   S    
C17   H114  S    
C15   H109  S    
C100  O23   A    
C87   O29   A    
Cr7   O34   S    
C11   H102  S    
C7    H89   S    
Cr2   O6    S    
Cr8   O22   S    
C86   O28   A    
C137  C138  S    
C98   O1    A    
C134  O58   S    
C132  H35   S    
Cr4   O13   S    
C72   O66   S    
C39   O66   S    
C132  O50   S    
C1    C58   S    
C45   O69   S    
C67   C107  S    
C128  O52   S    
C39   H21   S    
C135  H55   S    
C23   C25   S    
C144  H76   S    
Cr11  O21   S    
C22   O61   S    
C41   H27   S    
C131  H2    S    
C57   O15   A    
C83   F3    S    
C42   C43   S    
C27   C28   S    
C84   C103  S    
C2    O59   S    
C127  C128  A    
