data_mof_unit_59462.cif
_audit_creation_date              2012-12-10T18:12:36-0500
_audit_creation_method            fapswitch 2.2
_symmetry_space_group_name_H-M    P1
_symmetry_Int_Tables_number       1
_space_group_crystal_system       triclinic
_cell_length_a                    12.65532
_cell_length_b                    13.138995
_cell_length_c                    15.739529
_cell_angle_alpha                 91.143842
_cell_angle_beta                  102.949115
_cell_angle_gamma                 82.512856
_cell_volume                      2528.72353074

loop_
_atom_site_label
_atom_site_type_symbol
_atom_type_description
_atom_site_fract_x
_atom_site_fract_y
_atom_site_fract_z
_atom_type_partial_charge
C1    C     C_R   0.438954 0.691035 0.487779 0.842716
C2    C     C_3   0.503297 0.501439 0.917463 -0.049936
C3    C     C_3   0.417914 0.451303 0.009883 0.020322
C4    C     C_3   0.497563 0.499622 0.082732 -0.091073
C5    C     C_3   0.515484 0.403807 0.972456 0.400085
C6    C     C_3   0.594860 0.452637 0.045594 0.346048
C7    C     C_1   0.504748 0.501850 0.826805 0.073304
C8    C     C_1   0.495831 0.499247 0.173409 0.086440
C9    C     C_R   0.689847 0.066329 0.425957 -0.172162
C10   C     C_R   0.595009 0.200443 0.498444 -0.046312
C11   C     C_R   0.305319 0.836537 0.510740 -0.182864
C12   C     C_R   0.501280 0.500493 0.661884 0.894231
C13   C     C_R   0.278396 0.940932 0.521870 -0.131755
C14   C     C_R   0.348995 0.008969 0.509079 -0.177140
C15   C     C_R   0.445837 0.973374 0.480480 0.085711
C16   C     C_R   0.463347 0.869870 0.456300 0.078591
C17   C     C_R   0.526119 0.036836 0.475354 0.077499
C18   C     C_R   0.611917 0.001943 0.432966 0.156678
C19   C     C_R   0.617676 0.903978 0.397340 -0.237304
C20   C     C_R   0.544760 0.838168 0.409423 -0.180602
C21   C     C_R   0.524323 0.133715 0.512729 -0.238751
C22   C     C_R   0.680325 0.166287 0.457391 -0.190719
C23   C     C_R   0.560689 0.308876 0.508036 0.870006
C24   C     C_R   0.399650 0.800339 0.480855 -0.097242
C25   C     C_R   0.088119 0.344426 0.379036 -0.278295
C26   C     C_R   0.807018 0.628464 0.606229 0.314954
C27   C     C_R   0.915260 0.647550 0.630579 -0.233086
C28   C     C_R   0.992519 0.597664 0.590669 -0.243834
C29   C     C_R   0.963979 0.525840 0.525290 0.025620
C30   C     C_R   0.854135 0.502842 0.504273 0.193462
C31   C     C_R   0.041995 0.474610 0.481970 0.001878
C32   C     C_R   0.011198 0.397183 0.420952 0.173878
C33   C     C_R   0.904316 0.373165 0.402772 -0.243373
C34   C     C_R   0.498713 0.499670 0.338138 0.878430
C35   C     C_R   0.827019 0.425505 0.443632 -0.180578
C36   C     C_R   0.150324 0.497662 0.496708 -0.039545
C37   C     C_R   0.194275 0.369322 0.397846 0.016320
C38   C     C_3   0.485651 0.596664 0.027291 0.417934
C39   C     C_3   0.584008 0.550453 0.989611 -0.283909
C40   C     C_1   0.504056 0.501478 0.751363 -0.163809
C41   C     C_1   0.496089 0.499215 0.248739 -0.136527
C42   C     C_3   0.404628 0.549411 0.953561 -0.244486
H1    H     H_    0.651930 0.591241 0.979841 0.200897
H2    H     H_    0.465194 0.161393 0.550468 0.153284
H3    H     H_    0.254387 0.783878 0.528285 0.152555
H4    H     H_    0.324395 0.089015 0.519907 0.137513
H5    H     H_    0.204998 0.968842 0.544142 0.148911
H6    H     H_    0.552634 0.762266 0.381695 0.184065
H7    H     H_    0.254848 0.328786 0.366351 0.141740
H8    H     H_    0.880145 0.313657 0.356479 0.176208
H9    H     H_    0.066488 0.284514 0.332497 0.163473
H10   H     H_    0.180682 0.557239 0.539486 0.123926
H11   H     H_    0.074265 0.616246 0.614190 0.147100
H12   H     H_    0.940514 0.701849 0.681495 0.163632
H13   H     H_    0.746957 0.402888 0.427308 0.206750
H14   H     H_    0.327137 0.589932 0.914297 0.179638
H15   H     H_    0.735392 0.218003 0.445364 0.147318
H16   H     H_    0.680627 0.877046 0.362525 0.170979
H17   H     H_    0.755188 0.040807 0.393179 0.148146
N1    N     N_R   0.222180 0.444680 0.455580 -0.105349
N2    N     N_R   0.776980 0.554790 0.543960 -0.146165
O1    O     O_R   0.366730 0.627160 0.478790 -0.611337
O2    O     O_R   0.544830 0.662520 0.507160 -0.627502
O3    O     O_R   0.410960 0.482330 0.609040 -0.608205
O4    O     O_R   0.589060 0.517690 0.637410 -0.633582
O5    O     O_R   0.455170 0.337480 0.492840 -0.615501
O6    O     O_R   0.633270 0.372840 0.521210 -0.631163
O7    O     O_R   0.410940 0.482310 0.362590 -0.609000
O8    O     O_R   0.589040 0.517670 0.390960 -0.625433
Zn1   Zn    Zn3+2 0.381080 0.476390 0.481050 0.954643
Zn2   Zn    Zn3+2 0.618920 0.523610 0.518950 0.935171
C43   C     C_3   0.730662 0.691230 0.655024 -0.384298
C44   C     C_3   0.719339 0.805952 0.634361 -0.856151
H18   H     H_    0.795549 0.838462 0.664478 0.255116
H19   H     H_    0.701500 0.818674 0.563027 0.279301
H20   H     H_    0.651443 0.847653 0.660471 0.261455
H21   H     H_    0.648878 0.670065 0.642817 0.268726
H22   H     H_    0.763526 0.679180 0.726280 0.190623
Cl1   Cl    Cl    0.465764 0.724618 0.065560 -0.569055
Cl2   Cl    Cl    0.720142 0.389058 0.108435 -0.547883
Cl3   Cl    Cl    0.538302 0.275840 0.934465 -0.549029
C45   C     C_3   0.324459 0.396139 0.024925 -0.350619
C46   C     C_3   0.251594 0.367612 0.939107 -0.769340
H23   H     H_    0.213673 0.437708 0.899955 0.246165
H24   H     H_    0.299589 0.316148 0.900768 0.291977
H25   H     H_    0.185458 0.327031 0.952771 0.252645
H26   H     H_    0.359194 0.325577 0.064428 0.232377
H27   H     H_    0.274269 0.447274 0.061971 0.214474

loop_
_geom_bond_atom_site_label_1
_geom_bond_atom_site_label_2
_ccdc_geom_bond_type
C3    C42   S    
C26   C43   S    
C44   H18   S    
C19   C20   A    
C4    C8    S    
C1    O1    A    
C22   H15   S    
C27   H12   S    
C14   H4    S    
C10   C22   A    
C26   C27   A    
C43   H21   S    
C30   C35   A    
C23   O5    A    
C28   C29   A    
C26   N2    A    
C38   C42   S    
C5    C6    S    
C12   O3    A    
C9    C22   A    
C38   Cl1   S    
C45   H26   S    
C11   C24   A    
C37   H7    S    
O1    Zn1   S    
C18   C19   A    
C23   O6    A    
O8    Zn2   S    
C43   H22   S    
C2    C7    S    
C42   H14   S    
C2    C39   S    
C31   C32   A    
C7    C40   T    
O3    Zn1   S    
C36   H10   S    
C25   C37   A    
N2    Zn2   S    
C25   C32   A    
C10   C21   A    
C13   C14   A    
C44   H19   S    
C34   C41   S    
C1    O2    A    
C19   H16   S    
C38   C39   S    
C35   H13   S    
C8    C41   T    
C4    C6    S    
C34   O7    A    
C13   H5    S    
C39   H1    S    
C3    C5    S    
C33   H8    S    
O4    Zn2   S    
C17   C21   A    
C9    H17   S    
C12   C40   S    
C25   H9    S    
C29   C30   A    
C21   H2    S    
C5    Cl3   S    
C6    Cl2   S    
C46   H23   S    
C14   C15   A    
N1    Zn1   S    
C16   C20   A    
C3    C45   S    
C17   C18   A    
C34   O8    A    
C20   H6    S    
O7    Zn1   S    
C46   H24   S    
O2    Zn2   S    
C44   H20   S    
C11   H3    S    
C2    C5    S    
C3    C4    S    
C15   C17   A    
C31   C36   A    
C4    C38   S    
C43   C44   S    
C36   N1    A    
C28   H11   S    
C10   C23   S    
C12   O4    A    
C32   C33   A    
C29   C31   A    
C11   C13   A    
O5    Zn1   S    
C2    C42   S    
C45   H27   S    
C33   C35   A    
O6    Zn2   S    
C37   N1    A    
C9    C18   A    
C46   H25   S    
C1    C24   S    
C16   C24   A    
C45   C46   S    
C30   N2    A    
C27   C28   A    
C6    C39   S    
C15   C16   A    
