data_mof_unit_7138.cif
_audit_creation_date              2012-12-11T15:27:34-0500
_audit_creation_method            fapswitch 2.2
_symmetry_space_group_name_H-M    P1
_symmetry_Int_Tables_number       1
_space_group_crystal_system       triclinic
_cell_length_a                    23.238785
_cell_length_b                    7.300156
_cell_length_c                    15.110253
_cell_angle_alpha                 90.000243
_cell_angle_beta                  108.229247
_cell_angle_gamma                 89.999805
_cell_volume                      2434.75447711

loop_
_atom_site_label
_atom_site_type_symbol
_atom_type_description
_atom_site_fract_x
_atom_site_fract_y
_atom_site_fract_z
_atom_type_partial_charge
O1    O     O_R   0.711000 0.648610 0.341170 -0.534506
O2    O     O_R   0.289000 0.351390 0.658830 -0.534443
O3    O     O_R   0.789000 0.148610 0.158830 -0.534518
O4    O     O_R   0.211000 0.851390 0.841170 -0.534427
O5    O     O_R   0.829650 0.322030 0.336650 -0.537614
O6    O     O_R   0.170350 0.677970 0.663350 -0.537697
O7    O     O_R   0.670350 0.822030 0.163350 -0.537609
O8    O     O_R   0.329650 0.177970 0.836650 -0.537720
C1    C     C_R   0.854267 0.485797 0.356809 0.747129
C2    C     C_R   0.145733 0.514203 0.643190 0.747124
C3    C     C_R   0.645733 0.985797 0.143190 0.747136
C4    C     C_R   0.354267 0.014203 0.856810 0.747122
O9    O     O_R   0.713950 0.319280 0.352070 -0.534242
O10   O     O_R   0.286050 0.680720 0.647930 -0.534309
O11   O     O_R   0.786050 0.819280 0.147930 -0.534229
O12   O     O_R   0.213950 0.180720 0.852070 -0.534326
O13   O     O_R   0.672470 0.142870 0.174360 -0.536394
O14   O     O_R   0.327530 0.857130 0.825640 -0.536290
O15   O     O_R   0.827530 0.642870 0.325640 -0.536392
O16   O     O_R   0.172470 0.357130 0.674360 -0.536309
C5    C     C_R   0.701998 0.487534 0.376216 0.777464
C6    C     C_R   0.298006 0.512457 0.623789 0.777447
C7    C     C_R   0.798006 0.987531 0.123789 0.777466
C8    C     C_R   0.201997 0.012459 0.876214 0.777440
O17   O     O_3   0.736530 0.478650 0.191680 -0.379588
O18   O     O_3   0.263470 0.521350 0.808320 -0.379558
O19   O     O_3   0.763470 0.978650 0.308320 -0.379585
O20   O     O_3   0.236530 0.021350 0.691680 -0.379563
V1    V     V_3+5 0.752500 0.206170 0.260820 1.516771
V2    V     V_3+5 0.247500 0.793830 0.739180 1.516862
V3    V     V_3+5 0.747500 0.706170 0.239180 1.516792
V4    V     V_3+5 0.252500 0.293830 0.760820 1.516791
C9    C     C_R   0.826697 0.995941 0.050506 -0.179130
C10   C     C_R   0.173305 0.003869 0.949494 -0.179082
C11   C     C_R   0.673309 0.495956 0.449502 -0.179131
C12   C     C_R   0.326700 0.503871 0.550514 -0.179097
C13   C     C_R   0.821202 0.015181 0.887979 0.406177
C14   C     C_R   0.178774 0.981679 0.111920 0.406077
C15   C     C_R   0.678806 0.515063 0.612033 0.406183
C16   C     C_R   0.321227 0.482241 0.388069 0.406094
C17   C     C_R   0.792098 0.007170 0.956437 0.344422
C18   C     C_R   0.207887 0.990576 0.043494 0.344425
C19   C     C_R   0.707909 0.507207 0.543570 0.344417
C20   C     C_R   0.292116 0.490947 0.456500 0.344427
C21   C     C_R   0.889722 0.992230 0.076651 -0.274346
C22   C     C_R   0.110289 0.008551 0.923381 -0.274311
C23   C     C_R   0.610284 0.492229 0.423358 -0.274329
C24   C     C_R   0.389720 0.508266 0.576641 -0.274307
C25   C     C_R   0.920728 0.999185 0.009881 0.047444
C26   C     C_R   0.079265 0.999623 0.990082 0.047451
C27   C     C_R   0.579278 0.499240 0.490126 0.047438
C28   C     C_R   0.420742 0.499596 0.509929 0.047445
C29   C     C_R   0.885388 0.011352 0.914301 -0.039349
C30   C     C_R   0.114592 0.986034 0.085614 -0.039321
C31   C     C_R   0.614621 0.511142 0.585715 -0.039353
C32   C     C_R   0.385409 0.486543 0.414378 -0.039337
C33   C     C_R   0.985593 0.994618 0.035292 0.097650
C34   C     C_R   0.014395 0.003638 0.964650 0.097615
C35   C     C_R   0.514412 0.494890 0.464708 0.097643
C36   C     C_R   0.485613 0.503455 0.535366 0.097610
C37   C     C_R   0.977349 0.016038 0.870828 -0.189179
C38   C     C_R   0.022625 0.980837 0.129065 -0.189148
C39   C     C_R   0.522663 0.515310 0.629205 -0.189169
C40   C     C_R   0.477371 0.481895 0.370906 -0.189144
C41   C     C_R   0.914737 0.019546 0.846588 -0.069131
C42   C     C_R   0.085233 0.976767 0.153288 -0.069229
C43   C     C_R   0.585276 0.518911 0.653443 -0.069108
C44   C     C_R   0.414763 0.477861 0.346681 -0.069190
H1    H     H_    0.889602 0.028984 0.773209 0.201067
H2    H     H_    0.110356 0.965988 0.226618 0.201072
H3    H     H_    0.610414 0.527999 0.726832 0.201061
H4    H     H_    0.389635 0.467689 0.273328 0.201053
H5    H     H_    0.087174 0.019203 0.849790 0.125141
H6    H     H_    0.912862 0.984084 0.150328 0.125140
H7    H     H_    0.412837 0.518614 0.650248 0.125134
H8    H     H_    0.587149 0.483891 0.349687 0.125136
H9    H     H_    0.994949 0.023075 0.813057 0.129219
H10   H     H_    0.005008 0.972227 0.186777 0.129226
H11   H     H_    0.505066 0.521876 0.686991 0.129217
H12   H     H_    0.494979 0.474029 0.313165 0.129218
C45   C     C_1   0.416754 0.006980 0.918779 -0.141284
C46   C     C_1   0.583246 0.993020 0.081221 -0.141296
C47   C     C_1   0.083246 0.506980 0.581221 -0.141287
C48   C     C_1   0.916754 0.493019 0.418779 -0.141290
C49   C     C_1   0.469138 0.002402 0.969984 0.031054
C50   C     C_1   0.530861 0.997597 0.030016 0.031053
C51   C     C_1   0.030862 0.502402 0.530015 0.031056
C52   C     C_1   0.969139 0.497598 0.469984 0.031056
Cl1   Cl    Cl    0.287858 0.985052 0.075270 -0.551210
Cl2   Cl    Cl    0.712118 0.011444 0.924621 -0.551230
Cl3   Cl    Cl    0.212143 0.485662 0.424714 -0.551205
Cl4   Cl    Cl    0.787888 0.511603 0.575380 -0.551232
Cl5   Cl    Cl    0.776147 0.029992 0.769499 -0.457573
Cl6   Cl    Cl    0.223811 0.964888 0.230331 -0.457548
Cl7   Cl    Cl    0.723863 0.529830 0.730514 -0.457566
Cl8   Cl    Cl    0.276187 0.465666 0.269645 -0.457536

loop_
_geom_bond_atom_site_label_1
_geom_bond_atom_site_label_2
_ccdc_geom_bond_type
O17   V3    S    
C47   C51   T    
C51   C52   S    
O1    C5    A    
O19   V1    S    
C9    C21   A    
O3    C7    A    
C10   C18   A    
O15   V3    S    
C25   C33   A    
C33   C38   A    
C39   H11   S    
C49   C50   S    
O18   V4    S    
C35   C40   A    
C26   C30   A    
C36   C39   A    
C40   C44   A    
O9    V1    S    
O10   V2    S    
C23   H8    S    
C14   C18   A    
O4    C8    A    
C25   C29   A    
C2    C47   S    
O1    V3    S    
O13   V1    S    
O2    V4    S    
O3    V1    S    
C28   C36   A    
C1    O15   A    
C15   C31   A    
C37   H9    S    
C7    C9    S    
O2    C6    A    
C10   C22   A    
C11   C19   A    
C16   C20   A    
C43   H3    S    
C44   H4    S    
C13   C29   A    
C34   C37   A    
O11   C7    A    
C17   Cl2   S    
C11   C23   A    
C35   C36   A    
O12   C8    A    
C40   H12   S    
C24   H7    S    
C16   Cl8   S    
O5    V1    S    
C3    C46   S    
C15   C19   A    
C39   C43   A    
O7    V3    S    
C38   C42   A    
C13   Cl5   S    
O8    V4    S    
C2    O16   A    
C23   C27   A    
C16   C32   A    
C32   C44   A    
C8    C10   S    
C21   H6    S    
C26   C34   A    
O7    C3    A    
O5    C1    A    
C14   C30   A    
C21   C25   A    
O8    C4    A    
C14   Cl6   S    
O9    C5    A    
C15   Cl7   S    
C20   Cl3   S    
O14   V2    S    
O6    V2    S    
C12   C20   A    
C27   C35   A    
C29   C41   A    
O16   V4    S    
C3    O13   A    
C38   H10   S    
C48   C52   T    
O6    C2    A    
C31   C43   A    
O11   V3    S    
C5    C11   S    
O12   V4    S    
C6    C12   S    
C22   C26   A    
C19   Cl4   S    
C18   Cl1   S    
C9    C17   A    
O10   C6    A    
O20   V2    S    
C46   C50   T    
C33   C34   A    
C42   H2    S    
C41   H1    S    
C4    C45   S    
C12   C24   A    
C27   C31   A    
C13   C17   A    
O4    V2    S    
C1    C48   S    
C37   C41   A    
C24   C28   A    
C4    O14   A    
C30   C42   A    
C22   H5    S    
C45   C49   T    
C28   C32   A    
