data_mof_unit_35414.cif
_audit_creation_date              2012-10-26T17:13:03-0400
_audit_creation_method            fapswitch 2.2
_symmetry_space_group_name_H-M    P1
_symmetry_Int_Tables_number       1
_space_group_crystal_system       triclinic
_cell_length_a                    16.747631
_cell_length_b                    16.689993
_cell_length_c                    16.755733
_cell_angle_alpha                 68.143233
_cell_angle_beta                  68.013495
_cell_angle_gamma                 68.075222
_cell_volume                      3878.85929247

loop_
_atom_site_label
_atom_site_type_symbol
_atom_type_description
_atom_site_fract_x
_atom_site_fract_y
_atom_site_fract_z
_atom_type_partial_charge
C1    C     C_R   0.322922 0.962981 0.449672 0.014637
C2    C     C_R   0.304426 0.428464 0.020332 -0.003361
C3    C     C_R   0.537120 0.412656 0.003124 -0.059857
C4    C     C_R   0.013673 0.455804 0.585323 -0.055967
C5    C     C_R   0.985947 0.544916 0.414315 -0.060371
C6    C     C_3   0.384825 0.139951 0.756864 -0.201029
C7    C     C_3   0.422692 0.216186 0.742987 -0.454989
C8    C     C_3   0.478061 0.145089 0.182241 -0.210616
C9    C     C_3   0.449921 0.232671 0.207960 -0.454553
C10   C     C_3   0.148797 0.737543 0.399628 -0.215386
C11   C     C_3   0.228617 0.657033 0.381893 -0.459917
C12   C     C_3   0.863464 0.245167 0.606260 -0.201940
C13   C     C_R   0.047295 0.676657 0.546579 -0.002359
C14   C     C_3   0.783190 0.303111 0.659069 -0.441724
C15   C     C_3   0.740414 0.395828 0.145066 -0.218367
C16   C     C_3   0.659773 0.381445 0.225694 -0.464365
C17   C     C_3   0.175051 0.480260 0.147289 -0.210528
C18   C     C_3   0.193232 0.454115 0.237959 -0.450129
C19   C     C_3   0.264525 0.853975 0.600709 -0.214327
C20   C     C_3   0.298226 0.779484 0.553953 -0.464716
C21   C     C_3   0.745494 0.170259 0.400487 -0.230968
C22   C     C_3   0.714732 0.241398 0.450810 -0.482478
C23   C     C_3   0.588948 0.278557 0.849029 -0.236713
C24   C     C_R   0.948902 0.324753 0.454700 -0.004732
C25   C     C_3   0.547070 0.347317 0.774537 -0.481826
C26   C     C_3   0.399047 0.749541 0.169710 -0.226238
C27   C     C_3   0.451587 0.729394 0.235983 -0.469259
C28   C     C_3   0.857273 0.613601 0.250273 -0.201801
C29   C     C_3   0.779874 0.573764 0.273304 -0.451160
C30   C     C_3   0.147375 0.392593 0.742463 -0.216005
C31   C     C_3   0.221790 0.438994 0.710789 -0.463520
C32   C     C_R   0.446909 0.009851 0.447492 0.023600
C33   C     C_R   0.536897 0.045028 0.538242 0.023420
C34   C     C_R   0.974089 0.458395 0.457714 0.021857
C35   C     C_R   0.023854 0.542793 0.542574 0.024881
C36   C     C_R   0.444574 0.446856 0.013860 0.019777
C37   C     C_R   0.536674 0.538131 0.045149 0.023787
C38   C     C_R   0.026733 0.828380 0.565168 0.524737
C39   C     C_R   0.672272 0.064991 0.543419 0.016541
C40   C     C_R   0.972679 0.171887 0.434995 0.521597
C41   C     C_R   0.828451 0.565618 0.026132 0.525316
C42   C     C_R   0.168473 0.430434 0.985812 0.524812
C43   C     C_R   0.565451 0.026048 0.828657 0.531171
C44   C     C_R   0.430877 0.984135 0.169180 0.520346
C45   C     C_R   0.434879 0.171900 0.973055 0.505567
C46   C     C_R   0.564353 0.828241 0.028858 0.537963
C47   C     C_R   0.971723 0.435486 0.171937 0.505851
C48   C     C_R   0.026962 0.565034 0.828288 0.538908
C49   C     C_R   0.171873 0.972495 0.435209 0.525450
C50   C     C_R   0.947114 0.456474 0.324439 0.001959
C51   C     C_R   0.827967 0.029052 0.564429 0.526744
C52   C     C_R   0.400470 0.994531 0.401717 -0.003358
C53   C     C_R   0.584638 0.054860 0.586192 -0.002823
C54   C     C_R   0.956815 0.413117 0.412094 -0.008593
C55   C     C_R   0.039072 0.588675 0.588911 -0.004998
C56   C     C_R   0.398508 0.400021 0.999561 -0.010591
C57   C     C_R   0.585293 0.586588 0.052882 -0.004617
C58   C     C_R   0.270042 0.962562 0.399548 -0.031973
C59   C     C_R   0.728316 0.047988 0.598091 -0.031203
C60   C     C_R   0.954188 0.402691 0.271174 -0.035142
C61   C     C_R   0.048499 0.545604 0.676370 0.010354
C62   C     C_R   0.042168 0.598865 0.729585 -0.030538
C63   C     C_R   0.397637 0.269620 0.965796 -0.041148
C64   C     C_R   0.597662 0.728950 0.048476 -0.027680
C65   C     C_R   0.598399 0.044499 0.729878 -0.032267
C66   C     C_R   0.389668 0.988463 0.263006 -0.032801
C67   C     C_R   0.729690 0.599704 0.042764 -0.038022
C68   C     C_R   0.260899 0.388535 0.992855 -0.030597
C69   C     C_R   0.042159 0.729526 0.599253 -0.037069
C70   C     C_R   0.954984 0.271472 0.401723 -0.040340
C71   C     C_R   0.448888 0.067768 0.708862 0.062131
C72   C     C_R   0.446421 0.322572 0.967974 0.001080
C73   C     C_R   0.494661 0.064017 0.261399 0.061177
C74   C     C_R   0.064378 0.706432 0.452097 0.073373
C75   C     C_R   0.935490 0.293747 0.549004 0.060343
C76   C     C_R   0.709123 0.452440 0.061671 0.078956
C77   C     C_R   0.258100 0.493474 0.070068 0.054150
C78   C     C_R   0.300913 0.935958 0.545167 0.059769
C79   C     C_R   0.696871 0.096254 0.448033 0.061629
C80   C     C_R   0.541069 0.302844 0.937672 0.070762
C81   C     C_R   0.446973 0.697738 0.098232 0.054793
C82   C     C_R   0.932629 0.551691 0.294294 0.050065
C83   C     C_R   0.542507 0.673243 0.065678 0.015419
C84   C     C_R   0.067054 0.450291 0.704732 0.067278
C85   C     C_R   0.308525 0.966629 0.308917 -0.176044
C86   C     C_R   0.689618 0.039188 0.689925 -0.176969
C87   C     C_R   0.957247 0.311725 0.311307 -0.176647
C88   C     C_R   0.039139 0.689687 0.689750 -0.169639
C89   C     C_R   0.307024 0.307431 0.970538 -0.175735
C90   C     C_R   0.689645 0.690505 0.039428 -0.171386
C91   C     C_R   0.652821 0.079104 0.400149 -0.044771
C92   C     C_R   0.335138 0.970265 0.587717 -0.047757
C93   C     C_R   0.033722 0.409394 0.668016 -0.052395
C94   C     C_R   0.543426 0.056600 0.676378 0.009645
C95   C     C_R   0.967960 0.591105 0.330722 -0.064433
C96   C     C_R   0.398346 0.652875 0.082932 -0.047001
C97   C     C_R   0.585038 0.336153 0.970993 -0.052148
C98   C     C_R   0.553171 0.059818 0.306533 -0.030306
C99   C     C_R   0.410987 0.032826 0.671042 -0.052225
C100  C     C_R   0.303487 0.551841 0.066680 -0.031049
C101  C     C_R   0.670637 0.413403 0.028851 -0.041943
C102  C     C_R   0.970237 0.329630 0.589270 -0.039026
C103  C     C_R   0.031446 0.670107 0.410455 -0.042378
C104  C     C_R   0.685184 0.089302 0.306968 0.397385
C105  C     C_R   0.429632 0.014633 0.307478 -0.002555
C106  C     C_R   0.294303 0.974894 0.677073 0.413684
C107  C     C_R   0.021050 0.323086 0.711201 0.416837
C108  C     C_R   0.984586 0.675993 0.286395 0.430445
C109  C     C_R   0.304740 0.684489 0.095310 0.400659
C110  C     C_R   0.675056 0.295696 0.973174 0.422687
C111  C     C_R   0.634741 0.082665 0.260622 0.408152
C112  C     C_R   0.330016 0.008798 0.717010 0.416349
C113  C     C_R   0.257931 0.633582 0.089851 0.410591
C114  C     C_R   0.716415 0.332367 0.004680 0.436401
C115  C     C_R   0.987575 0.284646 0.673592 0.416315
C116  C     C_R   0.676374 0.546336 0.050916 -0.004541
C117  C     C_R   0.018009 0.713917 0.324692 0.438802
C118  C     C_R   0.525765 0.038248 0.400346 -0.051916
C119  C     C_R   0.453897 0.025085 0.583361 -0.053821
C120  C     C_R   0.987083 0.414087 0.543690 -0.054185
C121  C     C_R   0.012598 0.586471 0.456116 -0.057046
C122  C     C_R   0.397518 0.525229 0.043272 -0.050513
C123  C     C_R   0.581797 0.455221 0.024492 -0.058396
C124  C     C_R   0.573330 0.051586 0.446609 -0.051957
C125  C     C_R   0.412005 0.001502 0.539518 -0.052845
C126  C     C_R   0.444420 0.573485 0.054859 -0.050857
Cu1   Cu    Cu3+1 0.995180 0.995180 0.424630 1.071259
Cu2   Cu    Cu3+1 0.004820 0.004820 0.575370 1.052227
Cu3   Cu    Cu3+1 0.995180 0.424630 0.995180 1.072959
Cu4   Cu    Cu3+1 0.004820 0.575370 0.004820 1.047655
Cu5   Cu    Cu3+1 0.424630 0.995180 0.995180 1.050053
Cu6   Cu    Cu3+1 0.575370 0.004820 0.004820 1.067714
F1    F     F_    0.287791 0.012945 0.802702 -0.561994
F2    F     F_    0.257973 0.766841 0.108579 -0.560782
F3    F     F_    0.972837 0.720893 0.203630 -0.541938
F4    F     F_    0.036117 0.277521 0.792617 -0.549866
F5    F     F_    0.668798 0.093850 0.171079 -0.553897
F6    F     F_    0.030365 0.796733 0.280122 -0.541367
F7    F     F_    0.977745 0.200941 0.718020 -0.555732
F8    F     F_    0.803080 0.291588 0.005721 -0.534946
F9    F     F_    0.168283 0.667877 0.101993 -0.545392
F10   F     F_    0.215886 0.953192 0.724073 -0.563064
F11   F     F_    0.767652 0.101671 0.260376 -0.566611
F12   F     F_    0.721136 0.216848 0.951625 -0.542046
H1    H     H_    0.272967 0.956439 0.272720 0.167436
H2    H     H_    0.325318 0.172914 0.730092 0.158425
H3    H     H_    0.357467 0.110443 0.829069 0.235295
H4    H     H_    0.508117 0.245490 0.212966 0.159354
H5    H     H_    0.397268 0.230072 0.272789 0.147841
H6    H     H_    0.421929 0.289563 0.156782 0.148984
H7    H     H_    0.422349 0.146882 0.160512 0.135907
H8    H     H_    0.537936 0.143662 0.123988 0.247239
H9    H     H_    0.228484 0.599916 0.443244 0.147860
H10   H     H_    0.226623 0.635329 0.327667 0.167555
H11   H     H_    0.291747 0.675214 0.362520 0.128086
H12   H     H_    0.731915 0.025280 0.731709 0.171677
H13   H     H_    0.142369 0.788900 0.335797 0.239344
H14   H     H_    0.165082 0.768267 0.437906 0.126195
H15   H     H_    0.757915 0.369284 0.614219 0.142348
H16   H     H_    0.799951 0.312927 0.712309 0.201227
H17   H     H_    0.730536 0.267506 0.689917 0.132990
H18   H     H_    0.836921 0.229778 0.563819 0.119481
H19   H     H_    0.889401 0.180456 0.652136 0.245445
H20   H     H_    0.605626 0.445070 0.227215 0.149962
H21   H     H_    0.633383 0.330452 0.223678 0.165480
H22   H     H_    0.679789 0.358905 0.288027 0.131198
H23   H     H_    0.965216 0.270524 0.270436 0.171822
H24   H     H_    0.787230 0.329971 0.137008 0.236207
H25   H     H_    0.775994 0.429513 0.161206 0.136629
H26   H     H_    0.136021 0.433183 0.292289 0.152742
H27   H     H_    0.201797 0.511558 0.249146 0.160894
H28   H     H_    0.254262 0.396951 0.241878 0.143117
H29   H     H_    0.153747 0.424448 0.148270 0.135593
H30   H     H_    0.118388 0.541370 0.141388 0.253341
H31   H     H_    0.264814 0.797606 0.501359 0.135362
H32   H     H_    0.371843 0.765107 0.524185 0.156299
H33   H     H_    0.282582 0.717268 0.603462 0.141193
H34   H     H_    0.031654 0.730745 0.730558 0.172640
H35   H     H_    0.288277 0.822160 0.661970 0.183704
H36   H     H_    0.190666 0.872388 0.625123 0.221316
H37   H     H_    0.732327 0.213224 0.514932 0.143056
H38   H     H_    0.641165 0.271053 0.463907 0.149273
H39   H     H_    0.748350 0.295551 0.409875 0.134458
H40   H     H_    0.818831 0.143504 0.383688 0.217779
H41   H     H_    0.730749 0.208015 0.335458 0.184428
H42   H     H_    0.475401 0.351095 0.790815 0.156466
H43   H     H_    0.553183 0.414730 0.764207 0.164311
H44   H     H_    0.581141 0.327812 0.711021 0.128688
H45   H     H_    0.271336 0.271962 0.959314 0.165962
H46   H     H_    0.659599 0.279042 0.828171 0.192334
H47   H     H_    0.589991 0.211012 0.852170 0.185942
H48   H     H_    0.478494 0.655827 0.261637 0.145052
H49   H     H_    0.506977 0.761585 0.205603 0.157379
H50   H     H_    0.406470 0.756944 0.293418 0.132521
H51   H     H_    0.337354 0.729156 0.212004 0.177449
H52   H     H_    0.375874 0.822434 0.140350 0.228563
H53   H     H_    0.799396 0.521449 0.238797 0.141345
H54   H     H_    0.756902 0.544972 0.346667 0.149979
H55   H     H_    0.722891 0.627417 0.250837 0.140181
H56   H     H_    0.731399 0.732613 0.026824 0.171764
H57   H     H_    0.826364 0.674563 0.275137 0.172773
H58   H     H_    0.882765 0.638735 0.176953 0.229321
H59   H     H_    0.203240 0.490858 0.745658 0.153725
H60   H     H_    0.237009 0.469757 0.637363 0.148268
H61   H     H_    0.283513 0.389618 0.725928 0.129268
H62   H     H_    0.178701 0.331119 0.718429 0.166483
H63   H     H_    0.127354 0.368343 0.816285 0.223551
H64   H     H_    0.482917 0.192554 0.766706 0.148283
H65   H     H_    0.438566 0.253900 0.671266 0.140933
H66   H     H_    0.372192 0.261945 0.783085 0.127734
O1    O     O_R   0.124540 0.978640 0.385460 -0.507715
O2    O     O_R   0.124540 0.385460 0.978640 -0.518345
O3    O     O_R   0.021360 0.875460 0.614540 -0.512316
O4    O     O_R   0.978640 0.124540 0.385460 -0.514704
O5    O     O_R   0.013780 0.867370 0.487190 -0.491884
O6    O     O_R   0.986220 0.132630 0.512810 -0.504520
O7    O     O_R   0.867370 0.487190 0.013780 -0.488767
O8    O     O_R   0.132630 0.512810 0.986220 -0.496808
O9    O     O_R   0.487190 0.013780 0.867370 -0.497751
O10   O     O_R   0.512810 0.986220 0.132630 -0.496007
O11   O     O_R   0.512810 0.132630 0.986220 -0.519212
O12   O     O_R   0.875460 0.021360 0.614540 -0.517418
O13   O     O_R   0.487190 0.867370 0.013780 -0.494222
O14   O     O_R   0.986220 0.512810 0.132630 -0.532266
O15   O     O_R   0.013780 0.487190 0.867370 -0.493384
O16   O     O_R   0.132630 0.986220 0.512810 -0.496643
O17   O     O_R   0.867370 0.013780 0.487190 -0.494756
O18   O     O_R   0.978640 0.385460 0.124540 -0.510603
O19   O     O_R   0.021360 0.614540 0.875460 -0.498481
O20   O     O_R   0.385460 0.124540 0.978640 -0.515068
O21   O     O_R   0.614540 0.875460 0.021360 -0.501162
O22   O     O_R   0.614540 0.021360 0.875460 -0.509334
O23   O     O_R   0.385460 0.978640 0.124540 -0.519694
O24   O     O_R   0.875460 0.614540 0.021360 -0.515335

loop_
_geom_bond_atom_site_label_1
_geom_bond_atom_site_label_2
_ccdc_geom_bond_type
C21   H40   S    
C42   C68   S    
C47   O14   A    
Cu6   O21   S    
C1    C78   A    
C80   C97   A    
C4    C120  A    
C46   O21   A    
C44   C66   S    
C19   C20   S    
C44   O10   A    
C64   C90   A    
C112  F1    S    
C26   H52   S    
C92   C125  A    
C66   C85   A    
C23   H47   S    
C24   C70   A    
C65   C86   A    
C41   C67   S    
C71   C94   A    
C106  C112  A    
C18   H27   S    
C16   H20   S    
C97   C110  A    
C39   C53   A    
C9    H5    S    
C26   C27   S    
C101  C123  A    
C40   C70   S    
C28   H57   S    
C3    C36   A    
C28   C29   S    
C8    H8    S    
C85   H1    S    
C31   H61   S    
C22   H37   S    
C2    C68   A    
C30   C31   S    
C6    H2    S    
C20   H31   S    
C90   H56   S    
C41   O24   A    
C26   H51   S    
C51   O12   A    
C24   C54   A    
C15   C16   S    
C30   H62   S    
C30   C84   S    
C5    C121  A    
C15   H25   S    
C77   C100  A    
Cu5   O9    S    
Cu4   O8    S    
C86   H12   S    
C32   C52   A    
Cu3   O7    S    
C102  C115  A    
C25   H43   S    
C11   H10   S    
C81   C83   A    
C47   C60   S    
C37   C123  A    
C73   C105  A    
C87   H23   S    
C47   O18   A    
C117  F6    S    
C16   H22   S    
C8    C9    S    
C29   H55   S    
C17   C18   S    
C53   C94   A    
C33   C124  A    
C57   C83   A    
C106  F10   S    
C27   H49   S    
C114  F8    S    
C23   C80   S    
C91   C104  A    
C79   C91   A    
C11   H11   S    
Cu2   O3    S    
C12   H18   S    
C15   C76   S    
C37   C126  A    
C38   C69   S    
C45   C63   S    
C21   C22   S    
Cu1   O17   S    
C101  C114  A    
C3    C123  A    
C40   O6    A    
C73   C98   A    
C70   C87   A    
Cu6   O22   S    
C5    C95   A    
C60   C87   A    
C17   H29   S    
C98   C118  A    
C57   C116  A    
C18   H26   S    
C33   C53   A    
C6    C71   S    
C6    H3    S    
C9    H6    S    
C35   C55   A    
Cu6   O11   S    
C35   C121  A    
C8    H7    S    
C108  F3    S    
C95   C108  A    
Cu2   O12   S    
C81   C96   A    
C11   H9    S    
C43   O22   A    
C98   C111  A    
Cu4   O19   S    
C78   C92   A    
C28   C82   S    
Cu4   O24   S    
C67   C90   A    
Cu5   O23   S    
C49   C58   S    
C72   C80   A    
C46   C64   S    
Cu6   O10   S    
C39   C79   A    
C32   C125  A    
C122  C126  A    
C19   C78   S    
C36   C122  A    
C67   C116  A    
C64   C83   A    
C22   H39   S    
C36   C56   A    
C25   H44   S    
C75   C102  A    
C3    C97   A    
C48   C62   S    
C16   H21   S    
C43   C65   S    
C39   C59   A    
C5    C34   A    
C63   C89   A    
C17   C77   S    
C68   C89   A    
C104  F11   S    
C96   C126  A    
C24   C75   A    
C27   H50   S    
C118  C124  A    
C13   C74   A    
Cu3   O2    S    
C110  F12   S    
C109  C113  A    
C10   H13   S    
C107  C115  A    
C31   H60   S    
C20   H33   S    
C69   C88   A    
Cu2   O6    S    
C48   O19   A    
C119  C125  A    
Cu5   O20   S    
Cu1   O1    S    
C65   C94   A    
C115  F7    S    
C52   C105  A    
C34   C54   A    
C26   C81   S    
C29   H53   S    
C91   C124  A    
C51   O17   A    
C15   H24   S    
C51   C59   S    
C45   O20   A    
C7    H65   S    
C66   C105  A    
C40   O4    A    
Cu5   Cu6   S    
C103  C121  A    
C58   C85   A    
C19   H35   S    
C110  C114  A    
C50   C54   A    
C7    H66   S    
C42   O2    A    
C17   H30   S    
C50   C82   A    
Cu3   Cu4   S    
C92   C106  A    
C76   C101  A    
C10   H14   S    
C82   C95   A    
C56   C72   A    
C109  F2    S    
C31   H59   S    
C108  C117  A    
C38   O5    A    
C43   O9    A    
C100  C113  A    
C32   C118  A    
C7    H64   S    
C42   O8    A    
C61   C84   A    
C104  C111  A    
C41   O7    A    
Cu1   O4    S    
C88   H34   S    
C6    C7    S    
C18   H28   S    
C96   C109  A    
C9    H4    S    
C14   H15   S    
C102  C120  A    
C50   C60   A    
C13   C69   A    
C14   H17   S    
Cu4   O14   S    
C12   C14   S    
C59   C86   A    
C28   H58   S    
C22   H38   S    
C2    C77   A    
C2    C56   A    
C1    C58   A    
C93   C107  A    
C12   H19   S    
C48   O15   A    
C10   C74   S    
C21   H41   S    
Cu1   O5    S    
C20   H32   S    
C62   C88   A    
C21   C79   S    
C111  F5    S    
C30   H63   S    
C55   C61   A    
Cu3   O18   S    
C8    C73   S    
C76   C116  A    
C113  F9    S    
Cu3   O15   S    
C100  C122  A    
C84   C93   A    
C23   C25   S    
C71   C99   A    
C61   C62   A    
C1    C52   A    
C45   O11   A    
C4    C35   A    
C25   H42   S    
C46   O13   A    
C33   C119  A    
C99   C119  A    
C4    C93   A    
C49   O1    A    
C63   C72   A    
C34   C120  A    
Cu2   O16   S    
C29   H54   S    
C27   H48   S    
C12   C75   S    
C14   H16   S    
C10   C11   S    
C89   H45   S    
C99   C112  A    
C103  C117  A    
Cu5   O13   S    
C38   O3    A    
C49   O16   A    
C44   O23   A    
C19   H36   S    
C23   H46   S    
C37   C57   A    
Cu1   Cu2   S    
C74   C103  A    
C13   C55   A    
C107  F4    S    
