data_mof_unit_46604.cif
_audit_creation_date              2012-12-10T20:34:57-0500
_audit_creation_method            fapswitch 2.2
_symmetry_space_group_name_H-M    P1
_symmetry_Int_Tables_number       1
_space_group_crystal_system       triclinic
_cell_length_a                    10.684866
_cell_length_b                    10.670009
_cell_length_c                    9.901545
_cell_angle_alpha                 90.543652
_cell_angle_beta                  90.822733
_cell_angle_gamma                 90.691566
_cell_volume                      1128.60024684

loop_
_atom_site_label
_atom_site_type_symbol
_atom_type_description
_atom_site_fract_x
_atom_site_fract_y
_atom_site_fract_z
_atom_type_partial_charge
C1    C     C_R   0.495105 0.260074 0.499509 0.897039
C2    C     C_3   0.878240 0.501189 0.498797 -0.227921
C3    C     C_3   0.930883 0.615301 0.579795 -0.591303
C4    C     C_3   0.924725 0.506047 0.349027 0.323640
C5    C     C_R   0.469878 0.065185 0.621509 0.113882
C6    C     C_R   0.472981 0.128598 0.499320 -0.091988
C7    C     C_R   0.450849 0.063163 0.377754 -0.200732
C8    C     C_R   0.451025 0.933492 0.378344 -0.161517
C9    C     C_R   0.473555 0.871148 0.500480 -0.079663
C10   C     C_R   0.470258 0.937299 0.622168 0.144985
C11   C     C_3   0.556032 0.933650 0.742633 -0.409789
C12   C     C_R   0.257614 0.498273 0.498712 0.912244
C13   C     C_3   0.555274 0.075563 0.742060 -0.479249
C14   C     C_R   0.450242 0.400909 0.069061 0.070498
C15   C     C_R   0.561898 0.590001 0.075106 -0.049140
C16   C     C_R   0.565056 0.589097 0.932105 0.464819
C17   C     C_R   0.448632 0.401948 0.926812 0.023305
C18   C     C_3   0.316073 0.357867 0.919894 0.477322
C19   C     C_3   0.318606 0.354299 0.072754 -0.480096
C20   C     C_R   0.495518 0.739969 0.500315 0.895454
C21   C     C_R   0.742081 0.501345 0.500334 0.963813
C22   C     C_3   0.070489 0.383121 0.575422 -0.559064
C23   C     C_3   0.926316 0.379460 0.566737 0.428965
C24   C     C_3   0.074271 0.618015 0.570107 0.403585
C25   C     C_3   0.066615 0.484941 0.344664 0.758381
C26   C     C_3   0.120764 0.497611 0.495184 -0.256040
H1    H     H_    0.099588 0.390704 0.683205 0.231634
H2    H     H_    0.890285 0.704661 0.543833 0.237369
H3    H     H_    0.442946 0.111019 0.282060 0.168526
H4    H     H_    0.443012 0.883425 0.282850 0.176700
H5    H     H_    0.509270 0.893356 0.832176 0.241734
H6    H     H_    0.649074 0.894033 0.718937 0.226202
H7    H     H_    0.508001 0.116908 0.830988 0.195526
H8    H     H_    0.647796 0.118200 0.718306 0.234115
H9    H     H_    0.610745 0.663289 0.131693 0.184158
H10   H     H_    0.109592 0.293604 0.537203 0.243571
H11   H     H_    0.303223 0.264951 0.869619 0.064681
H12   H     H_    0.255880 0.423949 0.118455 0.300285
H13   H     H_    0.311514 0.257890 0.113687 0.148762
H14   H     H_    0.888878 0.371485 0.670721 0.131772
H15   H     H_    0.113557 0.620696 0.674909 0.195366
H16   H     H_    0.904401 0.607253 0.687799 0.196055
H17   H     H_    0.878580 0.427399 0.291526 0.218699
N1    N     N_R   0.499150 0.499140 0.142800 -0.126151
N2    N     N_R   0.499150 0.499180 0.857150 -0.137196
O1    O     O_R   0.500020 0.316790 0.614690 -0.630875
O2    O     O_R   0.500000 0.316760 0.385350 -0.621673
O3    O     O_R   0.314800 0.500000 0.614670 -0.564672
O4    O     O_R   0.314790 0.499960 0.385330 -0.609599
O5    O     O_R   0.500000 0.683240 0.614650 -0.623475
O6    O     O_R   0.499980 0.683210 0.385310 -0.626083
O7    O     O_R   0.685210 0.500040 0.614670 -0.669634
O8    O     O_R   0.685200 0.500000 0.385330 -0.581143
Zn1   Zn    Zn3+2 0.500010 0.500020 0.653130 0.990309
Zn2   Zn    Zn3+2 0.499990 0.499980 0.346870 0.995162
O9    O     O_3   0.887584 0.616323 0.282212 -0.734546
H18   H     H_    0.930901 0.689330 0.324865 0.371474
F1    F     F_    0.114373 0.727311 0.509114 -0.681931
O10   O     O_3   0.636587 0.680407 0.872968 -0.792631
H19   H     H_    0.655030 0.652636 0.780725 0.375240
F2    F     F_    0.237047 0.449943 0.872793 -0.642860
F3    F     F_    0.885963 0.274414 0.494001 -0.641459
O11   O     O_3   0.121897 0.567815 0.251513 -0.706044
H20   H     H_    0.137670 0.650168 0.295113 0.374825
O12   O     O_3   0.082942 0.361646 0.294740 -0.735522
H21   H     H_    0.171098 0.337079 0.308907 0.331902

loop_
_geom_bond_atom_site_label_1
_geom_bond_atom_site_label_2
_ccdc_geom_bond_type
N2    Zn1   S    
O3    Zn1   S    
C2    C4    S    
C3    H16   S    
C13   H7    S    
C6    C7    A    
C7    H3    S    
C19   H12   S    
C22   H10   S    
C9    C10   A    
C9    C20   S    
C5    C13   S    
N1    Zn2   S    
C17   C18   S    
C12   O3    A    
C8    H4    S    
O1    Zn1   S    
C2    C21   S    
C12   O4    A    
C11   H5    S    
C5    C10   A    
C18   F2    S    
C4    O9    S    
C21   O8    A    
C24   H15   S    
C11   C13   S    
C14   C17   A    
C3    C24   S    
O5    Zn1   S    
C19   H13   S    
C20   O5    A    
C5    C6    A    
C15   H9    S    
C3    H2    S    
C4    H17   S    
C18   H11   S    
C24   C26   S    
C11   H6    S    
C2    C3    S    
C20   O6    A    
O6    Zn2   S    
C22   H1    S    
O8    Zn2   S    
C25   O11   S    
C15   N1    A    
C15   C16   A    
C1    O1    A    
C7    C8    A    
C10   C11   S    
C16   N2    A    
C23   H14   S    
C24   F1    S    
C4    C25   S    
O10   H19   S    
C25   O12   S    
O9    H18   S    
O2    Zn2   S    
O12   H21   S    
C22   C26   S    
C12   C26   S    
C2    C23   S    
C22   C23   S    
C18   C19   S    
C13   H8    S    
C1    C6    S    
C25   C26   S    
O4    Zn2   S    
C14   C19   S    
C16   O10   S    
C21   O7    A    
C1    O2    A    
C23   F3    S    
O11   H20   S    
C17   N2    A    
C8    C9    A    
C14   N1    A    
O7    Zn1   S    
