data_mof_unit_7918.cif
_audit_creation_date              2012-12-10T17:19:22-0500
_audit_creation_method            fapswitch 2.2
_symmetry_space_group_name_H-M    P1
_symmetry_Int_Tables_number       1
_space_group_crystal_system       triclinic
_cell_length_a                    15.129601
_cell_length_b                    10.805238
_cell_length_c                    9.620718
_cell_angle_alpha                 89.642393
_cell_angle_beta                  90.415496
_cell_angle_gamma                 95.124007
_cell_volume                      1566.43361146

loop_
_atom_site_label
_atom_site_type_symbol
_atom_type_description
_atom_site_fract_x
_atom_site_fract_y
_atom_site_fract_z
_atom_type_partial_charge
C1    C     C_R   0.498347 0.262653 0.500837 0.773251
C2    C     C_R   0.908099 0.556437 0.613271 -0.035400
C3    C     C_R   0.943477 0.384523 0.287631 -0.173357
C4    C     C_R   0.034920 0.384499 0.288147 -0.180006
C5    C     C_R   0.087015 0.444586 0.394323 0.090271
C6    C     C_R   0.045236 0.507216 0.501345 -0.062452
C7    C     C_R   0.095996 0.571877 0.607525 -0.093413
C8    C     C_R   0.050597 0.638522 0.708541 0.332558
C9    C     C_R   0.957741 0.622540 0.717073 0.317520
C10   C     C_R   0.179558 0.440097 0.397078 0.164225
C11   C     C_R   0.230793 0.502642 0.501709 -0.162066
C12   C     C_R   0.328537 0.500278 0.500193 0.854991
C13   C     C_R   0.189459 0.564686 0.609575 0.184021
C14   C     C_R   0.654677 0.158366 0.606167 -0.320001
C15   C     C_R   0.734332 0.112149 0.642072 0.364847
C16   C     C_R   0.747118 0.988553 0.614189 0.181779
C17   C     C_R   0.676266 0.909022 0.559580 0.180598
C18   C     C_R   0.590710 0.951471 0.538346 -0.008923
C19   C     C_R   0.583053 0.080590 0.551285 -0.009478
C20   C     C_R   0.504856 0.130044 0.504316 -0.026380
C21   C     C_R   0.432491 0.052976 0.457168 -0.213010
C22   C     C_R   0.436162 0.925853 0.455811 -0.207095
C23   C     C_R   0.507110 0.738123 0.499486 0.856805
C24   C     C_R   0.513465 0.873640 0.496785 -0.047468
C25   C     C_R   0.615421 0.674576 0.143078 -0.128764
C26   C     C_R   0.671676 0.761521 0.070793 0.282775
C27   C     C_R   0.673096 0.758197 0.926916 -0.234052
C28   C     C_R   0.617364 0.671219 0.855640 -0.171545
C29   C     C_R   0.556942 0.585374 0.925173 0.203295
C30   C     C_R   0.556239 0.586411 0.074401 0.074694
C31   C     C_R   0.449553 0.413221 0.072347 0.341133
C32   C     C_R   0.447498 0.417013 0.924650 -0.123213
C33   C     C_R   0.670212 0.493085 0.500803 0.854608
C34   C     C_R   0.815219 0.546481 0.614422 -0.059768
C35   C     C_R   0.766309 0.491320 0.503657 -0.029111
C36   C     C_R   0.809242 0.438848 0.394211 -0.211752
C37   C     C_R   0.901381 0.441821 0.394487 0.164417
C38   C     C_R   0.951748 0.502697 0.502766 0.056134
Cu1   Cu    Cu3+1 0.499990 0.499990 0.640660 0.956872
Cu2   Cu    Cu3+1 0.500010 0.500010 0.359340 0.980417
H1    H     H_    0.779945 0.587010 0.697576 0.197927
H2    H     H_    0.650099 0.256102 0.622346 0.196694
H3    H     H_    0.377797 0.867368 0.423198 0.145674
H4    H     H_    0.621864 0.677364 0.252607 0.251558
H5    H     H_    0.717526 0.823656 0.869591 0.181561
H6    H     H_    0.624641 0.674310 0.746047 0.232597
H7    H     H_    0.770762 0.394386 0.309791 0.148577
H8    H     H_    0.404822 0.348953 0.867893 0.141613
H9    H     H_    0.905452 0.337651 0.204350 0.163528
H10   H     H_    0.063529 0.336078 0.204098 0.156679
H11   H     H_    0.372048 0.091369 0.424404 0.140584
N1    N     N_R   0.500860 0.501210 0.147910 -0.204931
N2    N     N_R   0.500890 0.501290 0.852040 -0.201515
O1    O     O_R   0.499990 0.319640 0.618810 -0.590818
O2    O     O_R   0.500000 0.319660 0.381240 -0.546668
O3    O     O_R   0.370250 0.499960 0.618800 -0.563485
O4    O     O_R   0.370260 0.499980 0.381230 -0.542067
O5    O     O_R   0.500000 0.680340 0.618760 -0.587605
O6    O     O_R   0.500010 0.680360 0.381190 -0.597914
O7    O     O_R   0.629740 0.500020 0.618770 -0.600832
O8    O     O_R   0.629750 0.500040 0.381200 -0.583273
Cl1   Cl    Cl    0.819117 0.213384 0.716637 -0.611576
N3    N     N_2   0.832128 0.945317 0.638955 -0.361075
H12   H     H_    0.830116 0.854279 0.671947 0.306217
C39   C     C_3   0.895587 0.972884 0.528698 -0.513938
H13   H     H_    0.873114 0.923323 0.432128 0.239952
H14   H     H_    0.960833 0.941902 0.560458 0.235326
H15   H     H_    0.904358 0.074339 0.507265 0.240014
Cl2   Cl    Cl    0.704566 0.771140 0.486330 -0.745675
N4    N     N_2   0.400179 0.313420 0.140356 -0.370109
H16   H     H_    0.334568 0.308485 0.110289 0.229917
C40   C     C_3   0.435277 0.194340 0.119393 -0.658536
H17   H     H_    0.395922 0.121506 0.179750 0.221769
H18   H     H_    0.505682 0.197549 0.153920 0.250356
H19   H     H_    0.430861 0.167451 0.008076 0.203126
N5    N     N_2   0.728044 0.851273 0.144283 -0.379740
H20   H     H_    0.787385 0.876359 0.095064 0.290015
C41   C     C_3   0.684446 0.958444 0.187110 -0.622150
H21   H     H_    0.729731 0.017914 0.255347 0.233942
H22   H     H_    0.623217 0.929244 0.246051 0.245578
H23   H     H_    0.666811 0.013622 0.094677 0.216008
N6    N     N_2   0.221144 0.361557 0.304258 -0.415581
H24   H     H_    0.206102 0.373754 0.200770 0.238140
C42   C     C_3   0.216865 0.232910 0.348850 -0.662727
H25   H     H_    0.146859 0.192545 0.355211 0.230134
H26   H     H_    0.249149 0.225828 0.452341 0.223348
H27   H     H_    0.251784 0.177710 0.273501 0.223604
N7    N     N_2   0.242803 0.609298 0.724314 -0.388092
H28   H     H_    0.258676 0.703649 0.732586 0.293530
C43   C     C_3   0.237382 0.534202 0.849823 -0.535873
H29   H     H_    0.170637 0.532791 0.897000 0.244488
H30   H     H_    0.287674 0.572779 0.926255 0.212009
H31   H     H_    0.250887 0.437258 0.825972 0.202665
Cl3   Cl    Cl    0.104094 0.755303 0.816289 -0.579701
Cl4   Cl    Cl    0.904498 0.687531 0.859688 -0.591205

loop_
_geom_bond_atom_site_label_1
_geom_bond_atom_site_label_2
_ccdc_geom_bond_type
C23   O5    A    
N3    C39   S    
C17   Cl2   S    
C35   C36   A    
C42   H27   S    
C31   N1    A    
C3    H9    S    
C7    C8    A    
Cu1   N2    S    
C23   O6    A    
C28   H6    S    
C26   C27   A    
C29   C30   A    
C18   C24   A    
C36   C37   A    
N5    C41   S    
C18   C19   A    
C5    C6    A    
C41   H22   S    
Cu1   O1    S    
C15   C16   A    
C36   H7    S    
C34   C35   A    
C31   N4    S    
C31   C32   A    
C8    C9    A    
C39   H14   S    
C26   N5    S    
C23   C24   S    
C6    C38   A    
N4    H16   S    
C16   N3    S    
C9    Cl4   S    
C14   H2    S    
Cu2   O2    S    
N7    H28   S    
C27   H5    S    
Cu2   O6    S    
C21   C22   A    
C32   H8    S    
C34   H1    S    
C40   H19   S    
C25   H4    S    
C8    Cl3   S    
C42   H25   S    
C40   H18   S    
Cu1   Cu2   S    
C41   H21   S    
C40   H17   S    
C25   C26   A    
Cu2   N1    S    
Cu1   O5    S    
C10   N6    S    
Cu2   O8    S    
C4    H10   S    
C1    O1    A    
C37   C38   A    
C2    C38   A    
C43   H30   S    
C22   H3    S    
C39   H15   S    
C17   C18   A    
Cu1   O3    S    
N5    H20   S    
C12   O3    A    
C12   O4    A    
N7    C43   S    
C39   H13   S    
C33   O7    A    
N6    C42   S    
C22   C24   A    
C3    C4    A    
C32   N2    A    
C21   H11   S    
C43   H31   S    
C25   C30   A    
C30   N1    A    
C28   C29   A    
C1    C20   S    
Cu2   O4    S    
C14   C19   A    
C42   H26   S    
C4    C5    A    
C11   C12   S    
C6    C7    A    
C19   C20   A    
C1    O2    A    
C5    C10   A    
C11   C13   A    
C41   H23   S    
C2    C34   A    
C43   H29   S    
C16   C17   A    
C29   N2    A    
Cu1   O7    S    
C13   N7    S    
C33   C35   S    
C15   Cl1   S    
C10   C11   A    
N3    H12   S    
C7    C13   A    
C20   C21   A    
C3    C37   A    
C33   O8    A    
N6    H24   S    
C27   C28   A    
C14   C15   A    
N4    C40   S    
C2    C9    A    
