data_mof_unit_11216.cif
_audit_creation_date              2013-03-05T16:02:50-0500
_audit_creation_method            fapswitch 2.2
_symmetry_space_group_name_H-M    P1
_symmetry_Int_Tables_number       1
_space_group_crystal_system       triclinic
_cell_length_a                    23.639361
_cell_length_b                    11.727299
_cell_length_c                    10.443958
_cell_angle_alpha                 90.006399
_cell_angle_beta                  90.002956
_cell_angle_gamma                 90.307381
_cell_volume                      2895.29349462

loop_
_atom_site_label
_atom_site_type_symbol
_atom_site_description
_atom_site_fract_x
_atom_site_fract_y
_atom_site_fract_z
_atom_type_partial_charge
O1    O     O_R   0.500000 0.337200 0.605810 -0.568291
O2    O     O_R   0.500000 0.662800 0.394190 -0.565670
O3    O     O_R   0.500000 0.662800 0.605810 -0.569289
O4    O     O_R   0.500000 0.337200 0.394190 -0.569159
C1    C     C_R   0.500011 0.283265 0.499989 0.810221
C2    C     C_R   0.500054 0.716735 0.500005 0.813263
O5    O     O_R   0.417880 0.500000 0.605840 -0.588692
O6    O     O_R   0.582120 0.500000 0.394160 -0.537987
O7    O     O_R   0.582120 0.500000 0.605840 -0.588395
O8    O     O_R   0.417880 0.500000 0.394160 -0.539725
C3    C     C_R   0.390484 0.500453 0.500049 0.843165
C4    C     C_R   0.609715 0.499187 0.500065 0.835360
Cu1   Cu    Cu3+1 0.500000 0.500000 0.625300 0.968326
Cu2   Cu    Cu3+1 0.500000 0.500000 0.374700 0.999625
C5    C     C_R   0.881026 0.607340 0.478155 0.529990
C6    C     C_R   0.119597 0.404973 0.448765 0.534838
C7    C     C_R   0.881371 0.404180 0.475851 0.558365
C8    C     C_R   0.119897 0.603345 0.498617 0.553116
N1    N     N_R   0.853214 0.505157 0.481424 -0.473498
N2    N     N_R   0.147726 0.503466 0.478028 -0.483719
C9    C     C_R   0.940310 0.402566 0.456131 -0.079177
C10   C     C_R   0.060728 0.609248 0.482868 -0.087497
C11   C     C_R   0.940850 0.611256 0.478268 -0.083630
C12   C     C_R   0.059873 0.403071 0.442619 -0.081373
C13   C     C_R   0.970508 0.506926 0.465124 -0.104103
C14   C     C_R   0.030342 0.506513 0.462802 -0.117861
C15   C     C_R   0.969704 0.300826 0.426257 0.186909
C16   C     C_R   0.031383 0.714142 0.489010 0.234035
C17   C     C_R   0.971825 0.715144 0.488202 0.187562
C18   C     C_R   0.029047 0.301398 0.417680 0.230524
O9    O     O_2   0.850272 0.703682 0.475444 -0.550117
O10   O     O_2   0.149781 0.309233 0.429372 -0.507721
O11   O     O_2   0.851904 0.306394 0.490937 -0.541293
O12   O     O_2   0.149809 0.695676 0.536541 -0.490441
C19   C     C_R   0.240242 0.554730 0.386609 -0.009909
C20   C     C_R   0.761178 0.470018 0.378735 -0.016842
C21   C     C_R   0.235625 0.453855 0.592522 0.007237
C22   C     C_R   0.764759 0.530738 0.603505 0.003393
C23   C     C_R   0.299847 0.558841 0.395516 0.171793
C24   C     C_R   0.701590 0.462130 0.385828 0.168967
C25   C     C_R   0.295349 0.450704 0.596838 0.156431
C26   C     C_R   0.704994 0.532274 0.607565 0.159405
C27   C     C_R   0.327663 0.504196 0.498818 -0.196830
C28   C     C_R   0.672922 0.496893 0.498899 -0.204666
C29   C     C_R   0.208596 0.502767 0.485327 0.098094
C30   C     C_R   0.792294 0.503458 0.487697 0.107606
C31   C     C_1   0.499950 0.161926 0.499970 -0.185638
C32   C     C_1   0.499971 0.838071 0.499999 -0.187339
C33   C     C_1   0.499912 0.059719 0.499965 0.008929
C34   C     C_1   0.499917 0.940276 0.499977 0.008692
N3    N     N_1   0.500000 0.500000 0.186410 -0.134151
N4    N     N_1   0.500000 0.500000 0.813590 -0.144872
C35   C     C_1   0.500011 0.499999 0.071993 0.097043
C36   C     C_1   0.500011 0.500000 0.928006 0.079645
N5    N     N_2   0.940504 0.197971 0.394923 -0.440791
H1    H     H_    0.920840 0.155279 0.468955 0.288329
C37   C     C_3   0.913219 0.192827 0.270706 -0.599702
H2    H     H_    0.925724 0.113007 0.221517 0.207131
H3    H     H_    0.925590 0.266247 0.209129 0.222275
H4    H     H_    0.866540 0.192317 0.282159 0.272846
N6    N     N_2   0.061715 0.819718 0.495240 -0.367311
H5    H     H_    0.042978 0.882865 0.548991 0.268289
C38   C     C_3   0.082877 0.860768 0.373436 -0.573955
H6    H     H_    0.047363 0.885419 0.309975 0.193665
H7    H     H_    0.108460 0.794400 0.324876 0.248861
H8    H     H_    0.110272 0.936588 0.389577 0.239500
N7    N     N_2   0.944407 0.822279 0.502208 -0.428271
H9    H     H_    0.916426 0.830982 0.577237 0.286628
C39   C     C_3   0.931442 0.883744 0.385661 -0.595700
H10   H     H_    0.885531 0.902873 0.381306 0.257120
H11   H     H_    0.943180 0.834368 0.298763 0.220559
H12   H     H_    0.955326 0.965231 0.385386 0.217238
N8    N     N_2   0.057489 0.198428 0.384828 -0.370066
H13   H     H_    0.040362 0.125577 0.424765 0.255738
C40   C     C_3   0.069262 0.185789 0.249566 -0.572794
H14   H     H_    0.096220 0.109735 0.234390 0.223524
H15   H     H_    0.092197 0.261810 0.212246 0.242893
H16   H     H_    0.029337 0.174221 0.195031 0.206266
C41   C     C_2   0.209283 0.604134 0.275448 0.401722
H17   H     H_    0.169592 0.566177 0.244589 0.070128
O13   O     O_2   0.225981 0.689858 0.220747 -0.548842
C42   C     C_2   0.792726 0.443837 0.258656 0.413466
H18   H     H_    0.831884 0.488801 0.237647 0.078627
O14   O     O_2   0.777190 0.369190 0.185041 -0.550713
C43   C     C_2   0.200188 0.408690 0.700198 0.471190
H19   H     H_    0.154595 0.417802 0.698366 0.061596
O15   O     O_2   0.220894 0.362024 0.793401 -0.516487
C44   C     C_2   0.799772 0.554782 0.720128 0.461821
H20   H     H_    0.845425 0.547635 0.716609 0.058755
O16   O     O_2   0.778663 0.581117 0.822497 -0.516690
N9    N     N_2   0.332616 0.614941 0.299329 -0.394819
H21   H     H_    0.319167 0.604097 0.206259 0.285540
C45   C     C_3   0.349760 0.730304 0.330614 -0.538178
H22   H     H_    0.312244 0.786501 0.337933 0.253674
H23   H     H_    0.378210 0.763650 0.254611 0.214682
H24   H     H_    0.373116 0.732230 0.422874 0.194893
N10   N     N_2   0.669846 0.422261 0.278430 -0.391395
H25   H     H_    0.683013 0.450705 0.189918 0.287435
C46   C     C_3   0.654730 0.302530 0.282674 -0.534768
H26   H     H_    0.693223 0.248807 0.278572 0.248233
H27   H     H_    0.627209 0.281409 0.199757 0.212304
H28   H     H_    0.631044 0.282655 0.371868 0.200168
N11   N     N_2   0.322099 0.390605 0.698565 -0.371520
H29   H     H_    0.349655 0.437167 0.754499 0.278076
C47   C     C_3   0.340334 0.276323 0.667604 -0.546492
H30   H     H_    0.374704 0.278446 0.595224 0.187759
H31   H     H_    0.304212 0.225409 0.629944 0.242275
H32   H     H_    0.356380 0.234042 0.755389 0.222781
N12   N     N_2   0.678112 0.571606 0.721239 -0.368592
H33   H     H_    0.650893 0.515460 0.765873 0.278070
C48   C     C_3   0.660826 0.689762 0.719706 -0.545116
H34   H     H_    0.627257 0.703680 0.647121 0.198738
H35   H     H_    0.697618 0.745765 0.697671 0.236425
H36   H     H_    0.644131 0.713590 0.815334 0.218329

loop_
_geom_bond_atom_site_label_1
_geom_bond_atom_site_label_2
_geom_bond_distance
_ccdc_geom_bond_type
N5    H1    1.030631 S    
C38   H7    1.110734 S    
C45   H22   1.110383 S    
N8    C40   1.447583 S    
N8    H13   1.031593 S    
C19   C23   1.412646 A    
C48   H34   1.110136 S    
O3    C2    1.273298 A    
N10   H25   1.030374 S    
N1    C30   1.441624 S    
C31   C33   1.198604 T    
C35   C36   1.503788 S    
C5    N1    1.364185 A    
C47   H31   1.111231 S    
C2    C32   1.422966 S    
O1    C1    1.273322 A    
C11   C17   1.421846 A    
C21   C43   1.497466 S    
C16   C17   1.408033 A    
C26   N12   1.424479 S    
C12   C14   1.418590 A    
C22   C26   1.413645 A    
C39   H10   1.110367 S    
N12   C48   1.446847 S    
C15   N5    1.424583 S    
C37   H3    1.112616 S    
N6    C38   1.448418 S    
C39   H11   1.112469 S    
O7    Cu1   1.951885 S    
C17   N7    1.424344 S    
Cu2   N3    1.966493 S    
C20   C42   1.491877 S    
C20   C30   1.409471 A    
N2    C29   1.441002 S    
O3    Cu1   1.920047 S    
C6    N2    1.364320 A    
C16   N6    1.428904 S    
C32   C34   1.198595 T    
C9    C15   1.418645 A    
C38   H8    1.110032 S    
C6    C12   1.413354 A    
C10   C16   1.416930 A    
Cu1   Cu2   2.617256 S    
C15   C18   1.405689 A    
C21   C25   1.413231 A    
C25   C27   1.421305 A    
O2    C2    1.273265 A    
C26   C28   1.425279 A    
C23   N9    1.427171 S    
N10   C46   1.447697 S    
N4    C36   1.194961 T    
C43   O15   1.220483 D    
C47   H32   1.110124 S    
N7    H9    1.030876 S    
C20   C24   1.413092 A    
C48   H35   1.111174 S    
O8    Cu2   1.951887 S    
N9    H21   1.030331 S    
C41   O13   1.220140 D    
C18   N8    1.427093 S    
C37   H4    1.109923 S    
C23   C27   1.418320 A    
C7    O11   1.347827 S    
C13   C14   1.414688 A    
C43   H19   1.083803 S    
C7    C9    1.408655 A    
C41   H17   1.085270 S    
C22   C44   1.498475 S    
N7    C39   1.448321 S    
C39   H12   1.107334 S    
O5    C3    1.280690 A    
C40   H14   1.110310 S    
N9    C45   1.447527 S    
Cu1   N4    1.966494 S    
C1    C31   1.422973 S    
C46   H26   1.110360 S    
O5    Cu1   1.951866 S    
O6    C4    1.284142 A    
N11   C47   1.446621 S    
C3    C27   1.485996 S    
C8    O12   1.349417 S    
C46   H27   1.110268 S    
C44   O16   1.220279 D    
C33   C34   1.400743 S    
C45   H24   1.110669 S    
C42   O14   1.220122 D    
O8    C3    1.281626 A    
N5    C37   1.449888 S    
O1    Cu1   1.920002 S    
C21   C29   1.412324 A    
C19   C29   1.410433 A    
C24   N10   1.426848 S    
C9    C13   1.416634 A    
O6    Cu2   1.951864 S    
C8    C10   1.410424 A    
O4    C1    1.273255 A    
C5    O9    1.347102 S    
C6    O10   1.348824 S    
C47   H30   1.109964 S    
C5    C11   1.414687 A    
C4    C28   1.494588 S    
N12   H33   1.029755 S    
C37   H2    1.109238 S    
C19   C41   1.491220 S    
C7    N1    1.362782 A    
C48   H36   1.110162 S    
C8    N2    1.363534 A    
C11   C13   1.420052 A    
O4    Cu2   1.920047 S    
N6    H5    1.031112 S    
O2    Cu2   1.920002 S    
C40   H16   1.110019 S    
C12   C18   1.418148 A    
C22   C30   1.411081 A    
O7    C4    1.283024 A    
C38   H6    1.109173 S    
C25   N11   1.424880 S    
C24   C28   1.422322 A    
C46   H28   1.111001 S    
C44   H20   1.083538 S    
C45   H23   1.110242 S    
C42   H18   1.085294 S    
C10   C14   1.414947 A    
C40   H15   1.111569 S    
N11   H29   1.029472 S    
N3    C35   1.194966 T    
