data_mof_unit_45945.cif
_audit_creation_date              2012-12-10T17:36:38-0500
_audit_creation_method            fapswitch 2.2
_symmetry_space_group_name_H-M    P1
_symmetry_Int_Tables_number       1
_space_group_crystal_system       triclinic
_cell_length_a                    12.094502
_cell_length_b                    12.889797
_cell_length_c                    15.702206
_cell_angle_alpha                 92.260362
_cell_angle_beta                  86.923582
_cell_angle_gamma                 93.460732
_cell_volume                      2438.31086203

loop_
_atom_site_label
_atom_site_type_symbol
_atom_type_description
_atom_site_fract_x
_atom_site_fract_y
_atom_site_fract_z
_atom_type_partial_charge
C1    C     C_R   0.521808 0.700080 0.491896 0.940926
C2    C     C_R   0.552217 0.026439 0.494529 -0.140935
C3    C     C_R   0.954678 0.451840 0.393390 0.290474
C4    C     C_R   0.045321 0.548158 0.606609 0.290494
C5    C     C_R   0.839259 0.442421 0.409570 0.440626
C6    C     C_R   0.160740 0.557581 0.590429 0.440637
C7    C     C_R   0.857309 0.522558 0.547299 0.493228
C8    C     C_R   0.142691 0.477441 0.452701 0.493234
C9    C     C_R   0.975106 0.517590 0.539497 -0.279499
C10   C     C_R   0.024894 0.482408 0.460502 -0.279479
C11   C     C_R   0.500615 0.499892 0.661791 0.881254
C12   C     C_R   0.478192 0.299920 0.508104 0.940882
C13   C     C_R   0.499385 0.500107 0.338209 0.881239
C14   C     C_3   0.476237 0.593555 0.030824 0.459290
C15   C     C_3   0.523759 0.406408 0.969175 0.459286
C16   C     C_3   0.578695 0.572189 0.970906 -0.410046
C17   C     C_3   0.421301 0.427774 0.029094 -0.410039
C18   C     C_1   0.501834 0.499196 0.750549 -0.069101
C19   C     C_1   0.498164 0.500789 0.249451 -0.069068
C20   C     C_3   0.399804 0.522519 0.976031 0.352838
C21   C     C_3   0.600192 0.477444 0.023969 0.352819
C22   C     C_3   0.501443 0.499672 0.916666 -0.102582
C23   C     C_R   0.644141 0.973526 0.460395 0.310776
C24   C     C_3   0.498554 0.500291 0.083333 -0.102596
C25   C     C_1   0.502116 0.498963 0.825804 0.137890
C26   C     C_1   0.497881 0.501009 0.174195 0.137868
C27   C     C_R   0.465234 0.188088 0.521016 -0.288681
C28   C     C_R   0.534765 0.811912 0.478983 -0.288672
C29   C     C_3   0.457745 0.767352 0.009044 0.126812
C30   C     C_3   0.408617 0.865504 0.047638 -0.713988
C31   C     C_3   0.542248 0.232610 0.990953 0.126817
C32   C     C_3   0.591372 0.134457 0.952357 -0.713970
C33   C     C_3   0.164315 0.149971 0.546231 0.201994
C34   C     C_R   0.355859 0.026474 0.539606 0.310775
C35   C     C_3   0.083368 0.231876 0.529930 -0.756303
C36   C     C_3   0.835685 0.850027 0.453771 0.201997
C37   C     C_3   0.916633 0.768122 0.470070 -0.756310
C38   C     C_3   0.233825 0.698983 0.663430 0.191193
C39   C     C_3   0.318746 0.734229 0.728261 -0.720100
C40   C     C_3   0.766168 0.301018 0.336571 0.191274
C41   C     C_3   0.681078 0.265768 0.271871 -0.720116
C42   C     C_R   0.640271 0.863483 0.462145 0.386539
C43   C     C_R   0.359729 0.136517 0.537855 0.386540
C44   C     C_R   0.438523 0.868373 0.483879 0.367691
C45   C     C_R   0.561477 0.131627 0.516120 0.367728
C46   C     C_R   0.447783 0.973561 0.505471 -0.140927
Cl1   Cl    Cl    0.732558 0.447668 0.057853 -0.483888
Cl2   Cl    Cl    0.998042 0.556325 0.715300 -0.417027
Cl3   Cl    Cl    0.267437 0.552292 0.942148 -0.483936
Cl4   Cl    Cl    0.686832 0.183671 0.559720 -0.556972
Cl5   Cl    Cl    0.313165 0.816327 0.440284 -0.556982
Cl6   Cl    Cl    0.746338 0.044257 0.397415 -0.672068
Cl7   Cl    Cl    0.253666 0.955742 0.602589 -0.672065
Cl8   Cl    Cl    0.206247 0.399108 0.371965 -0.509652
Cl9   Cl    Cl    0.793753 0.600890 0.628036 -0.509651
Cl10  Cl    Cl    0.001957 0.443674 0.284700 -0.417040
H1    H     H_    0.642539 0.629843 0.945219 0.214235
H2    H     H_    0.680361 0.150603 0.933418 0.283347
H3    H     H_    0.584203 0.072592 0.999941 0.193779
H4    H     H_    0.546207 0.106660 0.895272 0.258828
H5    H     H_    0.130183 0.111234 0.604588 0.220245
H6    H     H_    0.165776 0.094051 0.490218 0.164794
H7    H     H_    0.093049 0.253929 0.462605 0.268950
H8    H     H_    0.996812 0.199457 0.541118 0.241200
H9    H     H_    0.096816 0.301321 0.573114 0.272377
H10   H     H_    0.834225 0.905945 0.509784 0.164796
H11   H     H_    0.869818 0.888765 0.395414 0.220245
H12   H     H_    0.357457 0.370120 0.054781 0.214236
H13   H     H_    0.903185 0.698678 0.426884 0.272378
H14   H     H_    0.003188 0.800540 0.458883 0.241203
H15   H     H_    0.906951 0.746066 0.537393 0.268949
H16   H     H_    0.152364 0.728768 0.685630 0.191784
H17   H     H_    0.260697 0.733410 0.601497 0.207140
H18   H     H_    0.402403 0.711056 0.705191 0.222254
H19   H     H_    0.321299 0.820095 0.737703 0.244896
H20   H     H_    0.296193 0.698410 0.790434 0.283540
H21   H     H_    0.739460 0.266576 0.398532 0.207086
H22   H     H_    0.847590 0.271251 0.314243 0.191853
H23   H     H_    0.412543 0.743367 0.950812 0.159959
H24   H     H_    0.703411 0.301662 0.209693 0.283407
H25   H     H_    0.678582 0.179909 0.262371 0.244916
H26   H     H_    0.597450 0.288855 0.295105 0.222237
H27   H     H_    0.546629 0.786127 0.990775 0.144286
H28   H     H_    0.453782 0.893305 0.104722 0.258832
H29   H     H_    0.415784 0.927368 0.000053 0.193780
H30   H     H_    0.319629 0.849357 0.066578 0.283346
H31   H     H_    0.453363 0.213836 0.009222 0.144282
H32   H     H_    0.587450 0.256591 0.049185 0.159959
N1    N     N_R   0.207800 0.519340 0.515560 -0.182573
N2    N     N_R   0.792200 0.480660 0.484440 -0.182563
O1    O     O_R   0.421700 0.658830 0.504150 -0.597042
O2    O     O_3   0.552115 0.310554 0.929958 -0.556255
O3    O     O_3   0.270293 0.197454 0.562356 -0.573506
O4    O     O_3   0.729708 0.802544 0.437645 -0.573509
O5    O     O_3   0.227377 0.589477 0.656189 -0.549485
O6    O     O_3   0.772618 0.410524 0.343813 -0.549488
O7    O     O_R   0.578300 0.341170 0.495850 -0.597006
O8    O     O_R   0.609310 0.646410 0.494170 -0.544593
O9    O     O_R   0.390690 0.353590 0.505830 -0.544594
O10   O     O_R   0.406210 0.506220 0.628210 -0.560113
O11   O     O_R   0.593790 0.493780 0.371790 -0.560101
O12   O     O_R   0.593830 0.493800 0.618230 -0.554763
O13   O     O_R   0.406170 0.506200 0.381770 -0.554766
O14   O     O_3   0.447881 0.689410 0.070040 -0.556256
Zn1   Zn    Zn3+2 0.374730 0.508290 0.506660 1.086031
Zn2   Zn    Zn3+2 0.625270 0.491710 0.493340 1.086041

loop_
_geom_bond_atom_site_label_1
_geom_bond_atom_site_label_2
_ccdc_geom_bond_type
C11   C18   S    
C16   C21   S    
C37   H13   S    
O1    Zn1   S    
C32   H2    S    
C41   H24   S    
C36   H11   S    
C2    C46   A    
O10   Zn1   S    
C20   Cl3   S    
C23   C42   A    
C36   C37   S    
C24   C26   S    
C29   H27   S    
C38   C39   S    
C36   H10   S    
C35   H9    S    
C17   C20   S    
C7    C9    A    
C39   H18   S    
C14   C24   S    
C19   C26   T    
C12   O9    A    
C43   O3    S    
C15   O2    S    
C15   C22   S    
C33   H6    S    
C22   C25   S    
C38   O5    S    
C1    C28   S    
C35   H8    S    
C34   C46   A    
C7    Cl9   S    
C30   H30   S    
C9    C10   A    
C5    N2    A    
C27   C45   A    
C1    O1    A    
C37   H14   S    
C18   C25   T    
C40   O6    S    
C44   C46   A    
C2    C45   A    
O9    Zn1   S    
C38   H16   S    
C17   C24   S    
C31   H31   S    
C13   C19   S    
C12   C27   S    
C14   C20   S    
N2    Zn2   S    
C4    C6    A    
C8    Cl8   S    
C7    N2    A    
C28   C44   A    
C29   O14   S    
C11   O10   A    
C29   C30   S    
C36   O4    S    
C3    Cl10  S    
C14   O14   S    
C31   C32   S    
C29   H23   S    
C41   H25   S    
O13   Zn1   S    
C39   H20   S    
C30   H29   S    
C12   O7    A    
O7    Zn2   S    
C44   Cl5   S    
C33   H5    S    
C40   C41   S    
C20   C22   S    
C31   O2    S    
C39   H19   S    
C37   H15   S    
C40   H22   S    
C13   O13   A    
C32   H4    S    
C13   O11   A    
C5    O6    S    
C4    Cl2   S    
O11   Zn2   S    
C15   C17   S    
C17   H12   S    
C16   C22   S    
C31   H32   S    
C42   O4    S    
C34   C43   A    
C3    C5    A    
C33   O3    S    
C1    O8    A    
C6    N1    A    
O8    Zn2   S    
C3    C10   A    
C23   Cl6   S    
C45   Cl4   S    
C41   H26   S    
C28   C42   A    
C33   C35   S    
O12   Zn2   S    
C11   O12   A    
C14   C16   S    
C16   H1    S    
C30   H28   S    
C27   C43   A    
C15   C21   S    
C34   Cl7   S    
C8    C10   A    
C6    O5    S    
C21   C24   S    
N1    Zn1   S    
C2    C23   A    
C40   H21   S    
C35   H7    S    
C8    N1    A    
C32   H3    S    
C4    C9    A    
C21   Cl1   S    
C38   H17   S    
