data_mof_unit_33666.cif
_audit_creation_date              2013-03-05T15:44:21-0500
_audit_creation_method            fapswitch 2.2
_symmetry_space_group_name_H-M    P1
_symmetry_Int_Tables_number       1
_space_group_crystal_system       triclinic
_cell_length_a                    10.648791
_cell_length_b                    10.708711
_cell_length_c                    10.019658
_cell_angle_alpha                 89.519462
_cell_angle_beta                  89.880736
_cell_angle_gamma                 89.719062
_cell_volume                      1142.53365107

loop_
_atom_site_label
_atom_site_type_symbol
_atom_site_description
_atom_site_fract_x
_atom_site_fract_y
_atom_site_fract_z
_atom_type_partial_charge
O1    O     O_R   0.499980 0.319060 0.613040 -0.571175
O2    O     O_R   0.500020 0.319100 0.386900 -0.602524
C1    C     C_R   0.490473 0.262662 0.500455 0.878357
O3    O     O_R   0.314770 0.499960 0.613070 -0.621488
O4    O     O_R   0.314820 0.500000 0.386930 -0.623984
C2    C     C_R   0.257859 0.500513 0.500331 0.882665
Zn1   Zn    Zn3+2 0.499970 0.499970 0.650990 0.986497
Zn2   Zn    Zn3+2 0.500030 0.500030 0.349010 0.985490
O5    O     O_R   0.499980 0.680900 0.613100 -0.604119
O6    O     O_R   0.500020 0.680940 0.386960 -0.609423
O7    O     O_R   0.685180 0.500000 0.613070 -0.631835
O8    O     O_R   0.685230 0.500040 0.386930 -0.612270
C3    C     C_R   0.503198 0.737546 0.499296 0.970843
C4    C     C_R   0.742301 0.498557 0.499981 0.839113
C5    C     C_3   0.070614 0.508466 0.646188 -0.351480
H1    H     H_    0.106722 0.592019 0.698402 0.229096
H2    H     H_    0.102572 0.425599 0.705220 0.186365
C6    C     C_3   0.928022 0.511327 0.644954 -0.407100
H3    H     H_    0.892484 0.433872 0.709469 0.188941
H4    H     H_    0.894534 0.600760 0.688974 0.203187
H5    H     H_    0.890769 0.699773 0.464580 0.196934
C7    C     C_3   0.070610 0.610387 0.412668 0.179992
C8    C     C_3   0.076057 0.375459 0.440921 -0.513819
C9    C     C_3   0.121632 0.500311 0.500868 0.017911
H6    H     H_    0.114220 0.364430 0.338045 0.208060
H7    H     H_    0.113364 0.295244 0.500563 0.187945
C10   C     C_3   0.878905 0.497954 0.499420 0.025525
C11   C     C_3   0.926250 0.612360 0.418001 -0.434706
C12   C     C_3   0.931078 0.372014 0.441877 -0.173644
H8    H     H_    0.902003 0.295944 0.511991 0.140054
H9    H     H_    0.098250 0.592073 0.307142 0.144169
H10   H     H_    0.888241 0.612733 0.314791 0.199437
C13   C     C_2   0.475177 0.933440 0.388597 -0.039316
C14   C     C_2   0.511829 0.869815 0.496719 -0.289083
H11   H     H_    0.447451 0.887549 0.297010 0.195114
H12   H     H_    0.546411 0.915626 0.585651 0.144834
C15   C     C_2   0.480062 0.067734 0.389628 -0.207653
C16   C     C_2   0.453668 0.133593 0.499940 -0.204668
H13   H     H_    0.520840 0.111219 0.301334 0.199974
C17   C     C_2   0.593746 0.539489 0.924461 -0.116376
N1    N     N_2   0.501360 0.501330 0.852150 -0.181338
H14   H     H_    0.678540 0.570813 0.874548 0.159107
H15   H     H_    0.418525 0.477946 0.898184 0.174308
C18   C     C_2   0.590696 0.546117 0.074434 -0.105954
N2    N     N_2   0.501390 0.501360 0.147810 -0.186511
H16   H     H_    0.669807 0.589545 0.123461 0.169420
H17   H     H_    0.429670 0.454147 0.102723 0.172039
C19   C     C_2   0.881041 0.338703 0.305009 0.964303
O9    O     O_2   0.813678 0.247331 0.292712 -0.623098
O10   O     O_R   0.912359 0.411051 0.193053 -0.829870
H18   H     H_    0.872276 0.379372 0.108184 0.341584
C20   C     C_2   0.374463 0.084876 0.612258 0.893775
O11   O     O_2   0.390458 0.122163 0.725982 -0.612992
O12   O     O_R   0.279610 0.998487 0.586917 -0.716041
H19   H     H_    0.232270 0.973389 0.670750 0.369731
N3    N     N_R   0.122849 0.731711 0.450603 0.211081
O13   O     O_R   0.092758 0.783629 0.563270 -0.402442
O14   O     O_R   0.194130 0.792310 0.366977 -0.372940

loop_
_geom_bond_atom_site_label_1
_geom_bond_atom_site_label_2
_geom_bond_distance
_ccdc_geom_bond_type
C5    C6    1.518669 S    
C7    N3    1.469074 S    
C8    C9    1.550789 S    
C5    H2    1.114542 S    
C12   H8    1.115770 S    
C4    C10   1.454649 S    
O4    Zn2   2.007751 S    
C6    H4    1.114450 S    
C17   C18   1.505226 S    
Zn2   O8    2.009199 S    
C2    C9    1.450654 S    
C19   O10   1.398644 S    
O10   H18   1.013981 S    
C3    C14   1.419879 S    
C15   H13   1.086987 S    
C7    C11   1.538122 S    
C20   O11   1.223093 D    
N3    O13   1.301315 A    
Zn1   O7    2.007752 S    
N1    H15   1.025703 S    
C15   C16   1.344574 D    
O3    Zn1   2.009199 S    
C8    C12   1.544474 S    
C17   H14   1.084536 S    
C5    C9    1.556043 S    
C13   H11   1.086696 S    
H5    C11   1.113520 S    
C20   O12   1.398109 S    
C13   C15   1.439439 S    
C13   C14   1.333025 D    
C14   H12   1.086623 S    
Zn1   N1    2.015814 S    
O4    C2    1.286936 A    
O7    C4    1.285111 A    
C7    C9    1.563308 S    
C8    H7    1.114386 S    
C10   C12   1.569818 S    
C7    H9    1.115650 S    
C12   C19   1.518203 S    
C5    H1    1.110930 S    
C11   H10   1.111269 S    
C8    H6    1.114200 S    
C16   C20   1.496860 S    
C18   N2    1.292399 D    
O3    C2    1.282974 A    
C6    H3    1.114505 S    
N2    H17   1.025692 S    
C10   C11   1.551863 S    
Zn1   O5    1.971246 S    
C17   N1    1.292931 D    
O5    C3    1.287562 A    
O12   H19   1.013764 S    
C19   O9    1.223281 D    
O2    C1    1.287927 A    
C18   H16   1.084751 S    
O1    Zn1   1.977403 S    
N3    O14   1.300936 A    
Zn2   O6    1.977403 S    
O2    Zn2   1.971243 S    
C6    C10   1.558150 S    
Zn2   N2    2.015908 S    
C1    C16   1.438551 S    
O8    C4    1.286521 A    
O1    C1    1.288423 A    
O6    C3    1.283470 A    
