data_mof_unit_58940.cif
_audit_creation_date              2013-03-05T15:59:48-0500
_audit_creation_method            fapswitch 2.2
_symmetry_space_group_name_H-M    P1
_symmetry_Int_Tables_number       1
_space_group_crystal_system       triclinic
_cell_length_a                    8.401623
_cell_length_b                    12.699849
_cell_length_c                    18.809717
_cell_angle_alpha                 96.966041
_cell_angle_beta                  91.676071
_cell_angle_gamma                 99.070948
_cell_volume                      1964.85832786

loop_
_atom_site_label
_atom_site_type_symbol
_atom_site_description
_atom_site_fract_x
_atom_site_fract_y
_atom_site_fract_z
_atom_type_partial_charge
P1    P     P_3+3 0.034960 0.407000 0.339750 0.463463
O1    O     O_2   0.866600 0.438960 0.328790 -0.357996
O2    O     O_3   0.119240 0.440770 0.416170 -0.403307
O3    O     O_3   0.654630 0.636910 0.371550 -0.365376
O4    O     O_2   0.674278 0.501560 0.252627 -0.377844
O5    O     O_3   0.023052 0.266937 0.320810 -0.569221
O6    O     O_3   0.743482 0.703796 0.237064 -0.478254
H1    H     H_    0.673409 0.835527 0.297217 0.077481
C1    C     C_3   0.767625 0.876388 0.196777 -1.018697
H2    H     H_    0.695759 0.939969 0.187412 0.214678
H3    H     H_    0.883345 0.913801 0.225839 0.284828
P2    P     P_3+3 0.674960 0.749840 0.554930 0.461220
P3    P     P_3+3 0.122131 0.834154 0.413108 0.466422
O7    O     O_2   0.849480 0.765610 0.533810 -0.384878
O8    O     O_3   0.077620 0.693060 0.406790 -0.403689
O9    O     O_2   0.980513 0.881461 0.448145 -0.351304
O10   O     O_3   0.697911 0.776801 0.649127 -0.582008
O11   O     O_3   0.113246 0.868948 0.326089 -0.514083
C2    C     C_3   0.218086 0.814171 0.284697 0.461959
H4    H     H_    0.179438 0.725905 0.281688 0.101635
H5    H     H_    0.344338 0.837137 0.307429 -0.023192
C3    C     C_3   0.211910 0.843941 0.208799 -1.008560
H6    H     H_    0.089473 0.815684 0.183307 0.281829
H7    H     H_    0.242653 0.932470 0.209800 0.267946
C4    C     C_3   0.100792 0.792564 0.671216 0.338202
H8    H     H_    0.141410 0.865039 0.644721 0.110702
H9    H     H_    0.993517 0.749087 0.640008 0.131482
C5    C     C_3   0.063582 0.829700 0.748079 -0.979070
H10   H     H_    0.174354 0.875520 0.777575 0.266090
H11   H     H_    0.970505 0.882802 0.748022 0.250283
H12   H     H_    0.018345 0.759590 0.775947 0.239192
Ba1   Ba    Ba6+2 0.851480 0.550950 0.465800 1.529134
C6    C     C_3   0.874892 0.206289 0.332186 0.709695
H13   H     H_    0.797949 0.254071 0.364716 0.123092
C7    C     C_3   0.911292 0.114921 0.372888 -1.014712
H14   H     H_    0.984778 0.063101 0.340732 0.279538
H15   H     H_    0.798085 0.063613 0.384596 0.226104
H16   H     H_    0.982146 0.148616 0.423391 0.267447
C8    C     C_3   0.682633 0.682969 0.682884 0.464970
H17   H     H_    0.799841 0.655750 0.686228 0.006930
H18   H     H_    0.596223 0.615317 0.655410 0.163991
C9    C     C_3   0.629700 0.708784 0.758858 -0.943458
H19   H     H_    0.716477 0.775528 0.788726 0.242189
H20   H     H_    0.624506 0.637177 0.787654 0.233939
H21   H     H_    0.508483 0.733073 0.757417 0.284357
P4    P     P_3+3 0.154750 0.593090 0.660260 0.445285
O12   O     O_2   0.323100 0.561070 0.671250 -0.353911
O13   O     O_3   0.070470 0.559320 0.583840 -0.416439
O14   O     O_3   0.535090 0.363180 0.628460 -0.396735
O15   O     O_3   0.226411 0.732282 0.670337 -0.562008
P5    P     P_3+3 0.060727 0.167986 0.593035 0.446916
O16   O     O_3   0.609990 0.369010 0.464390 -0.355607
O17   O     O_3   0.112090 0.307030 0.593210 -0.375806
O18   O     O_2   0.185913 0.114742 0.549099 -0.381464
O19   O     O_3   0.095481 0.138178 0.680030 -0.537153
Ba2   Ba    Ba6+2 0.338350 0.449140 0.534210 1.538215
P6    P     P_3+3 0.616471 0.608630 0.277864 0.466517
C10   C     C_3   0.673086 0.797429 0.240672 0.462481
H22   H     H_    0.547900 0.779434 0.217140 0.012722
H23   H     H_    0.792220 0.834729 0.143812 0.268782
O20   O     O_3   0.579720 0.631080 0.535620 -0.431286
C11   C     C_3   0.350756 0.202804 0.318981 0.310405
H24   H     H_    0.269491 0.131248 0.332778 0.105849
H25   H     H_    0.306722 0.277549 0.339850 0.127971
C12   C     C_3   0.354454 0.196771 0.237489 -0.000444
H26   H     H_    0.413859 0.276509 0.224485 0.093293
H27   H     H_    0.426016 0.133503 0.217862 0.116471
P7    P     P_3+3 0.517513 0.234445 0.441284 0.416078
O21   O     O_2   0.340230 0.234420 0.466230 -0.368238
O22   O     O_3   0.507527 0.204630 0.347432 -0.657313
H28   H     H_    0.298440 0.804783 0.175733 0.218035
C13   C     C_3   0.052202 0.220434 0.728953 0.470756
H29   H     H_    0.138622 0.296237 0.728378 0.146609
H30   H     H_    0.927628 0.234412 0.716514 0.018241
C14   C     C_3   0.058499 0.188235 0.804128 -0.973851
H31   H     H_    0.182270 0.175063 0.818712 0.283687
H32   H     H_    0.025350 0.252976 0.843291 0.228738
H33   H     H_    0.972338 0.113011 0.806670 0.254749
P8    P     P_3+3 0.561530 0.373905 0.722243 0.428352
C15   C     C_3   0.527293 0.168130 0.692621 0.474708
H34   H     H_    0.655000 0.181839 0.677373 0.013985
O23   O     O_2   0.436671 0.441487 0.754264 -0.386359
O24   O     O_3   0.499225 0.246530 0.748304 -0.520799
H35   H     H_    0.446045 0.168430 0.644974 0.153955
H36   H     H_    0.572907 0.053466 0.764222 0.255372
C16   C     C_3   0.491647 0.057503 0.717332 -0.961594
H37   H     H_    0.511239 0.995027 0.673253 0.230375
H38   H     H_    0.364260 0.041044 0.732584 0.278926
N1    N     N_R   0.186362 0.555060 0.953831 -0.073444
N2    N     N_R   0.237579 0.561433 0.022433 -0.079194
C17   C     C_2   0.306786 0.498838 0.286007 -0.382796
C18   C     C_3   0.396417 0.589811 0.251763 0.078077
C19   C     C_2   0.351576 0.572949 0.171846 -0.222743
C20   C     C_2   0.198540 0.525753 0.149155 0.034880
C21   C     C_2   0.090201 0.480777 0.205026 -0.264197
C22   C     C_1   0.151855 0.469215 0.269667 0.307281
N3    N     N_R   0.988688 0.468552 0.048843 -0.076365
N4    N     N_R   0.937426 0.462168 0.980154 -0.080823
C23   C     C_R   0.034871 0.505390 0.930831 0.148674
C24   C     C_R   0.140171 0.518409 0.071757 0.138017
C25   C     C_R   0.081233 0.541864 0.802069 -0.264704
C26   C     C_R   0.030184 0.530629 0.729044 0.294341
C27   C     C_R   0.769496 0.435049 0.756152 0.231244
C28   C     C_R   0.819983 0.445803 0.829202 -0.268148
C29   C     C_R   0.978124 0.497410 0.853194 0.033143
C30   C     C_R   0.877610 0.473168 0.706778 -0.490409
H39   H     H_    0.435661 0.607921 0.135100 0.144432
H40   H     H_    0.961543 0.459897 0.192676 0.172543
H41   H     H_    0.200656 0.585081 0.818654 0.163276
H42   H     H_    0.736173 0.413866 0.866884 0.159670
H43   H     H_    0.371993 0.451278 0.317052 0.137034
H44   H     H_    0.838688 0.463495 0.650674 0.169133
C31   C     C_R   0.764942 0.181775 0.524882 -0.474882
C32   C     C_R   0.400135 0.821447 0.499789 -0.255470
C33   C     C_R   0.392610 0.991824 0.457110 -0.224096
C34   C     C_R   0.317827 0.888320 0.463282 0.181946
C35   C     C_R   0.565124 0.852701 0.521126 0.277182
C36   C     C_R   0.635092 0.962601 0.522304 -0.091830
C37   C     C_R   0.546638 0.032657 0.489582 -0.066417
C38   C     C_R   0.614711 0.141840 0.489853 0.248958
C39   C     C_R   0.854294 0.113747 0.555595 0.211239
C40   C     C_R   0.789176 0.005166 0.555244 -0.162297
H45   H     H_    0.326766 0.039393 0.427230 0.172762
H46   H     H_    0.859555 0.955916 0.581738 0.173187
H47   H     H_    0.816960 0.265344 0.524751 0.178365
C41   C     C_3   0.792111 0.156041 0.259192 -0.375176
C42   C     C_3   0.756742 0.239259 0.211720 -0.859848
H48   H     H_    0.689388 0.297464 0.240947 0.290793
H49   H     H_    0.871146 0.282050 0.194314 0.264417
H50   H     H_    0.683658 0.198707 0.163083 0.217621
H51   H     H_    0.871977 0.105775 0.229995 0.227565
H52   H     H_    0.678243 0.102537 0.267450 0.183278
O25   O     O_3   0.197012 0.169623 0.205227 -0.627266
C43   C     C_3   0.202860 0.182675 0.131553 0.240812
H53   H     H_    0.312743 0.157458 0.107102 0.083004
H54   H     H_    0.202510 0.268753 0.125522 0.111798
C44   C     C_3   0.055654 0.114029 0.090095 -0.297045
H55   H     H_    0.053486 0.028237 0.097390 0.212346
H56   H     H_    0.943767 0.139221 0.110956 0.212600
C45   C     C_3   0.058559 0.125389 0.010226 -0.993159
H57   H     H_    0.059068 0.210552 0.001781 0.272779
H58   H     H_    0.949581 0.075481 0.981736 0.274709
H59   H     H_    0.167255 0.097732 0.987027 0.271344
C46   C     C_3   0.319876 0.708784 0.502638 -0.173123
C47   C     C_3   0.360322 0.641791 0.432822 -0.517230
H60   H     H_    0.409018 0.694432 0.392965 0.135105
H61   H     H_    0.431478 0.577662 0.437748 0.259503
H62   H     H_    0.257754 0.594664 0.404965 0.224182
H63   H     H_    0.348525 0.679572 0.553013 0.217562
H64   H     H_    0.191343 0.706030 0.513157 0.204245

loop_
_geom_bond_atom_site_label_1
_geom_bond_atom_site_label_2
_geom_bond_distance
_ccdc_geom_bond_type
C28   H42   1.082398 S    
C19   C20   1.362871 D    
P6    C18   1.869591 S    
C21   C22   1.341142 D    
C45   H59   1.111320 S    
C15   H35   1.111341 S    
N3    C24   1.361641 A    
C43   C44   1.528545 S    
C47   H60   1.108891 S    
O8    Ba1   2.761715 S    
C8    H18   1.098167 S    
C30   H44   1.082313 S    
H36   C16   1.110592 S    
C4    C5    1.522478 S    
C44   H56   1.107228 S    
C41   C42   1.521513 S    
P3    O11   1.748893 S    
N1    C23   1.361415 A    
C5    H10   1.110532 S    
C7    H15   1.108762 S    
C45   H58   1.110473 S    
Ba1   O20   2.925290 S    
C1    C10   1.518602 S    
C15   O24   1.406944 S    
C36   C40   1.415331 A    
C16   H38   1.110595 S    
C31   H47   1.082522 S    
C25   H41   1.082489 S    
C33   C34   1.384557 A    
N4    C23   1.363280 A    
C11   O22   1.402815 S    
O1    Ba1   2.804913 S    
P1    O1    1.546711 D    
O10   C8    1.407039 S    
C17   H43   1.084961 S    
C36   C37   1.427314 A    
Ba1   O16   2.821327 S    
C46   H64   1.099450 S    
H1    C10   1.113530 S    
C17   C22   1.313200 D    
C4    O15   1.397492 S    
C2    H4    1.110840 S    
P7    O21   1.574629 D    
C12   H27   1.112089 S    
P2    O10   1.762325 S    
C11   H25   1.104932 S    
C20   C24   1.509815 S    
C1    H2    1.108879 S    
O6    C10   1.404614 S    
O19   C13   1.405870 S    
O16   P7    1.759113 S    
C13   H29   1.112043 S    
P2    Ba1   3.419010 S    
Ba1   O13   2.822813 S    
P8    C27   1.857299 S    
C20   C21   1.515524 S    
C9    H20   1.109342 S    
C13   C14   1.520589 S    
C14   H33   1.110859 S    
N2    C24   1.362138 A    
C28   C29   1.420247 A    
C47   H61   1.094471 S    
N3    N4    1.338811 A    
C8    C9    1.522163 S    
C25   C29   1.421312 A    
C23   C29   1.509406 S    
C44   C45   1.527064 S    
P4    O13   1.564201 S    
C33   H45   1.075353 S    
P1    O5    1.757581 S    
P3    C34   1.860725 S    
C25   C26   1.410586 A    
C2    C3    1.521994 S    
C45   H57   1.111427 S    
C13   H30   1.111759 S    
C17   C18   1.500442 S    
C16   H37   1.110693 S    
O11   C2    1.402828 S    
C43   H54   1.113094 S    
C4    H8    1.110924 S    
P1    Ba1   3.375043 S    
O14   P8    1.757544 S    
C6    C41   1.538753 S    
P1    O2    1.564198 S    
C9    H21   1.110192 S    
C32   C46   1.490391 S    
O3    P6    1.764723 S    
C14   H31   1.110798 S    
C42   H49   1.106009 S    
C11   H24   1.109632 S    
C31   C38   1.397471 A    
C1    H3    1.109081 S    
O2    Ba2   2.823441 S    
C41   H52   1.109230 S    
C7    H16   1.108102 S    
C6    H13   1.103301 S    
C14   H32   1.110640 S    
C39   C40   1.400215 A    
O3    Ba1   2.817289 S    
P2    O7    1.519407 D    
C12   H26   1.114582 S    
C33   C37   1.407823 A    
P3    O8    1.760467 S    
O25   C43   1.416842 S    
P5    C39   1.847341 S    
C3    H7    1.110918 S    
C9    H19   1.109642 S    
C40   H46   1.078972 S    
C42   H48   1.104703 S    
C3    H28   1.108194 S    
C8    H17   1.096416 S    
C47   H62   1.053676 S    
O17   Ba2   2.762225 S    
O13   Ba2   2.948526 S    
P4    O12   1.547032 D    
C11   C12   1.526909 S    
C2    H5    1.112968 S    
Ba2   O20   2.820731 S    
C5    H12   1.109130 S    
O7    Ba1   2.870268 S    
C15   H34   1.111308 S    
P8    O23   1.547684 D    
C32   C34   1.403511 A    
C37   C38   1.413457 A    
C43   H53   1.117457 S    
C4    H9    1.093299 S    
O14   Ba2   2.816706 S    
C44   H55   1.111940 S    
P4    O15   1.760597 S    
C15   C16   1.521012 S    
O5    C6    1.393471 S    
O4    P6    1.541218 D    
C46   C47   1.552471 S    
C1    H23   1.110771 S    
P5    O18   1.544660 D    
C5    H11   1.110285 S    
C10   H22   1.107602 S    
C42   H50   1.110107 S    
C35   C36   1.423764 A    
P7    C38   1.845114 S    
P8    O24   1.752555 S    
P2    O20   1.586364 S    
C41   H51   1.109481 S    
P1    C22   1.846695 S    
C18   C19   1.520143 S    
C6    C7    1.529635 S    
Ba1   Ba2   4.671516 S    
C26   C30   1.396652 A    
C27   C30   1.393438 A    
P5    O19   1.750247 S    
O2    Ba1   2.947671 S    
C46   H63   1.092459 S    
C12   O25   1.412565 S    
C32   C35   1.412595 A    
C21   H40   1.082912 S    
P2    C35   1.873392 S    
C31   C39   1.394231 A    
P7    O22   1.756691 S    
Ba2   O21   2.870595 S    
P3    O9    1.544725 D    
P4    Ba2   3.375613 S    
C27   C28   1.410216 A    
C3    H6    1.108995 S    
C7    H14   1.110647 S    
P5    O17   1.750048 S    
N1    N2    1.337181 A    
O6    P6    1.747743 S    
C19   H39   1.085428 S    
O16   Ba2   2.924432 S    
O12   Ba2   2.805260 S    
P4    C26   1.861408 S    
