data_mof_unit_54998.cif
_audit_creation_date              2012-12-10T18:57:12-0500
_audit_creation_method            fapswitch 2.2
_symmetry_space_group_name_H-M    P1
_symmetry_Int_Tables_number       1
_space_group_crystal_system       triclinic
_cell_length_a                    8.720693
_cell_length_b                    10.815937
_cell_length_c                    9.623706
_cell_angle_alpha                 90.311402
_cell_angle_beta                  98.850611
_cell_angle_gamma                 90.401612
_cell_volume                      896.881672068

loop_
_atom_site_label
_atom_site_type_symbol
_atom_type_description
_atom_site_fract_x
_atom_site_fract_y
_atom_site_fract_z
_atom_type_partial_charge
C1    C     C_R   0.493837 0.262684 0.498430 0.807555
C2    C     C_R   0.417394 0.931368 0.377001 -0.197910
C3    C     C_R   0.483296 0.869879 0.499634 -0.123217
C4    C     C_R   0.524417 0.938164 0.622933 0.070373
C5    C     C_3   0.661437 0.934333 0.738088 -0.268757
C6    C     C_3   0.659955 0.076541 0.735206 -0.257448
C7    C     C_R   0.635646 0.511430 0.091750 0.253167
C8    C     C_R   0.369000 0.473462 0.051607 0.031467
C9    C     C_R   0.369725 0.475262 0.905132 -0.105378
C10   C     C_R   0.635671 0.508698 0.945357 0.216594
C11   C     C_3   0.756875 0.606612 0.951580 -0.470308
C12   C     C_R   0.204203 0.491554 0.464254 0.827856
C13   C     C_3   0.757189 0.612353 0.110148 -0.106135
C14   C     C_R   0.497752 0.737166 0.500097 0.810775
C15   C     C_R   0.796045 0.500251 0.536418 0.891336
C16   C     C_2   0.039821 0.465486 0.451796 -0.203451
C17   C     C_2   0.962636 0.510072 0.552247 -0.376936
C18   C     C_R   0.523118 0.064758 0.620454 0.026512
C19   C     C_R   0.478258 0.129100 0.495670 -0.094566
C20   C     C_R   0.412382 0.061124 0.373546 0.151194
Cu1   Cu    Cu3+1 0.499990 0.499980 0.640670 0.957300
Cu2   Cu    Cu3+1 0.500010 0.500020 0.359330 0.959479
H1    H     H_    0.263805 0.455598 0.833854 0.160667
H2    H     H_    0.866912 0.570255 0.923121 0.193039
H3    H     H_    0.712830 0.690425 0.892991 0.209396
H4    H     H_    0.869025 0.581430 0.170817 0.193125
H5    H     H_    0.020199 0.566338 0.639119 0.168656
H6    H     H_    0.373649 0.878513 0.283039 0.161815
H7    H     H_    0.630309 0.896186 0.837089 0.142684
H8    H     H_    0.628094 0.118684 0.832331 0.155273
N1    N     N_R   0.500980 0.500930 0.148050 -0.211429
N2    N     N_R   0.500990 0.500890 0.852140 -0.194260
O1    O     O_R   0.500000 0.319640 0.618810 -0.580581
O2    O     O_R   0.500020 0.319680 0.381230 -0.577864
O3    O     O_R   0.274830 0.499980 0.591380 -0.589833
O4    O     O_R   0.274850 0.500020 0.353800 -0.577711
O5    O     O_R   0.499980 0.680320 0.618770 -0.574474
O6    O     O_R   0.500000 0.680360 0.381190 -0.591895
O7    O     O_R   0.725150 0.499980 0.646200 -0.578625
O8    O     O_R   0.725170 0.500020 0.408620 -0.575564
C21   C     C_1   0.974299 0.365695 0.359475 0.310586
N3    N     N_1   0.920416 0.285059 0.288184 -0.269657
C22   C     C_3   0.704830 0.737848 0.159330 -0.748852
H9    H     H_    0.774990 0.812745 0.120867 0.220417
H10   H     H_    0.580218 0.754533 0.119579 0.236343
H11   H     H_    0.726402 0.742284 0.275707 0.255149
C23   C     C_3   0.338735 0.122425 0.239501 -0.786863
H12   H     H_    0.428907 0.168303 0.187639 0.243769
H13   H     H_    0.277089 0.054383 0.163429 0.217370
H14   H     H_    0.252098 0.191116 0.263010 0.244275
C24   C     C_1   0.798128 0.874278 0.694137 0.279645
N4    N     N_1   0.905036 0.827099 0.659709 -0.310510
C25   C     C_1   0.795447 0.137424 0.688688 0.315230
N5    N     N_1   0.901473 0.185238 0.652353 -0.290430
C26   C     C_1   0.222044 0.439121 0.087794 0.273162
N6    N     N_1   0.099594 0.410883 0.107912 -0.321554

loop_
_geom_bond_atom_site_label_1
_geom_bond_atom_site_label_2
_ccdc_geom_bond_type
C8    C9    A    
C7    C10   A    
C26   N6    T    
Cu1   N2    S    
Cu1   O3    S    
C12   O4    A    
Cu2   O4    S    
C21   N3    T    
C19   C20   A    
Cu1   O7    S    
C7    C13   S    
C22   H9    S    
Cu2   O8    S    
C15   O8    A    
C2    C3    A    
C4    C18   A    
C23   H13   S    
C25   N5    T    
C12   O3    A    
C22   H10   S    
C15   O7    A    
C3    C14   S    
C6    C18   S    
C4    C5    S    
C8    C26   S    
C6    H8    S    
C7    N1    A    
C1    O2    A    
C23   H14   S    
C5    H7    S    
C5    C6    S    
Cu2   O2    S    
C22   H11   S    
C13   H4    S    
C1    C19   S    
C11   C13   S    
C14   O6    A    
C10   C11   S    
C11   H3    S    
C6    C25   S    
C2    C20   A    
C24   N4    T    
C20   C23   S    
C10   N2    A    
C11   H2    S    
C13   C22   S    
Cu1   O1    S    
Cu1   O5    S    
C18   C19   A    
Cu2   N1    S    
C15   C17   S    
C1    O1    A    
C9    H1    S    
C2    H6    S    
C12   C16   S    
C9    N2    A    
Cu1   Cu2   S    
C8    N1    A    
C16   C21   S    
C5    C24   S    
C3    C4    A    
C23   H12   S    
C16   C17   D    
C14   O5    A    
Cu2   O6    S    
C17   H5    S    
