data_mof_unit_62765.cif
_audit_creation_date              2012-12-10T18:06:56-0500
_audit_creation_method            fapswitch 2.2
_symmetry_space_group_name_H-M    P1
_symmetry_Int_Tables_number       1
_space_group_crystal_system       monoclinic
_cell_length_a                    21.628232
_cell_length_b                    21.628231
_cell_length_c                    38.95126
_cell_angle_alpha                 90.0
_cell_angle_beta                  90.000013
_cell_angle_gamma                 90.0
_cell_volume                      18220.6358983

loop_
_atom_site_label
_atom_site_type_symbol
_atom_type_description
_atom_site_fract_x
_atom_site_fract_y
_atom_site_fract_z
_atom_type_partial_charge
C1    C     C_R   0.620349 0.000000 0.500000 0.846569
C2    C     C_R   1.000000 0.620349 0.500000 0.846569
C3    C     C_R   0.379651 0.000000 0.500000 0.846570
C4    C     C_R   1.000000 0.379651 0.500000 0.846569
C5    C     C_R   0.120349 0.500000 0.000000 0.846569
C6    C     C_R   0.500000 0.120349 0.000000 0.846569
C7    C     C_R   0.879651 0.500000 0.000000 0.846570
C8    C     C_R   0.500000 0.879651 0.000000 0.846569
C9    C     C_R   0.783495 0.957071 0.479981 -0.184356
C10   C     C_R   0.042929 0.783495 0.479981 -0.184356
C11   C     C_R   0.216505 0.042929 0.479981 -0.184356
C12   C     C_R   0.957071 0.216505 0.479981 -0.184357
C13   C     C_R   0.783495 0.042929 0.520019 -0.184356
C14   C     C_R   0.042929 0.216505 0.520019 -0.184357
C15   C     C_R   0.216505 0.957071 0.520019 -0.184356
C16   C     C_R   0.957071 0.783495 0.520019 -0.184356
C17   C     C_R   0.283495 0.457071 0.979981 -0.184356
C18   C     C_R   0.542929 0.283495 0.979981 -0.184356
C19   C     C_R   0.716505 0.542929 0.979981 -0.184356
C20   C     C_R   0.457071 0.716505 0.979981 -0.184357
C21   C     C_R   0.283495 0.542929 0.020019 -0.184356
C22   C     C_R   0.542929 0.716505 0.020019 -0.184357
C23   C     C_R   0.716505 0.457071 0.020019 -0.184356
C24   C     C_R   0.457071 0.283495 0.020019 -0.184356
C25   C     C_R   0.814316 0.000000 0.500000 -0.114749
C26   C     C_R   0.000000 0.814316 0.500000 -0.114749
C27   C     C_R   0.185683 0.000000 0.500000 -0.114749
C28   C     C_R   1.000000 0.185683 0.500000 -0.114749
C29   C     C_R   0.314316 0.500000 0.000000 -0.114749
C30   C     C_R   0.500000 0.314316 0.000000 -0.114749
C31   C     C_R   0.685683 0.500000 0.000000 -0.114749
C32   C     C_R   0.500000 0.685683 0.000000 -0.114749
C33   C     C_R   0.687189 0.000000 0.500000 -0.157298
C34   C     C_R   1.000000 0.687189 0.500000 -0.157298
C35   C     C_R   0.312811 0.000000 0.500000 -0.157298
C36   C     C_R   1.000000 0.312811 0.500000 -0.157298
C37   C     C_R   0.187189 0.500000 0.000000 -0.157298
C38   C     C_R   0.500000 0.187189 0.000000 -0.157298
C39   C     C_R   0.812811 0.500000 0.000000 -0.157298
C40   C     C_R   0.500000 0.812811 0.000000 -0.157298
C41   C     C_R   1.000000 0.120112 0.500000 0.883436
C42   C     C_R   0.879887 0.000000 0.500000 0.883437
C43   C     C_R   1.000000 0.879887 0.500000 0.883437
C44   C     C_R   0.120113 0.000000 0.500000 0.883436
C45   C     C_R   0.500000 0.620112 0.000000 0.883436
C46   C     C_R   0.379887 0.500000 0.000000 0.883437
C47   C     C_R   0.500000 0.379887 0.000000 0.883437
C48   C     C_R   0.620112 0.500000 0.000000 0.883436
C49   C     C_R   0.500000 1.000000 0.567260 0.876851
C50   C     C_R   0.000000 0.500000 0.567260 0.876850
C51   C     C_R   0.500000 0.000000 0.432739 0.876851
C52   C     C_R   0.000000 0.500000 0.432739 0.876851
C53   C     C_R   1.000000 0.500000 0.067260 0.876851
C54   C     C_R   0.500000 0.000000 0.067260 0.876850
C55   C     C_R   1.000000 0.500000 0.932739 0.876851
C56   C     C_R   0.500000 0.000000 0.932739 0.876851
C57   C     C_R   0.531706 0.952456 0.876967 0.108786
C58   C     C_R   0.047544 0.531706 0.876967 0.108786
C59   C     C_R   0.468294 0.047544 0.876967 0.108787
C60   C     C_R   0.952456 0.468294 0.876967 0.108786
C61   C     C_R   0.531706 0.047544 0.123033 0.108786
C62   C     C_R   0.047544 0.468294 0.123033 0.108786
C63   C     C_R   0.468294 0.952456 0.123033 0.108787
C64   C     C_R   0.952456 0.531706 0.123033 0.108787
C65   C     C_R   0.031706 0.452456 0.376967 0.108786
C66   C     C_R   0.547544 0.031706 0.376967 0.108786
C67   C     C_R   0.968294 0.547544 0.376967 0.108786
C68   C     C_R   0.452456 0.968294 0.376967 0.108786
C69   C     C_R   0.031706 0.547544 0.623033 0.108786
C70   C     C_R   0.547544 0.968294 0.623033 0.108787
C71   C     C_R   0.968294 0.452456 0.623033 0.108787
C72   C     C_R   0.452456 0.031706 0.623033 0.108787
C73   C     C_R   0.537630 0.957214 0.840921 0.162789
C74   C     C_R   0.042786 0.537630 0.840921 0.162789
C75   C     C_R   0.462370 0.042786 0.840921 0.162789
C76   C     C_R   0.957214 0.462370 0.840921 0.162789
C77   C     C_R   0.537630 0.042786 0.159078 0.162789
C78   C     C_R   0.042786 0.462370 0.159079 0.162789
C79   C     C_R   0.462370 0.957214 0.159078 0.162789
C80   C     C_R   0.957214 0.537630 0.159078 0.162789
C81   C     C_R   0.037630 0.457214 0.340921 0.162789
C82   C     C_R   0.542786 0.037630 0.340921 0.162789
C83   C     C_R   0.962370 0.542786 0.340921 0.162789
C84   C     C_R   0.457214 0.962370 0.340921 0.162789
C85   C     C_R   0.037630 0.542786 0.659078 0.162789
C86   C     C_R   0.542786 0.962370 0.659079 0.162789
C87   C     C_R   0.962370 0.457214 0.659078 0.162789
C88   C     C_R   0.457214 0.037630 0.659078 0.162789
C89   C     C_R   0.500000 1.000000 0.823163 -0.068701
C90   C     C_R   0.000000 0.500000 0.823163 -0.068701
C91   C     C_R   0.500000 0.000000 0.176837 -0.068701
C92   C     C_R   0.000000 0.500000 0.176837 -0.068701
C93   C     C_R   1.000000 0.500000 0.323163 -0.068701
C94   C     C_R   0.500000 0.000000 0.323163 -0.068701
C95   C     C_R   1.000000 0.500000 0.676837 -0.068701
C96   C     C_R   0.500000 0.000000 0.676837 -0.068701
C97   C     C_R   0.500000 0.000000 0.895034 -0.190856
C98   C     C_R   1.000000 0.500000 0.895034 -0.190856
C99   C     C_R   0.500000 0.000000 0.104966 -0.190856
C100  C     C_R   0.000000 0.500000 0.104966 -0.190856
C101  C     C_R   1.000000 0.500000 0.395033 -0.190856
C102  C     C_R   0.500000 0.000000 0.395033 -0.190856
C103  C     C_R   1.000000 0.500000 0.604966 -0.190856
C104  C     C_R   0.500000 1.000000 0.604966 -0.190856
C105  C     C_R   0.539597 0.039905 0.767838 -0.196765
C106  C     C_R   0.039905 0.460403 0.767838 -0.196765
C107  C     C_R   0.460403 0.960095 0.767838 -0.196765
C108  C     C_R   0.960095 0.539597 0.767838 -0.196765
C109  C     C_R   0.539597 0.960095 0.232162 -0.196766
C110  C     C_R   0.039905 0.539597 0.232162 -0.196765
C111  C     C_R   0.460403 0.039905 0.232162 -0.196765
C112  C     C_R   0.960095 0.460403 0.232162 -0.196765
C113  C     C_R   0.039597 0.539905 0.267838 -0.196765
C114  C     C_R   0.539905 0.960403 0.267838 -0.196765
C115  C     C_R   0.960403 0.460095 0.267838 -0.196765
C116  C     C_R   0.460095 0.039597 0.267838 -0.196765
C117  C     C_R   0.039597 0.460095 0.732162 -0.196766
C118  C     C_R   0.539905 0.039597 0.732162 -0.196765
C119  C     C_R   0.960403 0.539905 0.732162 -0.196765
C120  C     C_R   0.460095 0.960403 0.732162 -0.196765
C121  C     C_R   0.500000 0.000000 0.714374 0.135183
C122  C     C_R   1.000000 0.500000 0.714374 0.135184
C123  C     C_R   0.500000 0.000000 0.285626 0.135184
C124  C     C_R   1.000000 0.500000 0.285626 0.135183
C125  C     C_R   1.000000 0.500000 0.214374 0.135183
C126  C     C_R   0.500000 0.000000 0.214374 0.135184
C127  C     C_R   0.000000 0.500000 0.785626 0.135184
C128  C     C_R   0.500000 0.000000 0.785626 0.135183
C129  C     C_R   0.719346 0.955786 0.479518 0.136395
C130  C     C_R   0.044214 0.719346 0.479518 0.136395
C131  C     C_R   0.280654 0.044214 0.479518 0.136395
C132  C     C_R   0.955786 0.280654 0.479518 0.136395
C133  C     C_R   0.719346 0.044214 0.520482 0.136395
C134  C     C_R   0.044214 0.280654 0.520482 0.136395
C135  C     C_R   0.280654 0.955786 0.520482 0.136395
C136  C     C_R   0.955786 0.719346 0.520482 0.136395
C137  C     C_R   0.219346 0.455786 0.979518 0.136395
C138  C     C_R   0.544214 0.219346 0.979518 0.136395
C139  C     C_R   0.780654 0.544214 0.979518 0.136395
C140  C     C_R   0.455786 0.780654 0.979518 0.136395
C141  C     C_R   0.219346 0.544214 0.020482 0.136395
C142  C     C_R   0.544214 0.780654 0.020482 0.136395
C143  C     C_R   0.780654 0.455786 0.020482 0.136395
C144  C     C_R   0.455786 0.219346 0.020482 0.136395
H1    H     H_    0.570100 0.070917 0.781613 0.136966
H2    H     H_    0.070917 0.429900 0.781613 0.136965
H3    H     H_    0.429900 0.929083 0.781613 0.136965
H4    H     H_    0.929083 0.570100 0.781613 0.136965
H5    H     H_    0.570100 0.929083 0.218387 0.136966
H6    H     H_    0.070917 0.570100 0.218387 0.136965
H7    H     H_    0.429900 0.070917 0.218387 0.136965
H8    H     H_    0.929083 0.429900 0.218387 0.136966
H9    H     H_    0.070100 0.570917 0.281613 0.136966
H10   H     H_    0.570917 0.929900 0.281613 0.136965
H11   H     H_    0.929900 0.429083 0.281613 0.136965
H12   H     H_    0.429083 0.070100 0.281613 0.136966
H13   H     H_    0.070100 0.429083 0.718387 0.136966
H14   H     H_    0.570917 0.070100 0.718387 0.136965
H15   H     H_    0.929900 0.570917 0.718387 0.136965
H16   H     H_    0.429083 0.929900 0.718387 0.136966
H17   H     H_    0.810547 0.924171 0.465433 0.162655
H18   H     H_    0.075829 0.810547 0.465433 0.162655
H19   H     H_    0.189453 0.075829 0.465433 0.162655
H20   H     H_    0.924171 0.189453 0.465433 0.162655
H21   H     H_    0.810547 0.075829 0.534567 0.162655
H22   H     H_    0.075829 0.189453 0.534567 0.162655
H23   H     H_    0.189453 0.924171 0.534567 0.162655
H24   H     H_    0.924171 0.810547 0.534567 0.162655
H25   H     H_    0.310547 0.424171 0.965433 0.162655
H26   H     H_    0.575829 0.310547 0.965433 0.162655
H27   H     H_    0.689453 0.575829 0.965433 0.162655
H28   H     H_    0.424171 0.689453 0.965433 0.162655
H29   H     H_    0.310547 0.575829 0.034567 0.162655
H30   H     H_    0.575829 0.689453 0.034567 0.162655
H31   H     H_    0.689453 0.424171 0.034567 0.162655
H32   H     H_    0.424171 0.310547 0.034567 0.162655
O1    O     O_R   0.591570 0.051800 0.500070 -0.635393
O2    O     O_R   0.948200 0.591570 0.500070 -0.635392
O3    O     O_R   0.408430 0.948200 0.500070 -0.635392
O4    O     O_R   0.051800 0.408430 0.500070 -0.635392
O5    O     O_R   0.591570 0.948200 0.499930 -0.635392
O6    O     O_R   0.948200 0.408430 0.499930 -0.635392
O7    O     O_R   0.408430 0.051800 0.499930 -0.635392
O8    O     O_R   0.051800 0.591570 0.499930 -0.635392
O9    O     O_R   0.091570 0.551800 0.000070 -0.635392
O10   O     O_R   0.448200 0.091570 0.000070 -0.635392
O11   O     O_R   0.908430 0.448200 0.000070 -0.635392
O12   O     O_R   0.551800 0.908430 0.000070 -0.635392
O13   O     O_R   0.091570 0.448200 0.999930 -0.635392
O14   O     O_R   0.448200 0.908430 0.999930 -0.635392
O15   O     O_R   0.908430 0.551800 0.999930 -0.635392
O16   O     O_R   0.551800 0.091570 0.999930 -0.635392
O17   O     O_R   0.499930 0.051800 0.550990 -0.625201
O18   O     O_R   0.948200 0.499930 0.550990 -0.625201
O19   O     O_R   0.500070 0.948200 0.550990 -0.625201
O20   O     O_R   0.051800 0.500070 0.550990 -0.625201
O21   O     O_R   0.499930 0.948200 0.449010 -0.625201
O22   O     O_R   0.948200 0.500070 0.449010 -0.625201
O23   O     O_R   0.500070 0.051800 0.449010 -0.625201
O24   O     O_R   0.051800 0.499930 0.449010 -0.625201
O25   O     O_R   0.999930 0.551800 0.050990 -0.625201
O26   O     O_R   0.448200 0.999930 0.050990 -0.625201
O27   O     O_R   0.000070 0.448200 0.050990 -0.625201
O28   O     O_R   0.551800 0.000070 0.050990 -0.625201
O29   O     O_R   0.999930 0.448200 0.949010 -0.625201
O30   O     O_R   0.448200 0.000070 0.949010 -0.625201
O31   O     O_R   0.000070 0.551800 0.949010 -0.625201
O32   O     O_R   0.551800 0.999930 0.949010 -0.625201
O33   O     O_R   0.999990 0.091790 0.471350 -0.624984
O34   O     O_R   0.908210 0.999990 0.471350 -0.624983
O35   O     O_R   0.000010 0.908210 0.471350 -0.624983
O36   O     O_R   0.091790 0.000010 0.471350 -0.624984
O37   O     O_R   0.999990 0.908210 0.528650 -0.624984
O38   O     O_R   0.908210 0.000010 0.528650 -0.624984
O39   O     O_R   0.000010 0.091790 0.528650 -0.624984
O40   O     O_R   0.091790 0.999990 0.528650 -0.624984
O41   O     O_R   0.499990 0.591790 0.971350 -0.624984
O42   O     O_R   0.408210 0.499990 0.971350 -0.624983
O43   O     O_R   0.500010 0.408210 0.971350 -0.624983
O44   O     O_R   0.591790 0.500010 0.971350 -0.624984
O45   O     O_R   0.499990 0.408210 0.028650 -0.624984
O46   O     O_R   0.408210 0.500010 0.028650 -0.624984
O47   O     O_R   0.500010 0.591790 0.028650 -0.624984
O48   O     O_R   0.591790 0.499990 0.028650 -0.624984
Zn1   Zn    Zn3+2 0.500000 0.069140 0.500000 0.915715
Zn2   Zn    Zn3+2 0.930860 0.500000 0.500000 0.915715
Zn3   Zn    Zn3+2 0.500000 0.930860 0.500000 0.915715
Zn4   Zn    Zn3+2 0.069140 0.500000 0.500000 0.915715
Zn5   Zn    Zn3+2 0.000000 0.569140 0.000000 0.915715
Zn6   Zn    Zn3+2 0.430860 0.000000 0.000000 0.915715
Zn7   Zn    Zn3+2 1.000000 0.430860 0.000000 0.915715
Zn8   Zn    Zn3+2 0.569140 0.000000 0.000000 0.915715
Zn9   Zn    Zn3+2 0.000000 0.000000 0.461700 0.944172
Zn10  Zn    Zn3+2 0.000000 0.000000 0.538300 0.944172
Zn11  Zn    Zn3+2 0.500000 0.500000 0.961700 0.944172
Zn12  Zn    Zn3+2 0.500000 0.500000 0.038300 0.944172
C145  C     C_3   0.555212 0.894578 0.895400 -0.392758
C146  C     C_3   0.514574 0.838560 0.887061 -0.911298
H33   H     H_    0.465007 0.851060 0.889271 0.269738
H34   H     H_    0.522423 0.821198 0.860698 0.252376
H35   H     H_    0.524891 0.800373 0.905252 0.263465
H36   H     H_    0.604174 0.885050 0.888773 0.211378
H37   H     H_    0.554800 0.899124 0.923640 0.220825
C147  C     C_3   0.105422 0.555212 0.895400 -0.392759
C148  C     C_3   0.161440 0.514575 0.887061 -0.911297
H38   H     H_    0.148940 0.465007 0.889271 0.269738
H39   H     H_    0.178802 0.522423 0.860698 0.252376
H40   H     H_    0.199627 0.524891 0.905252 0.263465
H41   H     H_    0.114950 0.604174 0.888773 0.211378
H42   H     H_    0.100876 0.554800 0.923640 0.220825
C149  C     C_3   0.444788 0.105422 0.895400 -0.392757
C150  C     C_3   0.485425 0.161440 0.887061 -0.911298
H43   H     H_    0.534992 0.148940 0.889271 0.269738
H44   H     H_    0.477577 0.178802 0.860698 0.252376
H45   H     H_    0.475109 0.199627 0.905252 0.263465
H46   H     H_    0.395826 0.114950 0.888773 0.211377
H47   H     H_    0.445199 0.100876 0.923640 0.220824
C151  C     C_3   0.894578 0.444788 0.895400 -0.392759
C152  C     C_3   0.838560 0.485426 0.887061 -0.911297
H48   H     H_    0.851060 0.534992 0.889271 0.269738
H49   H     H_    0.821198 0.477577 0.860698 0.252376
H50   H     H_    0.800373 0.475109 0.905252 0.263465
H51   H     H_    0.885050 0.395826 0.888773 0.211378
H52   H     H_    0.899124 0.445199 0.923640 0.220825
C153  C     C_3   0.555212 0.105422 0.104600 -0.392757
C154  C     C_3   0.514575 0.161440 0.112939 -0.911298
H53   H     H_    0.465007 0.148940 0.110729 0.269738
H54   H     H_    0.522423 0.178802 0.139302 0.252376
H55   H     H_    0.524891 0.199627 0.094748 0.263465
H56   H     H_    0.604174 0.114950 0.111227 0.211377
H57   H     H_    0.554800 0.100876 0.076359 0.220824
C155  C     C_3   0.105422 0.444788 0.104600 -0.392759
C156  C     C_3   0.161440 0.485426 0.112939 -0.911298
H58   H     H_    0.148940 0.534992 0.110729 0.269738
H59   H     H_    0.178802 0.477577 0.139302 0.252376
H60   H     H_    0.199627 0.475109 0.094748 0.263465
H61   H     H_    0.114950 0.395826 0.111227 0.211378
H62   H     H_    0.100876 0.445199 0.076360 0.220825
C157  C     C_3   0.444788 0.894578 0.104600 -0.392758
C158  C     C_3   0.485426 0.838560 0.112939 -0.911298
H63   H     H_    0.534993 0.851060 0.110729 0.269738
H64   H     H_    0.477577 0.821198 0.139302 0.252376
H65   H     H_    0.475109 0.800373 0.094748 0.263465
H66   H     H_    0.395826 0.885050 0.111227 0.211378
H67   H     H_    0.445200 0.899124 0.076359 0.220825
C159  C     C_3   0.894578 0.555212 0.104600 -0.392758
C160  C     C_3   0.838560 0.514574 0.112939 -0.911298
H68   H     H_    0.851060 0.465007 0.110729 0.269738
H69   H     H_    0.821198 0.522423 0.139302 0.252376
H70   H     H_    0.800373 0.524891 0.094748 0.263465
H71   H     H_    0.885050 0.604174 0.111227 0.211378
H72   H     H_    0.899124 0.554800 0.076359 0.220824
C161  C     C_3   0.055212 0.394578 0.395400 -0.392758
C162  C     C_3   0.014574 0.338560 0.387061 -0.911298
H73   H     H_    0.965007 0.351060 0.389271 0.269738
H74   H     H_    0.022423 0.321198 0.360698 0.252376
H75   H     H_    0.024891 0.300373 0.405252 0.263465
H76   H     H_    0.104174 0.385050 0.388773 0.211378
H77   H     H_    0.054800 0.399124 0.423640 0.220825
C163  C     C_3   0.605422 0.055212 0.395400 -0.392759
C164  C     C_3   0.661440 0.014575 0.387061 -0.911297
H78   H     H_    0.648940 0.965008 0.389271 0.269738
H79   H     H_    0.678802 0.022423 0.360698 0.252376
H80   H     H_    0.699627 0.024891 0.405252 0.263465
H81   H     H_    0.614950 0.104174 0.388773 0.211378
H82   H     H_    0.600876 0.054800 0.423640 0.220825
C165  C     C_3   0.944788 0.605422 0.395400 -0.392757
C166  C     C_3   0.985425 0.661440 0.387061 -0.911298
H83   H     H_    0.034992 0.648940 0.389271 0.269738
H84   H     H_    0.977577 0.678802 0.360698 0.252376
H85   H     H_    0.975109 0.699627 0.405252 0.263465
H86   H     H_    0.895826 0.614950 0.388773 0.211377
H87   H     H_    0.945199 0.600876 0.423640 0.220824
C167  C     C_3   0.394578 0.944788 0.395400 -0.392759
C168  C     C_3   0.338560 0.985425 0.387061 -0.911297
H88   H     H_    0.351060 0.034993 0.389271 0.269738
H89   H     H_    0.321198 0.977577 0.360698 0.252376
H90   H     H_    0.300373 0.975109 0.405252 0.263465
H91   H     H_    0.385050 0.895826 0.388773 0.211378
H92   H     H_    0.399124 0.945199 0.423640 0.220825
C169  C     C_3   0.055212 0.605422 0.604600 -0.392757
C170  C     C_3   0.014575 0.661439 0.612939 -0.911298
H93   H     H_    0.965008 0.648940 0.610729 0.269738
H94   H     H_    0.022423 0.678802 0.639302 0.252376
H95   H     H_    0.024891 0.699627 0.594748 0.263465
H96   H     H_    0.104174 0.614950 0.611227 0.211377
H97   H     H_    0.054800 0.600876 0.576360 0.220824
C171  C     C_3   0.605422 0.944788 0.604600 -0.392759
C172  C     C_3   0.661440 0.985425 0.612939 -0.911298
H98   H     H_    0.648940 0.034993 0.610729 0.269738
H99   H     H_    0.678802 0.977577 0.639302 0.252376
H100  H     H_    0.699627 0.975109 0.594748 0.263465
H101  H     H_    0.614950 0.895826 0.611227 0.211378
H102  H     H_    0.600876 0.945199 0.576360 0.220825
C173  C     C_3   0.944788 0.394578 0.604600 -0.392758
C174  C     C_3   0.985425 0.338560 0.612939 -0.911298
H103  H     H_    0.034993 0.351060 0.610729 0.269738
H104  H     H_    0.977577 0.321198 0.639302 0.252376
H105  H     H_    0.975109 0.300373 0.594748 0.263465
H106  H     H_    0.895826 0.385050 0.611227 0.211378
H107  H     H_    0.945200 0.399124 0.576360 0.220825
C175  C     C_3   0.394578 0.055212 0.604600 -0.392758
C176  C     C_3   0.338560 0.014574 0.612939 -0.911298
H108  H     H_    0.351060 0.965007 0.610729 0.269738
H109  H     H_    0.321198 0.022423 0.639302 0.252376
H110  H     H_    0.300373 0.024891 0.594748 0.263465
H111  H     H_    0.385050 0.104174 0.611227 0.211378
H112  H     H_    0.399124 0.054800 0.576360 0.220824
C177  C     C_3   0.586534 0.919792 0.821571 -0.396879
C178  C     C_3   0.649160 0.952097 0.823421 -0.886321
H113  H     H_    0.646344 0.998771 0.811668 0.259776
H114  H     H_    0.664407 0.956733 0.850524 0.257650
H115  H     H_    0.684151 0.924592 0.809211 0.249189
H116  H     H_    0.591758 0.872357 0.831579 0.209860
H117  H     H_    0.574399 0.912998 0.794180 0.213645
C179  C     C_3   0.080208 0.586534 0.821571 -0.396878
C180  C     C_3   0.047903 0.649160 0.823421 -0.886323
H118  H     H_    0.001229 0.646344 0.811668 0.259776
H119  H     H_    0.043267 0.664407 0.850524 0.257651
H120  H     H_    0.075408 0.684151 0.809211 0.249189
H121  H     H_    0.127643 0.591758 0.831579 0.209860
H122  H     H_    0.087002 0.574399 0.794180 0.213645
C181  C     C_3   0.413466 0.080208 0.821571 -0.396880
C182  C     C_3   0.350840 0.047903 0.823421 -0.886322
H123  H     H_    0.353656 0.001229 0.811668 0.259776
H124  H     H_    0.335593 0.043267 0.850524 0.257651
H125  H     H_    0.315849 0.075408 0.809211 0.249189
H126  H     H_    0.408242 0.127643 0.831579 0.209860
H127  H     H_    0.425601 0.087002 0.794180 0.213646
C183  C     C_3   0.919792 0.413466 0.821571 -0.396879
C184  C     C_3   0.952097 0.350840 0.823421 -0.886323
H128  H     H_    0.998771 0.353656 0.811668 0.259776
H129  H     H_    0.956733 0.335593 0.850524 0.257651
H130  H     H_    0.924592 0.315849 0.809211 0.249189
H131  H     H_    0.872356 0.408242 0.831579 0.209860
H132  H     H_    0.912998 0.425601 0.794180 0.213645
C185  C     C_3   0.586534 0.080208 0.178429 -0.396878
C186  C     C_3   0.649160 0.047903 0.176579 -0.886322
H133  H     H_    0.646344 0.001229 0.188332 0.259776
H134  H     H_    0.664407 0.043267 0.149476 0.257650
H135  H     H_    0.684151 0.075408 0.190788 0.249189
H136  H     H_    0.591758 0.127643 0.168421 0.209860
H137  H     H_    0.574399 0.087002 0.205819 0.213645
C187  C     C_3   0.080208 0.413466 0.178429 -0.396879
C188  C     C_3   0.047903 0.350840 0.176579 -0.886323
H138  H     H_    0.001229 0.353656 0.188332 0.259776
H139  H     H_    0.043267 0.335593 0.149476 0.257651
H140  H     H_    0.075408 0.315849 0.190788 0.249189
H141  H     H_    0.127643 0.408242 0.168421 0.209860
H142  H     H_    0.087002 0.425601 0.205819 0.213645
C189  C     C_3   0.413466 0.919792 0.178429 -0.396878
C190  C     C_3   0.350840 0.952097 0.176579 -0.886323
H143  H     H_    0.353656 0.998771 0.188332 0.259776
H144  H     H_    0.335593 0.956733 0.149476 0.257651
H145  H     H_    0.315849 0.924592 0.190788 0.249189
H146  H     H_    0.408242 0.872357 0.168421 0.209860
H147  H     H_    0.425601 0.912998 0.205819 0.213645
C191  C     C_3   0.919792 0.586534 0.178429 -0.396879
C192  C     C_3   0.952097 0.649160 0.176579 -0.886322
H148  H     H_    0.998771 0.646344 0.188332 0.259776
H149  H     H_    0.956733 0.664407 0.149475 0.257650
H150  H     H_    0.924592 0.684151 0.190788 0.249189
H151  H     H_    0.872356 0.591758 0.168421 0.209860
H152  H     H_    0.912998 0.574399 0.205819 0.213645
C193  C     C_3   0.086534 0.419792 0.321571 -0.396879
C194  C     C_3   0.149160 0.452097 0.323421 -0.886321
H153  H     H_    0.146344 0.498771 0.311668 0.259776
H154  H     H_    0.164407 0.456733 0.350525 0.257650
H155  H     H_    0.184151 0.424592 0.309211 0.249189
H156  H     H_    0.091758 0.372356 0.331579 0.209860
H157  H     H_    0.074399 0.412997 0.294181 0.213645
C195  C     C_3   0.580208 0.086534 0.321571 -0.396878
C196  C     C_3   0.547903 0.149160 0.323421 -0.886323
H158  H     H_    0.501229 0.146344 0.311668 0.259776
H159  H     H_    0.543267 0.164407 0.350524 0.257651
H160  H     H_    0.575408 0.184151 0.309211 0.249189
H161  H     H_    0.627643 0.091758 0.331579 0.209860
H162  H     H_    0.587003 0.074399 0.294181 0.213645
C197  C     C_3   0.913466 0.580208 0.321571 -0.396880
C198  C     C_3   0.850840 0.547903 0.323421 -0.886322
H163  H     H_    0.853656 0.501229 0.311668 0.259776
H164  H     H_    0.835593 0.543267 0.350524 0.257651
H165  H     H_    0.815849 0.575408 0.309211 0.249189
H166  H     H_    0.908242 0.627643 0.331579 0.209860
H167  H     H_    0.925601 0.587002 0.294181 0.213646
C199  C     C_3   0.419792 0.913466 0.321571 -0.396879
C200  C     C_3   0.452097 0.850840 0.323421 -0.886323
H168  H     H_    0.498771 0.853656 0.311668 0.259776
H169  H     H_    0.456733 0.835593 0.350524 0.257651
H170  H     H_    0.424592 0.815849 0.309211 0.249189
H171  H     H_    0.372357 0.908242 0.331579 0.209860
H172  H     H_    0.412998 0.925601 0.294180 0.213645
C201  C     C_3   0.086534 0.580208 0.678429 -0.396878
C202  C     C_3   0.149160 0.547903 0.676579 -0.886322
H173  H     H_    0.146344 0.501229 0.688332 0.259776
H174  H     H_    0.164407 0.543267 0.649475 0.257650
H175  H     H_    0.184151 0.575408 0.690788 0.249189
H176  H     H_    0.091758 0.627643 0.668421 0.209860
H177  H     H_    0.074399 0.587002 0.705819 0.213645
C203  C     C_3   0.580208 0.913466 0.678429 -0.396879
C204  C     C_3   0.547903 0.850840 0.676579 -0.886323
H178  H     H_    0.501229 0.853656 0.688332 0.259776
H179  H     H_    0.543267 0.835593 0.649475 0.257651
H180  H     H_    0.575408 0.815849 0.690788 0.249189
H181  H     H_    0.627643 0.908242 0.668421 0.209860
H182  H     H_    0.587002 0.925601 0.705820 0.213645
C205  C     C_3   0.913466 0.419792 0.678429 -0.396878
C206  C     C_3   0.850840 0.452097 0.676579 -0.886321
H183  H     H_    0.853656 0.498771 0.688332 0.259775
H184  H     H_    0.835593 0.456733 0.649475 0.257650
H185  H     H_    0.815849 0.424592 0.690788 0.249189
H186  H     H_    0.908242 0.372356 0.668421 0.209860
H187  H     H_    0.925601 0.412998 0.705819 0.213645
C207  C     C_3   0.419792 0.086534 0.678429 -0.396879
C208  C     C_3   0.452097 0.149160 0.676579 -0.886322
H188  H     H_    0.498771 0.146344 0.688332 0.259776
H189  H     H_    0.456733 0.164407 0.649475 0.257650
H190  H     H_    0.424592 0.184151 0.690788 0.249189
H191  H     H_    0.372357 0.091758 0.668421 0.209860
H192  H     H_    0.412998 0.074399 0.705819 0.213645
C209  C     C_3   0.685358 0.907319 0.457976 -0.355567
C210  C     C_3   0.723514 0.874887 0.430162 -0.940200
H193  H     H_    0.747375 0.909291 0.413651 0.271024
H194  H     H_    0.757801 0.843057 0.441911 0.261391
H195  H     H_    0.692344 0.846832 0.413707 0.256676
H196  H     H_    0.666567 0.871240 0.475390 0.224757
H197  H     H_    0.645894 0.929688 0.444719 0.221263
C211  C     C_3   0.092681 0.685358 0.457976 -0.355568
C212  C     C_3   0.125113 0.723514 0.430162 -0.940200
H198  H     H_    0.090709 0.747375 0.413651 0.271024
H199  H     H_    0.156943 0.757801 0.441911 0.261391
H200  H     H_    0.153168 0.692344 0.413707 0.256676
H201  H     H_    0.128760 0.666567 0.475390 0.224757
H202  H     H_    0.070312 0.645894 0.444719 0.221264
C213  C     C_3   0.314642 0.092681 0.457976 -0.355566
C214  C     C_3   0.276486 0.125113 0.430162 -0.940201
H203  H     H_    0.252625 0.090709 0.413651 0.271025
H204  H     H_    0.242199 0.156943 0.441911 0.261391
H205  H     H_    0.307656 0.153168 0.413707 0.256676
H206  H     H_    0.333433 0.128760 0.475390 0.224757
H207  H     H_    0.354106 0.070312 0.444719 0.221264
C215  C     C_3   0.907319 0.314642 0.457976 -0.355566
C216  C     C_3   0.874887 0.276486 0.430162 -0.940200
H208  H     H_    0.909291 0.252625 0.413651 0.271024
H209  H     H_    0.843057 0.242199 0.441911 0.261391
H210  H     H_    0.846832 0.307656 0.413707 0.256676
H211  H     H_    0.871240 0.333433 0.475390 0.224757
H212  H     H_    0.929688 0.354106 0.444719 0.221264
C217  C     C_3   0.685358 0.092681 0.542024 -0.355566
C218  C     C_3   0.723514 0.125113 0.569837 -0.940201
H213  H     H_    0.747375 0.090709 0.586349 0.271025
H214  H     H_    0.757801 0.156943 0.558089 0.261391
H215  H     H_    0.692344 0.153168 0.586293 0.256676
H216  H     H_    0.666567 0.128760 0.524610 0.224757
H217  H     H_    0.645894 0.070312 0.555281 0.221263
C219  C     C_3   0.092681 0.314642 0.542024 -0.355567
C220  C     C_3   0.125113 0.276486 0.569837 -0.940201
H218  H     H_    0.090709 0.252625 0.586349 0.271024
H219  H     H_    0.156943 0.242199 0.558089 0.261391
H220  H     H_    0.153168 0.307656 0.586293 0.256676
H221  H     H_    0.128760 0.333433 0.524610 0.224757
H222  H     H_    0.070312 0.354106 0.555281 0.221264
C221  C     C_3   0.314642 0.907319 0.542024 -0.355567
C222  C     C_3   0.276486 0.874887 0.569837 -0.940200
H223  H     H_    0.252625 0.909291 0.586349 0.271024
H224  H     H_    0.242199 0.843057 0.558089 0.261391
H225  H     H_    0.307656 0.846832 0.586293 0.256676
H226  H     H_    0.333433 0.871240 0.524610 0.224757
H227  H     H_    0.354106 0.929688 0.555281 0.221263
C223  C     C_3   0.907319 0.685358 0.542024 -0.355567
C224  C     C_3   0.874887 0.723514 0.569837 -0.940201
H228  H     H_    0.909291 0.747375 0.586349 0.271024
H229  H     H_    0.843057 0.757801 0.558089 0.261391
H230  H     H_    0.846832 0.692344 0.586293 0.256676
H231  H     H_    0.871240 0.666567 0.524610 0.224757
H232  H     H_    0.929688 0.645894 0.555281 0.221263
C225  C     C_3   0.185358 0.407319 0.957976 -0.355566
C226  C     C_3   0.223514 0.374887 0.930162 -0.940200
H233  H     H_    0.247375 0.409291 0.913651 0.271024
H234  H     H_    0.257801 0.343057 0.941911 0.261391
H235  H     H_    0.192344 0.346832 0.913707 0.256676
H236  H     H_    0.166567 0.371240 0.975390 0.224757
H237  H     H_    0.145894 0.429688 0.944719 0.221263
C227  C     C_3   0.592681 0.185358 0.957976 -0.355568
C228  C     C_3   0.625113 0.223514 0.930162 -0.940200
H238  H     H_    0.590709 0.247375 0.913651 0.271024
H239  H     H_    0.656943 0.257801 0.941911 0.261391
H240  H     H_    0.653168 0.192344 0.913707 0.256676
H241  H     H_    0.628760 0.166567 0.975390 0.224757
H242  H     H_    0.570312 0.145894 0.944719 0.221264
C229  C     C_3   0.814642 0.592681 0.957976 -0.355567
C230  C     C_3   0.776486 0.625113 0.930162 -0.940201
H243  H     H_    0.752625 0.590709 0.913651 0.271025
H244  H     H_    0.742199 0.656943 0.941911 0.261391
H245  H     H_    0.807656 0.653168 0.913707 0.256676
H246  H     H_    0.833433 0.628760 0.975390 0.224757
H247  H     H_    0.854106 0.570312 0.944719 0.221264
C231  C     C_3   0.407319 0.814642 0.957976 -0.355566
C232  C     C_3   0.374887 0.776486 0.930162 -0.940200
H248  H     H_    0.409291 0.752625 0.913651 0.271024
H249  H     H_    0.343057 0.742199 0.941911 0.261391
H250  H     H_    0.346832 0.807656 0.913707 0.256676
H251  H     H_    0.371240 0.833433 0.975390 0.224757
H252  H     H_    0.429688 0.854106 0.944719 0.221264
C233  C     C_3   0.185358 0.592681 0.042024 -0.355566
C234  C     C_3   0.223514 0.625113 0.069837 -0.940201
H253  H     H_    0.247375 0.590709 0.086349 0.271025
H254  H     H_    0.257801 0.656943 0.058089 0.261391
H255  H     H_    0.192344 0.653168 0.086293 0.256676
H256  H     H_    0.166567 0.628760 0.024610 0.224757
H257  H     H_    0.145894 0.570312 0.055281 0.221263
C235  C     C_3   0.592681 0.814642 0.042024 -0.355567
C236  C     C_3   0.625113 0.776486 0.069837 -0.940201
H258  H     H_    0.590709 0.752625 0.086349 0.271024
H259  H     H_    0.656943 0.742199 0.058089 0.261391
H260  H     H_    0.653168 0.807656 0.086293 0.256676
H261  H     H_    0.628760 0.833433 0.024610 0.224757
H262  H     H_    0.570312 0.854106 0.055281 0.221264
C237  C     C_3   0.814642 0.407319 0.042024 -0.355567
C238  C     C_3   0.776486 0.374887 0.069837 -0.940200
H263  H     H_    0.752625 0.409291 0.086349 0.271024
H264  H     H_    0.742199 0.343057 0.058089 0.261391
H265  H     H_    0.807656 0.346832 0.086293 0.256676
H266  H     H_    0.833433 0.371240 0.024610 0.224757
H267  H     H_    0.854106 0.429688 0.055281 0.221263
C239  C     C_3   0.407319 0.185358 0.042024 -0.355567
C240  C     C_3   0.374887 0.223514 0.069837 -0.940201
H268  H     H_    0.409291 0.247375 0.086349 0.271024
H269  H     H_    0.343057 0.257801 0.058089 0.261391
H270  H     H_    0.346832 0.192344 0.086293 0.256676
H271  H     H_    0.371240 0.166567 0.024610 0.224757
H272  H     H_    0.429688 0.145894 0.055281 0.221263

loop_
_geom_bond_atom_site_label_1
_geom_bond_atom_site_label_2
_ccdc_geom_bond_type
C170  H94   S    
C200  H168  S    
O20   Zn4   S    
C180  H118  S    
C82   C94   A    
C5    C37   S    
C234  H255  S    
C236  H258  S    
C229  C230  S    
C240  H268  S    
C236  H259  S    
C214  H204  S    
C133  C217  S    
C212  H198  S    
C222  H223  S    
C235  H262  S    
O46   Zn12  S    
C159  H71   S    
C198  H163  S    
C225  H237  S    
C60   C98   A    
C175  H111  S    
C210  H194  S    
C212  H200  S    
C170  H95   S    
C163  H82   S    
C215  H211  S    
C83   C93   A    
C156  H60   S    
O40   Zn10  S    
C147  C148  S    
C32   C45   S    
C60   C151  S    
C51   O21   A    
C72   C88   A    
C8    O14   A    
C155  C156  S    
C227  H241  S    
C160  H69   S    
C43   O35   A    
C177  H117  S    
C166  H85   S    
C237  H267  S    
O11   Zn7   S    
C2    C34   S    
C71   C87   A    
C50   C103  S    
C10   H18   S    
C148  H38   S    
C219  H222  S    
C23   C143  A    
C138  C227  S    
C11   C27   A    
C18   H26   S    
C146  H34   S    
C52   C101  S    
C191  H152  S    
C190  H144  S    
C1    O5    A    
C175  C176  S    
O31   Zn5   S    
C204  H180  S    
C49   O19   A    
C152  H49   S    
C167  C168  S    
C169  H97   S    
C21   C29   A    
C106  C127  A    
C60   C76   A    
C53   O25   A    
O14   Zn6   S    
C137  C225  S    
C80   C92   A    
C153  H56   S    
C171  H101  S    
C66   C82   A    
C15   C27   A    
C223  H232  S    
C57   C97   A    
C38   C138  A    
C213  H207  S    
C58   C147  S    
C112  C125  A    
C237  H266  S    
C63   C79   A    
O32   Zn8   S    
C145  H36   S    
C95   C122  S    
C238  H263  S    
C20   H28   S    
C180  H120  S    
C21   H29   S    
C31   C48   S    
O45   Zn12  S    
C236  H260  S    
C194  H154  S    
C105  C118  A    
C118  H14   S    
C52   O22   A    
C218  H213  S    
O8    Zn4   S    
C24   H32   S    
C107  C120  A    
C163  C164  S    
C131  C213  S    
C164  H80   S    
C88   C207  S    
C192  H149  S    
C77   C91   A    
C155  H62   S    
C12   C132  A    
C44   O40   A    
C13   C133  A    
C198  H165  S    
C151  H52   S    
C174  H103  S    
C110  H6    S    
C76   C183  S    
C226  H233  S    
O10   Zn6   S    
C73   C89   A    
C6    O10   A    
C233  H256  S    
C46   O46   A    
O19   Zn3   S    
C206  H183  S    
C74   C90   A    
O17   Zn1   S    
C185  H136  S    
C201  H177  S    
C193  C194  S    
C139  C229  S    
C149  H46   S    
C162  H73   S    
C113  C124  A    
C211  H202  S    
C40   C140  A    
C55   C98   S    
C66   C163  S    
C193  H157  S    
C178  H113  S    
C197  H167  S    
C116  H12   S    
C5    O13   A    
C173  C174  S    
C216  H210  S    
C230  H243  S    
C19   C139  A    
C169  C170  S    
C148  H40   S    
C207  H191  S    
C208  H189  S    
C7    C39   S    
C203  H181  S    
C17   C137  A    
C8    C40   S    
C186  H133  S    
C114  H10   S    
C57   C145  S    
O22   Zn2   S    
C150  H43   S    
C188  H139  S    
C163  H81   S    
C231  H252  S    
C177  C178  S    
C116  C123  A    
C129  C209  S    
C181  H126  S    
C197  C198  S    
C58   C98   A    
C65   C101  A    
C92   C125  S    
O41   Zn11  S    
C226  H235  S    
C183  C184  S    
C90   C127  S    
C67   C165  S    
C209  C210  S    
O5    Zn3   S    
C51   C102  S    
C200  H169  S    
C179  H121  S    
C53   O27   A    
C22   C32   A    
C96   C121  S    
C135  C221  S    
C7    O11   A    
C195  C196  S    
O42   Zn11  S    
C187  H142  S    
C36   C132  A    
C41   O39   A    
C192  H148  S    
C182  H123  S    
C87   C205  S    
C165  H86   S    
O34   Zn9   S    
C57   C73   A    
C161  H76   S    
C83   C197  S    
C181  H127  S    
C63   C99   A    
C27   C44   S    
C238  H265  S    
C61   C77   A    
C87   C95   A    
C72   C175  S    
C6    C38   S    
C207  C208  S    
C52   O24   A    
C14   H22   S    
C79   C189  S    
C79   C91   A    
C222  H225  S    
C69   C169  S    
C47   O45   A    
C224  H230  S    
C195  H162  S    
C145  C146  S    
C232  H250  S    
C172  H99   S    
C15   H23   S    
C50   O20   A    
C56   C97   S    
C174  H105  S    
C232  H249  S    
C166  H84   S    
C233  C234  S    
C239  H271  S    
C69   C103  A    
C147  H41   S    
C206  H185  S    
O43   Zn11  S    
C158  H63   S    
C35   C135  A    
C70   C171  S    
C48   O48   A    
C78   C92   A    
O35   Zn9   S    
C220  H219  S    
C117  C122  A    
C75   C181  S    
C161  C162  S    
C216  H208  S    
C230  H245  S    
C3    C35   S    
O15   Zn5   S    
C184  H130  S    
C22   C142  A    
C11   H19   S    
C9    H17   S    
C154  H54   S    
C109  C114  A    
C150  H45   S    
C114  C123  A    
C221  H227  S    
C136  C223  S    
C176  H109  S    
C59   C149  S    
C54   C99   S    
O29   Zn7   S    
C224  H228  S    
C16   C136  A    
C173  H107  S    
C69   C85   A    
C120  C121  A    
C58   C74   A    
C120  H16   S    
C20   C32   A    
C167  H91   S    
C71   C103  A    
C239  C240  S    
C168  H90   S    
C62   C78   A    
C205  H187  S    
C171  C172  S    
C154  H55   S    
C36   C134  A    
C221  C222  S    
C55   O31   A    
C182  H125  S    
C159  H72   S    
C49   C104  S    
C82   C195  S    
C198  H164  S    
C151  C152  S    
C225  H236  S    
C175  H112  S    
C187  H141  S    
C85   C95   A    
C210  H195  S    
C63   C157  S    
C215  H212  S    
C156  H59   S    
O3    Zn3   S    
O47   Zn12  S    
C75   C89   A    
O1    Zn1   S    
C109  C126  A    
C168  H88   S    
C56   O30   A    
C211  C212  S    
C196  H159  S    
C228  H240  S    
C227  H242  S    
C232  H248  S    
C2    O2    A    
C108  H4    S    
C3    O7    A    
C177  H116  S    
C43   O37   A    
C88   C96   A    
C196  H158  S    
C46   O42   A    
C17   C29   A    
O44   Zn11  S    
C158  H65   S    
C5    O9    A    
C19   C31   A    
C202  H173  S    
C9    C25   A    
C149  C150  S    
C221  H226  S    
C8    O12   A    
C67   C83   A    
C146  H35   S    
C67   C101  A    
C231  C232  S    
C37   C141  A    
C12   C28   A    
C157  H67   S    
C68   C102  A    
C40   C142  A    
C173  H106  S    
C70   C104  A    
C204  H179  S    
C23   H31   S    
C199  C200  S    
C209  H197  S    
C184  H128  S    
C28   C41   S    
C203  C204  S    
C234  H253  S    
O24   Zn4   S    
C18   C138  A    
C66   C102  A    
C205  H186  S    
C171  H102  S    
C213  H206  S    
C134  C219  S    
C140  C231  S    
C181  C182  S    
C112  H8    S    
C111  C116  A    
C165  H87   S    
C183  H131  S    
C42   O34   A    
C225  C226  S    
C94   C123  S    
C238  H264  S    
C170  H93   S    
C189  H147  S    
C208  H188  S    
C180  H119  S    
C64   C80   A    
C108  C119  A    
C7    O15   A    
O38   Zn10  S    
O39   Zn10  S    
C218  H214  S    
C4    O4    A    
C214  H203  S    
C222  H224  S    
C164  H79   S    
C53   C100  S    
C16   C26   A    
C235  H261  S    
C55   O29   A    
C39   C139  A    
C145  H37   S    
C165  C166  S    
C45   O47   A    
C162  H75   S    
C174  H104  S    
C210  H193  S    
O6    Zn2   S    
C226  H234  S    
C72   C104  A    
C178  H115  S    
O4    Zn4   S    
C205  C206  S    
C11   C131  A    
C218  H215  S    
C68   C84   A    
C10   C130  A    
C12   H20   S    
C107  H3    S    
C13   H21   S    
C160  H68   S    
C56   O32   A    
C73   C177  S    
C105  H1    S    
C111  C126  A    
C160  H70   S    
C84   C94   A    
C157  H66   S    
C178  H114  S    
C86   C96   A    
C62   C100  A    
C85   C201  S    
C216  H209  S    
C230  H244  S    
C196  H160  S    
C84   C199  S    
C148  H39   S    
C106  C117  A    
C207  H192  S    
C219  H221  S    
C203  H182  S    
C142  C235  S    
O37   Zn10  S    
C35   C131  A    
C150  H44   S    
C188  H138  S    
C48   O44   A    
C33   C129  A    
O16   Zn8   S    
C146  H33   S    
C115  C124  A    
C38   C144  A    
C191  H151  S    
C119  H15   S    
C164  H78   S    
C158  H64   S    
C190  H143  S    
C25   C42   S    
O9    Zn5   S    
C179  H122  S    
C29   C46   S    
O18   Zn2   S    
C186  H135  S    
C229  H246  S    
C217  H217  S    
C157  C158  S    
C21   C141  A    
C149  H47   S    
O27   Zn7   S    
C50   O18   A    
C223  H231  S    
C24   C144  A    
C54   O28   A    
C182  H124  S    
C64   C100  A    
C215  C216  S    
C6    O16   A    
C194  H153  S    
C74   C179  S    
C4    O6    A    
O12   Zn8   S    
C214  H205  S    
C201  H176  S    
C23   C31   A    
C89   C128  S    
C192  H150  S    
C162  H74   S    
C176  H108  S    
C224  H229  S    
O28   Zn8   S    
C155  H61   S    
C91   C126  S    
C132  C215  S    
O30   Zn6   S    
C45   O41   A    
C172  H98   S    
C240  H270  S    
C151  H51   S    
C93   C124  S    
C217  H216  S    
C152  H50   S    
C187  C188  S    
O36   Zn9   S    
C1    C33   S    
C189  C190  S    
C239  H272  S    
C233  H257  S    
C147  H42   S    
O13   Zn7   S    
C19   H27   S    
C107  C128  A    
C185  H137  S    
C80   C191  S    
C193  H156  S    
C159  C160  S    
C17   H25   S    
C15   C135  A    
C211  H201  S    
C220  H218  S    
C3    O3    A    
C179  C180  S    
C130  C211  S    
C184  H129  S    
C194  H155  S    
C208  H190  S    
C141  C233  S    
C18   C30   A    
C34   C136  A    
C153  C154  S    
O26   Zn6   S    
C188  H140  S    
C41   O33   A    
C10   C26   A    
C231  H251  S    
C37   C137  A    
C13   C25   A    
C61   C99   A    
C1    O1    A    
C190  H145  S    
C81   C193  S    
C22   H30   S    
C26   C43   S    
O33   Zn9   S    
C199  H171  S    
C167  H92   S    
C189  H146  S    
C200  H170  S    
C168  H89   S    
C77   C185  S    
C117  H13   S    
C30   C47   S    
C4    C36   S    
C213  C214  S    
C2    O8    A    
C14   C134  A    
C54   O26   A    
C47   O43   A    
C44   O36   A    
C118  C121  A    
C161  H77   S    
C109  H5    S    
C223  C224  S    
C42   O38   A    
C65   C161  S    
C81   C93   A    
C153  H57   S    
C237  C238  S    
C78   C187  S    
C71   C173  S    
C156  H58   S    
C68   C167  S    
O23   Zn1   S    
C110  C113  A    
C61   C153  S    
C185  C186  S    
C51   O23   A    
O21   Zn3   S    
C235  C236  S    
C39   C143  A    
C195  H161  S    
C228  H239  S    
C59   C97   A    
C172  H100  S    
C144  C239  S    
C152  H48   S    
C70   C86   A    
C59   C75   A    
C20   C140  A    
C166  H83   S    
C76   C90   A    
C217  C218  S    
C119  C122  A    
C64   C159  S    
C105  C128  A    
C115  H11   S    
C191  C192  S    
C113  H9    S    
C111  H7    S    
C202  H174  S    
C9    C129  A    
C106  H2    S    
C143  C237  S    
C220  H220  S    
C212  H199  S    
C240  H269  S    
C197  H166  S    
C86   C203  S    
C204  H178  S    
C49   O17   A    
C209  H196  S    
C16   H24   S    
O25   Zn5   S    
C219  C220  S    
C169  H96   S    
C234  H254  S    
C108  C127  A    
C229  H247  S    
C24   C30   A    
O2    Zn2   S    
C202  H175  S    
C206  H184  S    
C154  H53   S    
O48   Zn12  S    
C110  C125  A    
C33   C133  A    
C227  C228  S    
C34   C130  A    
C201  C202  S    
C176  H110  S    
C65   C81   A    
C199  H172  S    
C14   C28   A    
C228  H238  S    
C186  H134  S    
C112  C115  A    
C183  H132  S    
C62   C155  S    
O7    Zn1   S    
