data_mof_unit_43118.cif
_audit_creation_date              2012-12-10T18:23:58-0500
_audit_creation_method            fapswitch 2.2
_symmetry_space_group_name_H-M    P1
_symmetry_Int_Tables_number       1
_space_group_crystal_system       triclinic
_cell_length_a                    22.507403
_cell_length_b                    22.369743
_cell_length_c                    14.629867
_cell_angle_alpha                 90.046299
_cell_angle_beta                  89.904907
_cell_angle_gamma                 90.003328
_cell_volume                      7365.90340181

loop_
_atom_site_label
_atom_site_type_symbol
_atom_type_description
_atom_site_fract_x
_atom_site_fract_y
_atom_site_fract_z
_atom_type_partial_charge
C1    C     C_R   0.419839 0.919624 0.499999 0.822515
C2    C     C_1   0.662529 0.837028 0.499869 -0.078574
C3    C     C_3   0.288514 0.355021 0.595501 -0.402817
C4    C     C_3   0.351378 0.350060 0.634699 -0.347702
C5    C     C_3   0.371739 0.409614 0.674715 -0.854884
C6    C     C_3   0.285952 0.647634 0.604220 -0.402959
C7    C     C_3   0.347930 0.653513 0.646346 -0.348923
C8    C     C_3   0.366640 0.595432 0.692707 -0.852276
C9    C     C_3   0.714012 0.352384 0.395844 -0.402963
C10   C     C_3   0.652041 0.346490 0.353700 -0.348940
C11   C     C_3   0.633270 0.404603 0.307497 -0.852314
C12   C     C_3   0.725424 0.790208 0.317844 -0.399546
C13   C     C_1   0.662438 0.163074 0.500059 -0.078438
C14   C     C_3   0.763163 0.759655 0.244123 -0.349193
C15   C     C_3   0.750830 0.786457 0.150131 -0.852993
C16   C     C_3   0.274774 0.210046 0.682223 -0.399549
C17   C     C_3   0.237067 0.240669 0.755917 -0.349150
C18   C     C_3   0.249543 0.214051 0.849981 -0.853134
C19   C     C_3   0.270521 0.794904 0.680955 -0.401643
C20   C     C_3   0.231287 0.766111 0.754416 -0.343348
C21   C     C_3   0.241208 0.795602 0.847263 -0.857903
C22   C     C_3   0.729451 0.205133 0.319034 -0.401654
C23   C     C_3   0.768693 0.233925 0.245583 -0.343319
C24   C     C_1   0.337566 0.836923 0.499941 -0.078442
C25   C     C_3   0.758722 0.204487 0.152709 -0.857882
C26   C     C_3   0.225292 0.289964 0.317650 -0.401655
C27   C     C_3   0.263045 0.259328 0.244020 -0.342626
C28   C     C_3   0.250825 0.286086 0.149971 -0.858762
C29   C     C_3   0.774506 0.709785 0.682288 -0.401636
C30   C     C_3   0.736734 0.740370 0.755944 -0.342634
C31   C     C_3   0.748777 0.713404 0.849915 -0.858638
C32   C     C_3   0.770532 0.295105 0.680810 -0.399669
C33   C     C_3   0.731351 0.266450 0.754450 -0.349712
C34   C     C_3   0.741466 0.296052 0.847171 -0.851822
C35   C     C_1   0.837458 0.662961 0.500197 -0.078393
C36   C     C_3   0.229490 0.704866 0.319202 -0.399667
C37   C     C_3   0.268669 0.733516 0.245556 -0.349694
C38   C     C_3   0.258594 0.703869 0.152856 -0.851775
C39   C     C_3   0.429297 0.141476 0.998790 0.088487
C40   C     C_3   0.388913 0.189126 0.039454 -0.844132
C41   C     C_3   0.570724 0.858521 0.001254 0.088539
C42   C     C_3   0.611128 0.810875 0.960627 -0.844300
C43   C     C_3   0.586502 0.132295 0.001890 0.085959
C44   C     C_3   0.608374 0.190849 0.961190 -0.841425
C45   C     C_3   0.413513 0.867694 0.998104 0.085939
C46   C     C_1   0.162544 0.337041 0.499787 -0.078394
C47   C     C_3   0.391608 0.809155 0.038809 -0.841439
C48   C     C_3   0.917501 0.634893 0.999123 0.085128
C49   C     C_3   0.897590 0.694050 0.040306 -0.838828
C50   C     C_3   0.082479 0.365103 0.000849 0.085129
C51   C     C_3   0.102334 0.305931 0.959651 -0.838676
C52   C     C_3   0.074912 0.639248 0.002254 0.089467
C53   C     C_3   0.116533 0.685932 0.962012 -0.847247
C54   C     C_3   0.925075 0.360756 0.997753 0.089487
C55   C     C_3   0.883454 0.314073 0.037999 -0.847230
C56   C     C_1   0.162513 0.662983 0.500110 -0.078705
C57   C     C_1   0.837480 0.337024 0.499891 -0.078705
C58   C     C_1   0.500049 0.999967 0.194326 0.320050
C59   C     C_1   0.499957 0.000028 0.805674 0.320037
C60   C     C_1   0.000049 0.499950 0.194326 0.320026
C61   C     C_R   0.580162 0.080375 0.500001 0.822513
C62   C     C_1   0.999945 0.500053 0.805674 0.320035
C63   C     C_3   0.529935 0.048165 0.969877 0.257346
C64   C     C_3   0.470078 0.951824 0.030125 0.257325
C65   C     C_3   0.473571 0.050152 0.030360 0.257570
C66   C     C_3   0.526443 0.949836 0.969643 0.257553
C67   C     C_3   0.027936 0.549384 0.969919 0.257386
C68   C     C_3   0.972051 0.450622 0.030079 0.257402
C69   C     C_3   0.971541 0.549012 0.030411 0.257376
C70   C     C_3   0.028445 0.450994 0.969587 0.257372
C71   C     C_3   0.699983 0.727840 0.538901 -0.244695
C72   C     C_R   0.580179 0.919643 0.499953 0.822482
C73   C     C_3   0.299975 0.272110 0.460900 -0.244681
C74   C     C_3   0.300877 0.726747 0.465233 -0.244851
C75   C     C_3   0.699124 0.273244 0.534797 -0.244856
C76   C     C_3   0.200046 0.227906 0.539001 -0.244579
C77   C     C_3   0.799999 0.772148 0.461199 -0.244572
C78   C     C_3   0.800766 0.226892 0.465148 -0.244823
C79   C     C_3   0.199228 0.773121 0.534823 -0.244823
C80   C     C_3   0.230887 0.202535 0.452531 0.111845
C81   C     C_3   0.769062 0.797405 0.547666 0.111871
C82   C     C_3   0.767846 0.203929 0.551321 0.111899
C83   C     C_R   0.419822 0.080357 0.500048 0.822483
C84   C     C_3   0.232165 0.796066 0.448654 0.111909
C85   C     C_3   0.730920 0.702582 0.452438 0.111777
C86   C     C_3   0.269135 0.297482 0.547367 0.111763
C87   C     C_3   0.267938 0.703797 0.551401 0.112033
C88   C     C_3   0.732047 0.296213 0.448626 0.112023
C89   C     C_1   0.375168 0.125239 0.500147 -0.174994
C90   C     C_1   0.624832 0.874761 0.499860 -0.174997
C91   C     C_1   0.624771 0.125306 0.500015 -0.174961
C92   C     C_1   0.375232 0.874691 0.499985 -0.174963
C93   C     C_1   0.875160 0.625232 0.500163 -0.174877
C94   C     C_R   0.919830 0.419637 0.499997 0.822542
C95   C     C_1   0.124841 0.374769 0.499830 -0.174875
C96   C     C_1   0.124812 0.625254 0.500035 -0.175062
C97   C     C_1   0.875183 0.374751 0.499966 -0.175060
C98   C     C_3   0.261254 0.233856 0.586391 0.109989
C99   C     C_3   0.738844 0.766260 0.413630 0.109960
C100  C     C_3   0.740735 0.231566 0.414019 0.109901
C101  C     C_3   0.259250 0.768451 0.585978 0.109882
C102  C     C_3   0.761139 0.733727 0.586475 0.109799
C103  C     C_3   0.238766 0.266162 0.413506 0.109847
C104  C     C_3   0.240853 0.731412 0.414087 0.110018
C105  C     C_R   0.080168 0.580365 0.500004 0.822542
C106  C     C_3   0.759157 0.268577 0.585918 0.110035
C107  C     C_3   0.291440 0.208536 0.500248 0.069282
C108  C     C_3   0.708561 0.791466 0.499772 0.069299
C109  C     C_3   0.708474 0.208637 0.499901 0.069558
C110  C     C_3   0.291528 0.791361 0.500099 0.069560
C111  C     C_3   0.791422 0.708519 0.500332 0.069501
C112  C     C_3   0.208580 0.291483 0.499650 0.069481
C113  C     C_3   0.208578 0.708511 0.499969 0.069394
C114  C     C_3   0.791416 0.291495 0.500033 0.069389
C115  C     C_3   0.556462 0.997952 0.029807 0.258194
C116  C     C_R   0.080180 0.419645 0.499949 0.822487
C117  C     C_3   0.443552 0.002037 0.970195 0.258210
C118  C     C_3   0.056489 0.500288 0.029795 0.258289
C119  C     C_3   0.943498 0.499717 0.970202 0.258291
C120  C     C_3   0.500101 0.999943 0.092015 -0.225969
C121  C     C_3   0.499913 0.000046 0.907986 -0.225983
C122  C     C_3   0.000098 0.499915 0.092014 -0.225992
C123  C     C_3   0.999889 0.500091 0.907985 -0.225972
C124  C     C_3   0.343019 0.009110 0.003451 0.086583
C125  C     C_3   0.281582 0.997686 0.964015 -0.835698
C126  C     C_3   0.656996 0.990879 0.996554 0.086577
C127  C     C_R   0.919820 0.580355 0.500050 0.822485
C128  C     C_3   0.718433 0.002289 0.035994 -0.835704
C129  C     C_3   0.842803 0.495650 0.003471 0.086676
C130  C     C_3   0.781736 0.509061 0.964171 -0.835384
C131  C     C_3   0.157183 0.504350 0.996525 0.086637
C132  C     C_3   0.218264 0.491025 0.035860 -0.835218
C133  C     C_3   0.211517 0.145000 0.404377 -0.403126
C134  C     C_3   0.148638 0.149944 0.365234 -0.347574
C135  C     C_3   0.128319 0.090407 0.325093 -0.854791
C136  C     C_3   0.788369 0.854872 0.596067 -0.403133
C137  C     C_3   0.851234 0.849901 0.635248 -0.347518
C138  C     C_1   0.337472 0.162973 0.500149 -0.078569
C139  C     C_3   0.871406 0.909331 0.675967 -0.854364
C140  C     C_3   0.785868 0.147789 0.604185 -0.402507
C141  C     C_3   0.847876 0.153662 0.646206 -0.349074
C142  C     C_3   0.866596 0.095596 0.692599 -0.852073
C143  C     C_3   0.214164 0.852200 0.395756 -0.402493
C144  C     C_3   0.152151 0.846343 0.353747 -0.349149
C145  C     C_3   0.133485 0.904380 0.307224 -0.852178
C146  C     C_3   0.711603 0.645109 0.404059 -0.402820
C147  C     C_3   0.648762 0.650103 0.364789 -0.347663
C148  C     C_3   0.628522 0.590638 0.324289 -0.854476
Cu1   Cu    Cu3+1 0.500000 0.000000 0.590220 0.991319
Cu2   Cu    Cu3+1 0.500000 0.000000 0.409780 0.991316
Cu3   Cu    Cu3+1 0.000000 0.500000 0.590220 0.991308
Cu4   Cu    Cu3+1 1.000000 0.500000 0.409780 0.991310
H1    H     H_    0.658442 0.710735 0.570453 0.136429
H2    H     H_    0.350522 0.976631 0.059790 0.174538
H3    H     H_    0.229305 0.843755 0.844312 0.253984
H4    H     H_    0.212914 0.773570 0.899534 0.248091
H5    H     H_    0.183702 0.770712 0.735493 0.221044
H6    H     H_    0.241870 0.717870 0.760502 0.221833
H7    H     H_    0.318131 0.789322 0.698672 0.192493
H8    H     H_    0.261026 0.843626 0.677949 0.202749
H9    H     H_    0.770569 0.156317 0.155603 0.253981
H10   H     H_    0.711510 0.209024 0.131920 0.250721
H11   H     H_    0.787033 0.226508 0.100450 0.248093
H12   H     H_    0.758154 0.282180 0.239559 0.221827
H13   H     H_    0.279251 0.951846 0.935006 0.246251
H14   H     H_    0.816279 0.229268 0.264476 0.221024
H15   H     H_    0.738928 0.156407 0.322016 0.202735
H16   H     H_    0.681841 0.210736 0.301326 0.192506
H17   H     H_    0.203205 0.280717 0.132045 0.250298
H18   H     H_    0.262416 0.334355 0.149208 0.254300
H19   H     H_    0.278081 0.262776 0.097637 0.247148
H20   H     H_    0.310999 0.264749 0.260039 0.221504
H21   H     H_    0.252681 0.210892 0.241631 0.221227
H22   H     H_    0.177344 0.283729 0.302799 0.192382
H23   H     H_    0.234620 0.338759 0.317167 0.203033
H24   H     H_    0.247550 0.002122 0.018652 0.203218
H25   H     H_    0.737047 0.665166 0.850439 0.254264
H26   H     H_    0.796394 0.718602 0.867997 0.250324
H27   H     H_    0.721526 0.736696 0.902274 0.247161
H28   H     H_    0.747214 0.788776 0.758581 0.221222
H29   H     H_    0.688787 0.735096 0.739762 0.221505
H30   H     H_    0.765119 0.661000 0.682600 0.203051
H31   H     H_    0.822450 0.715940 0.697255 0.192358
H32   H     H_    0.788710 0.291541 0.867780 0.253121
H33   H     H_    0.729633 0.344221 0.844113 0.255082
H34   H     H_    0.713250 0.274154 0.899665 0.244573
H35   H     H_    0.271908 0.030649 0.909274 0.254125
H36   H     H_    0.683748 0.271110 0.735666 0.221854
H37   H     H_    0.741872 0.218197 0.760617 0.221375
H38   H     H_    0.818156 0.289497 0.698430 0.192421
H39   H     H_    0.761087 0.343835 0.677704 0.202366
H40   H     H_    0.270465 0.655710 0.155962 0.255045
H41   H     H_    0.211348 0.708334 0.132219 0.253129
H42   H     H_    0.286802 0.725771 0.100356 0.244574
H43   H     H_    0.258117 0.781760 0.239337 0.221368
H44   H     H_    0.316272 0.728895 0.264369 0.221855
H45   H     H_    0.238944 0.656138 0.322331 0.202376
H46   H     H_    0.649499 0.023362 0.940219 0.174521
H47   H     H_    0.181866 0.710462 0.301571 0.192412
H48   H     H_    0.404952 0.119043 0.942238 0.174736
H49   H     H_    0.468808 0.164184 0.969745 0.181859
H50   H     H_    0.411971 0.212567 0.096178 0.259553
H51   H     H_    0.377029 0.222347 0.986219 0.200071
H52   H     H_    0.347591 0.168302 0.066141 0.246571
H53   H     H_    0.531214 0.835807 0.030297 0.181861
H54   H     H_    0.595055 0.880969 0.057807 0.174734
H55   H     H_    0.652435 0.831708 0.933898 0.246599
H56   H     H_    0.623044 0.777689 0.013899 0.200081
H57   H     H_    0.656686 0.945135 0.967405 0.182662
H58   H     H_    0.588073 0.787393 0.903940 0.259552
H59   H     H_    0.625303 0.108872 0.031655 0.183905
H60   H     H_    0.554738 0.142894 0.057909 0.173974
H61   H     H_    0.570604 0.215868 0.930959 0.249474
H62   H     H_    0.629047 0.218734 0.015281 0.199401
H63   H     H_    0.641885 0.181781 0.907102 0.256580
H64   H     H_    0.445290 0.857075 0.942109 0.173985
H65   H     H_    0.374730 0.891128 0.968306 0.183915
H66   H     H_    0.358087 0.818243 0.092876 0.256572
H67   H     H_    0.370936 0.781272 0.984713 0.199412
H68   H     H_    0.728100 0.969321 0.090729 0.254130
H69   H     H_    0.429361 0.784123 0.069068 0.249492
H70   H     H_    0.877918 0.612775 0.969394 0.184000
H71   H     H_    0.949495 0.644557 0.943035 0.174060
H72   H     H_    0.936246 0.717885 0.070192 0.248786
H73   H     H_    0.877491 0.722597 0.986590 0.199736
H74   H     H_    0.864104 0.685949 0.094767 0.256632
H75   H     H_    0.050496 0.355463 0.056963 0.174049
H76   H     H_    0.122086 0.387197 0.030546 0.183948
H77   H     H_    0.135817 0.314006 0.905178 0.256617
H78   H     H_    0.122417 0.277363 0.013354 0.199731
H79   H     H_    0.752465 0.997852 0.981359 0.203209
H80   H     H_    0.063654 0.282129 0.929778 0.248738
H81   H     H_    0.098697 0.615959 0.058502 0.174467
H82   H     H_    0.036073 0.662935 0.031657 0.182129
H83   H     H_    0.094032 0.710272 0.905700 0.259704
H84   H     H_    0.129423 0.718558 0.015647 0.199783
H85   H     H_    0.157237 0.664118 0.934872 0.247366
H86   H     H_    0.963917 0.337067 0.968359 0.182112
H87   H     H_    0.901294 0.384040 0.941497 0.174449
H88   H     H_    0.842744 0.335887 0.065120 0.247358
H89   H     H_    0.870575 0.281438 0.984371 0.199769
H90   H     H_    0.720771 0.048127 0.065012 0.246244
H91   H     H_    0.905951 0.289744 0.094326 0.259707
H92   H     H_    0.851311 0.527744 0.060067 0.174522
H93   H     H_    0.341482 0.289174 0.429191 0.136442
H94   H     H_    0.841710 0.449844 0.032249 0.182534
H95   H     H_    0.771044 0.476545 0.909173 0.254308
H96   H     H_    0.747597 0.505547 0.018797 0.203205
H97   H     H_    0.780803 0.555021 0.935530 0.245709
H98   H     H_    0.158234 0.550139 0.967668 0.182556
H99   H     H_    0.148705 0.472205 0.939980 0.174488
H100  H     H_    0.219235 0.445087 0.064596 0.245683
H101  H     H_    0.252401 0.494522 0.981229 0.203187
H102  H     H_    0.228927 0.523602 0.090796 0.254264
H103  H     H_    0.158969 0.075943 0.269741 0.255085
H104  H     H_    0.343073 0.708818 0.436949 0.136342
H105  H     H_    0.127013 0.055599 0.379139 0.249534
H106  H     H_    0.083024 0.095374 0.296117 0.242319
H107  H     H_    0.117036 0.163493 0.419901 0.218494
H108  H     H_    0.147602 0.184133 0.310427 0.220645
H109  H     H_    0.243617 0.134264 0.349069 0.192574
H110  H     H_    0.212957 0.108067 0.455114 0.199345
H111  H     H_    0.872625 0.944374 0.622258 0.249526
H112  H     H_    0.840719 0.923489 0.731472 0.254935
H113  H     H_    0.916712 0.904352 0.704892 0.242264
H114  H     H_    0.852313 0.815494 0.689744 0.220618
H115  H     H_    0.656932 0.291164 0.563104 0.136352
H116  H     H_    0.882891 0.836631 0.580484 0.218379
H117  H     H_    0.786931 0.891895 0.545483 0.199259
H118  H     H_    0.756235 0.865490 0.651380 0.192645
H119  H     H_    0.834705 0.083769 0.747740 0.254522
H120  H     H_    0.868433 0.058650 0.641925 0.251328
H121  H     H_    0.911381 0.101175 0.723156 0.241832
H122  H     H_    0.880816 0.164773 0.592140 0.218282
H123  H     H_    0.848100 0.189909 0.697946 0.220779
H124  H     H_    0.752510 0.138803 0.658429 0.193545
H125  H     H_    0.785373 0.109395 0.555904 0.198911
H126  H     H_    0.158542 0.210842 0.570719 0.136622
H127  H     H_    0.131704 0.941380 0.357803 0.251501
H128  H     H_    0.165374 0.916110 0.252039 0.254497
H129  H     H_    0.088686 0.898821 0.276706 0.241850
H130  H     H_    0.151892 0.810048 0.302091 0.220811
H131  H     H_    0.119204 0.835315 0.407837 0.218282
H132  H     H_    0.214677 0.890607 0.444009 0.198897
H133  H     H_    0.247524 0.861155 0.341504 0.193572
H134  H     H_    0.659227 0.576325 0.268909 0.255398
H135  H     H_    0.627202 0.555700 0.378146 0.249517
H136  H     H_    0.583246 0.595638 0.295258 0.242069
H137  H     H_    0.841537 0.789252 0.429638 0.136590
H138  H     H_    0.617096 0.663512 0.419457 0.218367
H139  H     H_    0.647759 0.684414 0.310155 0.220551
H140  H     H_    0.743759 0.634448 0.348796 0.192824
H141  H     H_    0.712993 0.608107 0.454683 0.199262
H142  H     H_    0.373103 0.444361 0.620587 0.249524
H143  H     H_    0.341079 0.424167 0.729994 0.255520
H144  H     H_    0.417016 0.404633 0.703752 0.242126
H145  H     H_    0.352368 0.315927 0.689584 0.220579
H146  H     H_    0.382985 0.336429 0.580090 0.218459
H147  H     H_    0.287107 0.391939 0.544736 0.199325
H148  H     H_    0.842960 0.208972 0.436849 0.136189
H149  H     H_    0.256402 0.365790 0.650776 0.192767
H150  H     H_    0.334719 0.583569 0.747789 0.253929
H151  H     H_    0.368520 0.558508 0.641998 0.251510
H152  H     H_    0.411404 0.601012 0.723335 0.242084
H153  H     H_    0.380900 0.664662 0.592344 0.218336
H154  H     H_    0.348105 0.689736 0.698127 0.220938
H155  H     H_    0.252561 0.638589 0.658391 0.193339
H156  H     H_    0.285511 0.609270 0.555884 0.198944
H157  H     H_    0.631328 0.441457 0.358313 0.251388
H158  H     H_    0.665190 0.416575 0.252475 0.253996
H159  H     H_    0.157030 0.791051 0.563099 0.136186
H160  H     H_    0.588521 0.399004 0.276823 0.242084
H161  H     H_    0.651906 0.310328 0.301821 0.220938
H162  H     H_    0.619080 0.335243 0.407665 0.218377
H163  H     H_    0.714433 0.390731 0.444212 0.198970
H164  H     H_    0.747402 0.361463 0.341685 0.193312
H165  H     H_    0.703174 0.781146 0.132405 0.252627
H166  H     H_    0.762466 0.834717 0.149363 0.255741
H167  H     H_    0.777951 0.763133 0.097646 0.243569
H168  H     H_    0.811121 0.765118 0.260079 0.221548
H169  H     H_    0.752845 0.711210 0.241681 0.221613
H170  H     H_    0.343321 0.054857 0.032595 0.182646
H171  H     H_    0.677473 0.784032 0.302952 0.192285
H172  H     H_    0.734787 0.838998 0.317524 0.202608
H173  H     H_    0.237993 0.165771 0.850971 0.255809
H174  H     H_    0.297207 0.219480 0.867563 0.252580
H175  H     H_    0.222434 0.237417 0.902442 0.243571
H176  H     H_    0.247310 0.289135 0.758135 0.221622
H177  H     H_    0.189100 0.235102 0.740108 0.221527
H178  H     H_    0.265452 0.161250 0.682718 0.202602
H179  H     H_    0.322733 0.216286 0.696998 0.192288
H180  H     H_    0.288422 0.791131 0.868075 0.250747
N1    N     N_1   0.499980 0.000000 0.274190 -0.165254
N2    N     N_1   0.500020 0.000000 0.725810 -0.165252
N3    N     N_1   0.999980 0.500000 0.274190 -0.165251
N4    N     N_1   0.000020 0.500000 0.725810 -0.165253
O1    O     O_R   0.439540 0.939530 0.576170 -0.572021
O2    O     O_R   0.560470 0.060470 0.576200 -0.570126
O3    O     O_R   0.560470 0.939530 0.576200 -0.570087
O4    O     O_R   0.439530 0.060470 0.423800 -0.570084
O5    O     O_R   0.939530 0.439530 0.423800 -0.570169
O6    O     O_R   0.060470 0.560470 0.576200 -0.570171
O7    O     O_R   0.060470 0.439530 0.576200 -0.570053
O8    O     O_R   0.939530 0.560470 0.423800 -0.570055
O9    O     O_3   0.385692 0.003673 0.932941 -0.587799
O10   O     O_3   0.614321 0.996321 0.067063 -0.587795
O11   O     O_3   0.885608 0.499936 0.932973 -0.587768
O12   O     O_R   0.560460 0.060470 0.423830 -0.572020
O13   O     O_3   0.114378 0.500068 0.067024 -0.587752
O14   O     O_3   0.446029 0.101179 0.068503 -0.588098
O15   O     O_3   0.553988 0.898803 0.931521 -0.588085
O16   O     O_3   0.560161 0.097680 0.931995 -0.587903
O17   O     O_3   0.439850 0.902309 0.068003 -0.587900
O18   O     O_3   0.942831 0.599333 0.068697 -0.588119
O19   O     O_3   0.057153 0.400676 0.931288 -0.588146
O20   O     O_3   0.057006 0.599650 0.932184 -0.587921
O21   O     O_3   0.942977 0.400359 0.067818 -0.587908
O22   O     O_R   0.560460 0.939530 0.423830 -0.572059
O23   O     O_R   0.439540 0.060470 0.576170 -0.572053
O24   O     O_R   0.939540 0.439530 0.576170 -0.572061
O25   O     O_R   0.060460 0.560470 0.423830 -0.572062
O26   O     O_R   0.060460 0.439530 0.423830 -0.572029
O27   O     O_R   0.939540 0.560470 0.576170 -0.572033
O28   O     O_R   0.439530 0.939530 0.423800 -0.570127

loop_
_geom_bond_atom_site_label_1
_geom_bond_atom_site_label_2
_ccdc_geom_bond_type
C39   H48   S    
C8    H152  S    
C115  O10   S    
C46   C112  S    
C128  H90   S    
C50   H76   S    
C83   O4    A    
Cu2   O22   S    
C63   C65   S    
C52   H82   S    
C147  H139  S    
C119  O11   S    
C80   C107  S    
C116  O7    A    
C44   H62   S    
C9    C88   S    
C73   H93   S    
C76   C98   S    
C143  C144  S    
C33   H37   S    
C34   H34   S    
C82   C140  S    
Cu4   O25   S    
C19   C20   S    
C7    H154  S    
C43   H59   S    
C131  H98   S    
C132  H102  S    
C9    H164  S    
C63   C115  S    
C81   C108  S    
C100  C109  S    
C148  H134  S    
C71   C108  S    
C13   C91   T    
C51   H78   S    
C102  C111  S    
C4    H146  S    
C14   H169  S    
C45   C47   S    
C22   C100  S    
C66   C115  S    
C80   C103  S    
C24   C110  S    
C140  C141  S    
C54   H86   S    
C144  C145  S    
C75   H115  S    
C31   H26   S    
C94   C97   S    
C101  C110  S    
C69   C119  S    
C80   C133  S    
C32   H39   S    
C103  C112  S    
C64   C66   S    
C18   H174  S    
C43   C44   S    
C37   C38   S    
Cu4   O5    S    
C78   C82   S    
C57   C97   T    
C42   H55   S    
C129  O11   S    
C3    H147  S    
C50   O19   S    
C28   H18   S    
C71   C102  S    
C40   H50   S    
C49   H72   S    
C81   C136  S    
C146  C147  S    
C135  H106  S    
C4    C5    S    
C67   C123  S    
C74   C110  S    
C130  H95   S    
C6    C7    S    
C119  C123  S    
C64   C120  S    
C38   H41   S    
Cu3   O27   S    
C107  C138  S    
C68   C119  S    
C5    H142  S    
C16   C98   S    
C48   H70   S    
C2    C108  S    
C65   C120  S    
C29   C102  S    
C67   C118  S    
C87   C113  S    
C73   C103  S    
C10   H161  S    
C20   C21   S    
C131  O13   S    
C89   C138  T    
C148  H136  S    
C30   H28   S    
C22   C23   S    
C105  O6    A    
C139  H111  S    
C147  C148  S    
C36   H47   S    
C145  H129  S    
C7    C8    S    
C133  H109  S    
C99   C108  S    
C19   H8    S    
C37   H43   S    
C36   C37   S    
C79   H159  S    
C79   C84   S    
C41   H54   S    
Cu1   O2    S    
C2    C90   T    
C118  C122  S    
C12   C99   S    
C13   C109  S    
C28   H19   S    
C87   C101  S    
C40   H52   S    
C25   H9    S    
C74   C87   S    
C9    C10   S    
C128  H68   S    
C126  H46   S    
C78   H148  S    
C47   H69   S    
C45   O17   S    
C41   O15   S    
C24   C92   T    
C15   H166  S    
C131  H99   S    
C83   C89   S    
C72   O3    A    
C29   H30   S    
C1    O28   A    
C82   C109  S    
C17   H176  S    
C5    H144  S    
C53   H85   S    
C39   C40   S    
C16   C17   S    
Cu1   N2    S    
C125  H13   S    
C60   N3    T    
C29   C30   S    
C85   C99   S    
C16   H179  S    
C72   C90   S    
C137  H114  S    
C127  O27   A    
C142  H121  S    
C95   C116  S    
C56   C113  S    
C144  H131  S    
C17   C18   S    
C21   H3    S    
C32   H38   S    
C118  O13   S    
C53   H84   S    
C61   O2    A    
C79   C113  S    
C84   C104  S    
C141  H123  S    
C49   H73   S    
C3    C4    S    
C145  H127  S    
C52   C53   S    
C74   C104  S    
C129  C130  S    
C130  H97   S    
C54   C55   S    
C126  C128  S    
C76   C80   S    
C136  C137  S    
C126  H57   S    
C134  C135  S    
C129  H92   S    
C6    H155  S    
Cu4   N3    S    
C125  H35   S    
C69   O18   S    
C22   H16   S    
C69   C122  S    
C70   C118  S    
C77   C99   S    
C33   H36   S    
C82   C106  S    
C12   H171  S    
Cu4   O26   S    
C10   C11   S    
C104  C113  S    
C68   O21   S    
C7    H153  S    
C65   C117  S    
C14   C15   S    
C79   C101  S    
C20   H6    S    
C125  H24   S    
C27   H20   S    
C9    H163  S    
C96   C105  S    
C51   H77   S    
C41   C42   S    
C43   O16   S    
C137  C139  S    
C26   C27   S    
C55   H91   S    
C67   O20   S    
C65   O14   S    
C54   H87   S    
C23   H12   S    
C30   C31   S    
C137  H116  S    
C73   C107  S    
C26   H22   S    
C18   H175  S    
C77   C111  S    
Cu2   O12   S    
C142  H119  S    
C134  H107  S    
Cu3   Cu4   S    
C42   H56   S    
C136  H117  S    
C55   H88   S    
C48   O18   S    
C42   H58   S    
C8    H151  S    
C3    C86   S    
C50   H75   S    
C78   C114  S    
C52   H81   S    
C129  H94   S    
C47   H66   S    
C135  H105  S    
C44   H61   S    
C68   C122  S    
C15   H167  S    
C64   C117  S    
C38   H42   S    
C31   H27   S    
Cu3   O6    S    
C34   H33   S    
C117  O9    S    
C26   C103  S    
C77   C81   S    
C58   C120  S    
C50   C51   S    
C66   C121  S    
C36   H45   S    
C60   C122  S    
C43   H60   S    
C21   H180  S    
C88   C100  S    
C132  H101  S    
C16   H178  S    
C22   H15   S    
C48   C49   S    
C10   H162  S    
C106  C114  S    
C143  H133  S    
C128  H79   S    
C20   H5    S    
C39   H49   S    
C78   C100  S    
C133  C134  S    
C30   H29   S    
C4    H145  S    
C131  C132  S    
C124  H170  S    
C56   C96   T    
C130  H96   S    
C55   H89   S    
C58   N1    T    
C140  H125  S    
C85   C111  S    
Cu3   O24   S    
C19   H7    S    
C32   C33   S    
C18   H173  S    
Cu1   Cu2   S    
C17   H177  S    
Cu4   O8    S    
C59   N2    T    
Cu1   O1    S    
C72   O22   A    
C88   C114  S    
C11   H157  S    
C86   C98   S    
C11   H160  S    
C94   O24   A    
C28   H17   S    
C75   C106  S    
C135  H103  S    
C105  O25   A    
C63   O16   S    
C52   O20   S    
Cu2   N1    S    
C147  H138  S    
Cu1   O23   S    
C59   C121  S    
C39   O14   S    
C124  H2    S    
C44   H63   S    
C45   H65   S    
C14   H168  S    
C27   H21   S    
C15   H165  S    
C143  H132  S    
C11   H158  S    
C31   H25   S    
Cu2   O28   S    
C64   O17   S    
C25   H11   S    
C5    H143  S    
C77   H137  S    
Cu3   N4    S    
C71   H1    S    
C45   H64   S    
C70   O19   S    
C117  C121  S    
C71   C85   S    
C146  H140  S    
C70   C123  S    
C46   C95   T    
C126  O10   S    
C148  H135  S    
C34   H32   S    
C53   H83   S    
C32   C106  S    
C139  H112  S    
C41   H53   S    
C141  H122  S    
C62   C123  S    
C63   C121  S    
C146  H141  S    
C81   C102  S    
C35   C93   T    
C133  H110  S    
C127  O8    A    
C8    H150  S    
C75   C109  S    
C37   H44   S    
C85   C146  S    
C124  O9    S    
C94   O5    A    
C84   C143  S    
C6    H156  S    
C47   H67   S    
C84   C110  S    
C6    C87   S    
Cu1   O3    S    
C66   O15   S    
C67   C69   S    
C86   C112  S    
C93   C127  S    
C23   H14   S    
C54   O21   S    
C40   H51   S    
C25   H10   S    
C76   C112  S    
C33   C34   S    
Cu3   O7    S    
C12   H172  S    
C83   O23   A    
C62   N4    T    
C12   C14   S    
C38   H40   S    
C145  H128  S    
C1    O1    A    
C35   C111  S    
C132  H100  S    
C116  O26   A    
C29   H31   S    
C51   H80   S    
Cu2   O4    S    
C57   C114  S    
C48   H71   S    
C1    C92   S    
C61   O12   A    
C76   H126  S    
C36   C104  S    
C140  H124  S    
C141  C142  S    
C144  H130  S    
C19   C101  S    
C26   H23   S    
C21   H4    S    
C23   C25   S    
C139  H113  S    
C142  H120  S    
C73   C86   S    
C75   C88   S    
C134  H108  S    
C115  C120  S    
C27   C28   S    
C68   C70   S    
C136  H118  S    
C49   H74   S    
C3    H149  S    
C74   H104  S    
C61   C91   S    
C124  C125  S    
C98   C107  S    
