data_mof_unit_14270.cif
_audit_creation_date              2012-12-11T15:06:42-0500
_audit_creation_method            fapswitch 2.2
_symmetry_space_group_name_H-M    P1
_symmetry_Int_Tables_number       1
_space_group_crystal_system       triclinic
_cell_length_a                    7.236727
_cell_length_b                    15.000705
_cell_length_c                    22.497492
_cell_angle_alpha                 89.999693
_cell_angle_beta                  89.998669
_cell_angle_gamma                 91.00613
_cell_volume                      2441.86135711

loop_
_atom_site_label
_atom_site_type_symbol
_atom_type_description
_atom_site_fract_x
_atom_site_fract_y
_atom_site_fract_z
_atom_type_partial_charge
O1    O     O_R   0.390810 0.844810 0.447340 -0.537528
O2    O     O_R   0.109190 0.155190 0.947340 -0.537487
O3    O     O_R   0.890810 0.655190 0.552660 -0.551706
O4    O     O_R   0.609190 0.344810 0.052660 -0.551694
O5    O     O_R   0.720550 0.655820 0.440420 -0.541279
O6    O     O_R   0.779450 0.344180 0.940420 -0.541260
O7    O     O_R   0.220550 0.844180 0.559580 -0.530614
O8    O     O_R   0.279450 0.155820 0.059580 -0.530562
C1    C     C_R   0.550347 0.625751 0.427043 0.777589
C2    C     C_R   0.949655 0.374249 0.927043 0.777586
C3    C     C_R   0.052964 0.872748 0.573937 0.792816
C4    C     C_R   0.447030 0.127249 0.073936 0.792842
O9    O     O_R   0.720530 0.844130 0.440420 -0.528255
O10   O     O_R   0.779470 0.155870 0.940420 -0.528281
O11   O     O_R   0.220530 0.655870 0.559580 -0.519435
O12   O     O_R   0.279470 0.344130 0.059580 -0.519442
O13   O     O_R   0.890830 0.844810 0.552660 -0.541593
O14   O     O_R   0.609170 0.155190 0.052660 -0.541653
O15   O     O_R   0.390830 0.655190 0.447340 -0.522477
O16   O     O_R   0.109170 0.344810 0.947340 -0.522494
C5    C     C_R   0.553229 0.872840 0.425840 0.850666
C6    C     C_R   0.946778 0.127167 0.925836 0.850636
C7    C     C_R   0.050698 0.628774 0.575146 0.841428
C8    C     C_R   0.449299 0.371225 0.075147 0.841455
O17   O     O_3   0.557310 0.749980 0.536820 -0.402279
O18   O     O_3   0.942690 0.250020 0.036820 -0.402277
O19   O     O_3   0.057310 0.750020 0.463180 -0.390768
O20   O     O_3   0.442690 0.249980 0.963180 -0.390779
V1    V     V_3+5 0.832160 0.749980 0.493170 1.472991
V2    V     V_3+5 0.667840 0.250020 0.993170 1.472930
V3    V     V_3+5 0.332160 0.750020 0.506830 1.512665
V4    V     V_3+5 0.167840 0.249980 0.006830 1.512732
C9    C     C_R   0.102949 0.598615 0.868549 -0.224825
C10   C     C_R   0.397072 0.401378 0.368552 -0.224816
C11   C     C_R   0.484432 0.894261 0.134286 -0.264708
C12   C     C_R   0.015202 0.105719 0.634270 -0.264619
H1    H     H_    0.198814 0.715356 0.787649 0.126397
H2    H     H_    0.301241 0.284628 0.287655 0.126416
H3    H     H_    0.563182 0.773495 0.214366 0.133951
H4    H     H_    0.936381 0.226473 0.714347 0.133917
H5    H     H_    0.171837 0.658008 0.885747 0.113180
H6    H     H_    0.328195 0.341982 0.385752 0.113194
H7    H     H_    0.496808 0.826644 0.118147 0.110999
H8    H     H_    0.002632 0.173317 0.618111 0.111022
C13   C     C_R   0.969544 0.451880 0.886859 -0.142439
C14   C     C_R   0.530462 0.548118 0.386859 -0.142443
C15   C     C_R   0.454670 0.052144 0.116051 -0.116366
C16   C     C_R   0.045292 0.947851 0.616050 -0.116357
C17   C     C_R   0.974784 0.471824 0.595618 0.449266
C18   C     C_R   0.525185 0.528177 0.095616 0.449290
C19   C     C_R   0.532347 0.034401 0.407287 0.454434
C20   C     C_R   0.967879 0.965623 0.907289 0.454465
C21   C     C_R   0.900830 0.407324 0.634524 -0.243953
C22   C     C_R   0.599115 0.592684 0.134521 -0.243980
C23   C     C_R   0.500003 0.106679 0.369249 -0.230884
C24   C     C_R   0.000282 0.893350 0.869257 -0.230759
C25   C     C_R   0.897783 0.421742 0.695402 -0.208854
C26   C     C_R   0.602171 0.578266 0.195399 -0.208864
C27   C     C_R   0.488762 0.094991 0.308083 -0.205772
C28   C     C_R   0.011435 0.905028 0.808089 -0.205819
C29   C     C_R   0.977696 0.499082 0.720975 0.051677
C30   C     C_R   0.522294 0.500918 0.220975 0.051683
C31   C     C_R   0.510333 0.010604 0.281704 0.047375
C32   C     C_R   0.989707 0.989402 0.781704 0.047369
C33   C     C_R   0.047040 0.567631 0.681882 -0.099553
C34   C     C_R   0.452965 0.432365 0.181883 -0.099549
C35   C     C_R   0.544935 0.936172 0.319872 -0.097389
C36   C     C_R   0.955020 0.063830 0.819869 -0.097383
C37   C     C_R   0.991263 0.509677 0.784263 0.084201
C38   C     C_R   0.508738 0.490320 0.284263 0.084198
C39   C     C_R   0.495673 0.997833 0.218565 0.087470
C40   C     C_R   0.004292 0.002166 0.718563 0.087479
C41   C     C_R   0.074087 0.588460 0.807257 0.019743
C42   C     C_R   0.425931 0.411534 0.307259 0.019738
C43   C     C_R   0.506437 0.910443 0.195373 0.027709
C44   C     C_R   0.993325 0.089545 0.695363 0.027687
C45   C     C_R   0.136752 0.655371 0.769092 -0.258184
C46   C     C_R   0.363283 0.344619 0.269096 -0.258201
C47   C     C_R   0.547098 0.839479 0.232774 -0.248747
C48   C     C_R   0.952592 0.160500 0.732761 -0.248740
C49   C     C_R   0.129394 0.645497 0.707279 0.401293
C50   C     C_R   0.370639 0.354492 0.207282 0.401292
C51   C     C_R   0.577919 0.852298 0.293423 0.413687
C52   C     C_R   0.921886 0.147688 0.793418 0.413680
C53   C     C_R   0.934223 0.442926 0.825706 -0.284067
C54   C     C_R   0.565779 0.557071 0.325705 -0.284034
C55   C     C_R   0.473618 0.068561 0.177307 -0.292757
C56   C     C_R   0.026461 0.931439 0.677310 -0.292814
C57   C     C_R   0.055400 0.530434 0.908120 0.456898
C58   C     C_R   0.444612 0.469561 0.408122 0.456873
C59   C     C_R   0.453311 0.964646 0.094116 0.461491
C60   C     C_R   0.046420 0.035342 0.594108 0.461435
C61   C     C_R   0.033436 0.554855 0.618743 -0.169132
C62   C     C_R   0.466557 0.445143 0.118743 -0.169129
C63   C     C_R   0.547274 0.948325 0.383090 -0.171243
C64   C     C_R   0.952765 0.051686 0.883089 -0.171307
H9    H     H_    0.873290 0.380989 0.811626 0.172921
H10   H     H_    0.626717 0.619005 0.311623 0.172922
H11   H     H_    0.476693 0.137325 0.190955 0.157571
H12   H     H_    0.023550 0.862679 0.690966 0.157614
H13   H     H_    0.839118 0.346031 0.617953 0.115279
H14   H     H_    0.660801 0.653982 0.117949 0.115292
H15   H     H_    0.478302 0.172733 0.386944 0.116878
H16   H     H_    0.022101 0.827311 0.886963 0.116859
O21   O     O_3   0.114899 0.536696 0.966353 -0.550608
C65   C     C_3   0.970868 0.570942 0.000988 -0.269552
H17   H     H_    0.852194 0.523171 0.002288 0.185711
H18   H     H_    0.927148 0.637338 0.984536 0.117937
H19   H     H_    0.021139 0.579726 0.047238 0.162651
O22   O     O_3   0.385111 0.463296 0.466356 -0.550636
C66   C     C_3   0.529184 0.429107 0.500996 -0.269491
H20   H     H_    0.647815 0.476904 0.502279 0.185689
H21   H     H_    0.572967 0.362711 0.484563 0.117969
H22   H     H_    0.478928 0.420347 0.547249 0.162650
O23   O     O_3   0.438845 0.952873 0.032763 -0.556876
C67   C     C_3   0.350515 0.871602 0.017249 -0.237851
H23   H     H_    0.226948 0.857068 0.045350 0.151572
H24   H     H_    0.449858 0.816359 0.019193 0.094982
H25   H     H_    0.303410 0.876171 0.970479 0.186348
O24   O     O_3   0.060674 0.047131 0.532756 -0.556922
C68   C     C_3   0.149601 0.128270 0.517253 -0.238099
H26   H     H_    0.273233 0.142607 0.545364 0.151674
H27   H     H_    0.050659 0.183684 0.519192 0.095070
H28   H     H_    0.196721 0.123632 0.470488 0.186406
O25   O     O_3   0.974906 0.460713 0.534060 -0.558087
C69   C     C_3   0.017391 0.372822 0.517114 -0.223812
H29   H     H_    0.893366 0.328549 0.520504 0.094840
H30   H     H_    0.134795 0.345900 0.543184 0.136688
H31   H     H_    0.058914 0.373312 0.469673 0.188808
O26   O     O_3   0.525056 0.539284 0.034058 -0.558069
C70   C     C_3   0.482627 0.627180 0.017107 -0.223839
H32   H     H_    0.606680 0.671432 0.020492 0.094847
H33   H     H_    0.365244 0.654123 0.043177 0.136655
H34   H     H_    0.441100 0.626691 0.969667 0.188808
O27   O     O_3   0.534959 0.044032 0.468836 -0.556491
C71   C     C_3   0.647029 0.117452 0.486377 -0.249833
H35   H     H_    0.568617 0.180304 0.483933 0.104160
H36   H     H_    0.776612 0.123076 0.459811 0.157715
H37   H     H_    0.687078 0.108072 0.533520 0.183227
O28   O     O_3   0.965398 0.955990 0.968835 -0.556401
C72   C     C_3   0.853015 0.882688 0.986388 -0.249955
H38   H     H_    0.931119 0.819748 0.983922 0.104259
H39   H     H_    0.723371 0.877211 0.959844 0.157684
H40   H     H_    0.813077 0.892103 0.033539 0.183142
H41   H     H_    0.830777 0.370503 0.721344 0.131049
H42   H     H_    0.669152 0.629513 0.221339 0.131055
H43   H     H_    0.460523 0.153579 0.282495 0.137591
H44   H     H_    0.039735 0.846446 0.782504 0.137585
O29   O     O_3   0.199395 0.713758 0.672086 -0.582885
C73   C     C_3   0.393907 0.717746 0.677572 -0.203098
H45   H     H_    0.456886 0.653232 0.664948 0.134084
H46   H     H_    0.438417 0.737841 0.722962 0.114312
H47   H     H_    0.448334 0.769672 0.646918 0.176407
O30   O     O_3   0.300660 0.286226 0.172090 -0.582886
C74   C     C_3   0.106150 0.282220 0.177581 -0.203111
H48   H     H_    0.043144 0.346735 0.164971 0.134074
H49   H     H_    0.061656 0.262102 0.222969 0.114332
H50   H     H_    0.051735 0.230304 0.146919 0.176409
O31   O     O_3   0.645187 0.782220 0.326153 -0.583398
C75   C     C_3   0.837611 0.777632 0.316082 -0.258318
H51   H     H_    0.909901 0.841103 0.328529 0.149714
H52   H     H_    0.868492 0.760200 0.269094 0.121066
H53   H     H_    0.894539 0.724160 0.344328 0.176143
O32   O     O_3   0.854638 0.217762 0.826157 -0.583395
C76   C     C_3   0.662213 0.222366 0.816096 -0.258213
H54   H     H_    0.589912 0.158895 0.828539 0.149691
H55   H     H_    0.631318 0.239816 0.769112 0.121029
H56   H     H_    0.605312 0.275833 0.844352 0.176160

loop_
_geom_bond_atom_site_label_1
_geom_bond_atom_site_label_2
_ccdc_geom_bond_type
O17   V3    S    
C39   C43   A    
C26   C30   A    
C69   H29   S    
C25   H41   S    
C74   H49   S    
O13   V1    S    
O1    C5    A    
O3    C7    A    
C66   H20   S    
C10   H6    S    
C48   C52   A    
C70   H34   S    
O15   V3    S    
C36   C52   A    
O27   C71   S    
O7    C3    A    
C11   C43   A    
C76   H54   S    
C32   C36   A    
O9    V1    S    
O32   C76   S    
C8    C62   S    
C18   O26   S    
C23   C27   A    
C4    C15   S    
O16   V4    S    
O4    C8    A    
C49   O29   S    
C27   H43   S    
O19   V1    S    
C65   H17   S    
O23   C67   S    
C23   H15   S    
O1    V3    S    
C67   H23   S    
C30   C38   A    
O2    V4    S    
O3    V1    S    
O22   C66   S    
C68   H28   S    
C12   C44   A    
C19   O27   S    
C1    O15   A    
C2    O16   A    
C73   H47   S    
C19   C63   A    
O2    C6    A    
C16   C56   A    
C37   C41   A    
O14   V2    S    
C11   H7    S    
O5    V1    S    
C52   O32   S    
C40   C44   A    
C34   C62   A    
C12   C60   A    
O11   C7    A    
C1    C14   S    
O12   C8    A    
C74   H50   S    
C35   C63   A    
C3    C16   S    
C15   C59   A    
O10   V2    S    
C71   H37   S    
C40   C56   A    
C55   H11   S    
C31   C35   A    
O7    V3    S    
C30   C34   A    
O8    V4    S    
C75   H53   S    
O28   C72   S    
C24   H16   S    
C71   H36   S    
C67   H24   S    
C72   H40   S    
C21   H13   S    
C21   C25   A    
O18   V4    S    
C18   C62   A    
C5    C63   S    
C69   H31   S    
H1    C45   S    
C17   O25   S    
C24   C28   A    
C15   C55   A    
C13   C53   A    
C10   C58   A    
O5    C1    A    
C9    C57   A    
C34   C50   A    
C46   C50   A    
C33   C49   A    
O31   C75   S    
C45   C49   A    
O8    C4    A    
C2    C13   S    
H4    C48   S    
C68   H26   S    
O9    C5    A    
C66   H21   S    
C18   C22   A    
C35   C51   A    
C25   C29   A    
O30   C74   S    
C56   H12   S    
C10   C42   A    
C39   C55   A    
C9    C41   A    
O6    V2    S    
C75   H52   S    
C76   H56   S    
C16   C60   A    
O25   C69   S    
C73   H46   S    
C12   H8    S    
C58   O22   S    
C57   O21   S    
C70   H32   S    
C38   C54   A    
C37   C53   A    
O24   C68   S    
C22   C26   A    
C29   C37   A    
C3    O13   A    
C69   H30   S    
C13   C57   A    
C6    C64   S    
C22   H14   S    
C44   C48   A    
C31   C39   A    
C71   H35   S    
C70   H33   S    
O6    C2    A    
C26   H42   S    
O11   V3    S    
C14   C58   A    
O12   V4    S    
H2    C46   S    
O21   C65   S    
C36   C64   A    
C27   C31   A    
C67   H25   S    
C28   C32   A    
C9    H5    S    
C75   H51   S    
O10   C6    A    
C72   H39   S    
O26   C70   S    
C60   O24   S    
O29   C73   S    
C47   C51   A    
C65   H18   S    
C17   C21   A    
O20   V2    S    
C33   C61   A    
C20   O28   S    
C59   O23   S    
C20   C64   A    
C66   H22   S    
C19   C23   A    
C32   C40   A    
C29   C33   A    
C54   H10   S    
C38   C42   A    
C68   H27   S    
C53   H9    S    
C50   O30   S    
C7    C61   S    
C51   O31   S    
C76   H55   S    
C42   C46   A    
C4    O14   A    
C74   H48   S    
C41   C45   A    
C73   H45   S    
C28   H44   S    
C17   C61   A    
C72   H38   S    
C43   C47   A    
O4    V2    S    
C20   C24   A    
H3    C47   S    
C14   C54   A    
C65   H19   S    
C11   C59   A    
