data_mof_unit_14643.cif
_audit_creation_date              2013-03-05T16:26:02-0500
_audit_creation_method            fapswitch 2.2
_symmetry_space_group_name_H-M    P1
_symmetry_Int_Tables_number       1
_space_group_crystal_system       triclinic
_cell_length_a                    19.40685
_cell_length_b                    18.167967
_cell_length_c                    10.954368
_cell_angle_alpha                 90.046299
_cell_angle_beta                  90.383595
_cell_angle_gamma                 89.920169
_cell_volume                      3862.23250508

loop_
_atom_site_label
_atom_site_type_symbol
_atom_site_description
_atom_site_fract_x
_atom_site_fract_y
_atom_site_fract_z
_atom_type_partial_charge
O1    O     O_R   0.400190 0.561980 0.499980 -0.592242
O2    O     O_R   0.599810 0.561980 0.500020 -0.591481
O3    O     O_R   0.400190 0.438070 0.500040 -0.584754
O4    O     O_R   0.599810 0.438070 0.499960 -0.585207
C1    C     C_R   0.367469 0.499934 0.500591 0.797388
C2    C     C_R   0.632542 0.499899 0.499797 0.797821
O5    O     O_R   0.500000 0.561940 0.321950 -0.589287
O6    O     O_R   0.500000 0.561940 0.678050 -0.589729
O7    O     O_R   0.500010 0.438030 0.322010 -0.573141
O8    O     O_R   0.499990 0.438030 0.677990 -0.573064
C3    C     C_R   0.499842 0.499832 0.265041 0.868131
C4    C     C_R   0.500066 0.499887 0.734948 0.866892
Cu1   Cu    Cu3+1 0.500000 0.573360 0.500000 0.933036
Cu2   Cu    Cu3+1 0.500000 0.426640 0.500000 0.954608
C5    C     C_2   0.490124 0.440889 0.935149 -0.014892
C6    C     C_2   0.509562 0.440852 0.064549 -0.015435
C7    C     C_2   0.508281 0.499091 0.866616 -0.403685
C8    C     C_2   0.491209 0.498944 0.133435 -0.402829
H1    H     H_    0.535650 0.545189 0.907625 0.147462
H2    H     H_    0.463439 0.544932 0.092778 0.147334
C9    C     C_R   0.744037 0.431977 0.498236 -0.208089
C10   C     C_R   0.256489 0.431571 0.499090 -0.227060
H3    H     H_    0.715882 0.380486 0.497436 0.163601
H4    H     H_    0.285163 0.380352 0.496698 0.156815
C11   C     C_R   0.816203 0.430150 0.499339 0.184817
C12   C     C_R   0.184368 0.429249 0.500063 0.182239
C13   C     C_R   0.852744 0.497474 0.501397 0.056727
C14   C     C_R   0.147330 0.496381 0.503926 0.075849
C15   C     C_R   0.816915 0.564414 0.503596 -0.207611
C16   C     C_R   0.182725 0.563498 0.508489 -0.216156
H5    H     H_    0.844682 0.616119 0.505341 0.143959
H6    H     H_    0.154604 0.615036 0.511733 0.143625
C17   C     C_R   0.745260 0.565375 0.502608 -0.199614
C18   C     C_R   0.254364 0.564913 0.507189 -0.200029
H7    H     H_    0.718899 0.617948 0.504181 0.155741
H8    H     H_    0.280389 0.617594 0.510045 0.156049
C19   C     C_R   0.708259 0.499207 0.499817 -0.071985
C20   C     C_R   0.291779 0.499014 0.502063 -0.063862
C21   C     C_R   0.964263 0.521201 0.605770 -0.196941
C22   C     C_R   0.036045 0.520736 0.606443 -0.191645
H9    H     H_    0.936843 0.537211 0.687441 0.134801
H10   H     H_    0.063717 0.536473 0.688604 0.134349
C23   C     C_R   0.071873 0.498345 0.502145 0.116473
C24   C     C_R   0.928133 0.499668 0.500584 0.091891
C25   C     C_R   0.035690 0.479297 0.395655 -0.192902
C26   C     C_R   0.963951 0.479807 0.394950 -0.160671
H11   H     H_    0.063064 0.463653 0.313742 0.123625
H12   H     H_    0.936334 0.464578 0.312539 0.132044
C27   C     C_R   0.457508 0.720923 0.422142 0.083073
C28   C     C_R   0.542089 0.720845 0.578551 0.083067
H13   H     H_    0.424371 0.690707 0.360181 0.116606
H14   H     H_    0.575388 0.690575 0.640217 0.116047
C29   C     C_R   0.456369 0.798176 0.421214 -0.287335
C30   C     C_R   0.542458 0.798082 0.580815 -0.287496
H15   H     H_    0.422855 0.826183 0.356918 0.125581
H16   H     H_    0.575702 0.825999 0.645612 0.125669
C31   C     C_R   0.499225 0.838236 0.501348 0.132386
N1    N     N_R   0.500000 0.683620 0.500000 -0.170962
C32   C     C_R   0.560204 0.960594 0.521085 -0.225250
C33   C     C_R   0.437994 0.960874 0.482195 -0.225610
H17   H     H_    0.608263 0.930993 0.533372 0.137820
H18   H     H_    0.389947 0.931395 0.469886 0.137118
C34   C     C_R   0.561275 0.038118 0.520218 0.002021
C35   C     C_R   0.437045 0.038512 0.482316 0.002642
C36   C     C_R   0.499282 0.078752 0.501013 0.008648
C37   C     C_R   0.499090 0.921004 0.501699 0.083970
C38   C     C_R   0.467928 0.201923 0.405572 -0.274516
C39   C     C_R   0.531719 0.201968 0.594855 -0.272522
H19   H     H_    0.443604 0.173858 0.329543 0.138185
H20   H     H_    0.555775 0.173971 0.671200 0.137190
C40   C     C_R   0.466920 0.279076 0.409091 0.100423
C41   C     C_R   0.532960 0.279092 0.591062 0.102851
H21   H     H_    0.440129 0.309179 0.338163 0.117301
H22   H     H_    0.559676 0.309183 0.662096 0.117919
N2    N     N_R   0.500000 0.316380 0.500000 -0.170709
C42   C     C_R   0.499691 0.161864 0.500376 0.099183
C43   C     C_R   0.442898 0.382637 0.889745 0.174796
C44   C     C_R   0.466563 0.310653 0.869509 -0.156021
C45   C     C_R   0.420683 0.255823 0.831626 -0.146493
C46   C     C_R   0.351280 0.272818 0.811774 -0.111372
C47   C     C_R   0.327736 0.344803 0.828476 -0.136021
C48   C     C_R   0.373306 0.399586 0.867567 -0.141667
H23   H     H_    0.520370 0.296971 0.883089 0.121523
H24   H     H_    0.438933 0.200143 0.817800 0.122879
H25   H     H_    0.315708 0.230163 0.784106 0.111478
H26   H     H_    0.274069 0.358024 0.812404 0.124110
H27   H     H_    0.354328 0.455018 0.881726 0.116138
C49   C     C_R   0.557539 0.383054 0.109195 0.173803
C50   C     C_R   0.534257 0.311430 0.132973 -0.152218
C51   C     C_R   0.580801 0.256910 0.169983 -0.142308
C52   C     C_R   0.650562 0.273839 0.184879 -0.112878
C53   C     C_R   0.673836 0.345443 0.163939 -0.144203
C54   C     C_R   0.627526 0.399952 0.126201 -0.143563
H28   H     H_    0.480275 0.297753 0.122263 0.119697
H29   H     H_    0.562818 0.201480 0.186633 0.122384
H30   H     H_    0.686624 0.231383 0.211748 0.110339
H31   H     H_    0.727853 0.358584 0.175547 0.129623
H32   H     H_    0.646242 0.455084 0.108828 0.117650
C55   C     C_R   0.628972 0.074518 0.536759 0.110838
C56   C     C_R   0.656051 0.119813 0.445007 -0.123694
C57   C     C_R   0.719999 0.153861 0.461863 -0.138022
C58   C     C_R   0.757218 0.143122 0.569982 -0.112760
C59   C     C_R   0.730838 0.097724 0.661264 -0.139843
C60   C     C_R   0.667128 0.063187 0.644632 -0.177628
H33   H     H_    0.627791 0.128459 0.360663 0.118457
H34   H     H_    0.740995 0.188267 0.391006 0.120510
H35   H     H_    0.806623 0.169718 0.582747 0.122806
H36   H     H_    0.759775 0.089245 0.744887 0.124644
H37   H     H_    0.647128 0.028309 0.716255 0.123719
C61   C     C_R   0.369497 0.075404 0.463660 0.109249
C62   C     C_R   0.343647 0.125154 0.550497 -0.121882
C63   C     C_R   0.280509 0.160569 0.530244 -0.146057
C64   C     C_R   0.242464 0.146001 0.424277 -0.118618
C65   C     C_R   0.267374 0.095975 0.338274 -0.134815
C66   C     C_R   0.330521 0.060658 0.357815 -0.176216
H38   H     H_    0.372499 0.136619 0.633237 0.120769
H39   H     H_    0.260840 0.199306 0.596467 0.124308
H40   H     H_    0.193593 0.173346 0.408912 0.118133
H41   H     H_    0.237828 0.084696 0.256238 0.124146
H42   H     H_    0.349480 0.022511 0.289774 0.123118
C67   C     C_3   0.851838 0.355912 0.503279 -0.418850
C68   C     C_3   0.846147 0.316462 0.380611 -0.868056
H43   H     H_    0.791308 0.307575 0.355647 0.243892
H44   H     H_    0.871165 0.349281 0.307953 0.249464
H45   H     H_    0.872087 0.262062 0.386609 0.240659
H46   H     H_    0.907120 0.360775 0.528450 0.215276
H47   H     H_    0.827716 0.321368 0.574958 0.193748
C69   C     C_3   0.149097 0.354846 0.498991 -0.423657
C70   C     C_3   0.122013 0.334683 0.625060 -0.838983
H48   H     H_    0.164712 0.334980 0.693076 0.241923
H49   H     H_    0.081457 0.373845 0.654392 0.259663
H50   H     H_    0.099375 0.278606 0.622026 0.236249
H51   H     H_    0.106450 0.353788 0.431157 0.202701
H52   H     H_    0.185821 0.311153 0.470522 0.190874

loop_
_geom_bond_atom_site_label_1
_geom_bond_atom_site_label_2
_geom_bond_distance
_ccdc_geom_bond_type
C16   H6    1.083795 S    
C34   C36   1.425150 A    
C3    C8    1.450326 S    
C57   C58   1.396807 A    
C13   C15   1.400333 A    
C62   C63   1.399640 A    
C31   C37   1.503720 S    
C69   C70   1.526024 S    
C65   C66   1.397806 A    
C51   H29   1.082291 S    
C21   H9    1.083366 S    
C5    C43   1.484308 S    
C25   C26   1.392208 A    
O5    C3    1.288679 A    
C56   H33   1.082739 S    
C28   C30   1.403462 A    
C36   C42   1.510039 S    
O1    C1    1.294612 A    
C67   H47   1.111801 S    
C32   C37   1.402824 A    
C45   H24   1.082205 S    
C5    C6    1.464393 S    
C10   C20   1.404804 A    
C15   C17   1.390653 A    
C33   H18   1.083543 S    
C50   H28   1.082626 S    
O2    Cu1   1.947711 S    
C61   C62   1.406129 A    
C56   C57   1.398499 A    
C34   C55   1.481635 S    
C7    H1    1.087556 S    
C52   H30   1.080505 S    
C44   H23   1.082394 S    
C22   C23   1.401203 A    
C27   H13   1.081734 S    
C4    C7    1.450144 S    
C28   H14   1.081740 S    
C59   H36   1.082279 S    
C38   C40   1.402329 A    
C47   H26   1.081839 S    
O6    C4    1.288633 A    
C70   H50   1.110435 S    
C25   H11   1.083386 S    
C55   C60   1.405466 A    
C33   C37   1.403775 A    
Cu1   Cu2   2.665602 S    
O2    C2    1.293697 A    
C41   N2    1.361794 A    
C13   C24   1.463748 S    
C63   C64   1.396875 A    
C24   C26   1.400633 A    
C53   H31   1.082120 S    
C47   C48   1.397421 A    
C26   H12   1.082736 S    
C29   H15   1.082370 S    
C30   H16   1.082362 S    
C32   H17   1.083622 S    
C16   C18   1.390741 A    
C28   N1    1.362414 A    
C41   H22   1.080688 S    
O8    Cu2   1.960553 S    
C52   C53   1.397307 A    
C40   H21   1.080557 S    
C29   C31   1.408153 A    
C44   C45   1.397922 A    
Cu1   N1    2.003200 S    
C43   C44   1.403428 A    
C17   C19   1.401344 A    
C27   N1    1.362611 A    
C45   C46   1.397060 A    
C38   H19   1.082205 S    
O1    Cu1   1.948287 S    
O7    Cu2   1.960887 S    
C46   H25   1.080418 S    
C69   H52   1.111900 S    
C23   C25   1.400958 A    
C35   C61   1.484460 S    
C55   C56   1.404687 A    
C39   C41   1.402078 A    
C2    C19   1.469458 S    
C58   H35   1.082448 S    
C12   C69   1.516023 S    
O7    C3    1.285027 A    
C67   C68   1.525870 S    
C62   H38   1.082425 S    
O3    Cu2   1.947814 S    
O8    C4    1.284960 A    
O4    C2    1.291265 A    
C9    H3    1.084036 S    
C10   H4    1.083953 S    
C39   C42   1.407040 A    
C68   H44   1.109724 S    
C50   C51   1.398083 A    
C21   C22   1.393047 A    
C64   C65   1.396706 A    
C57   H34   1.079325 S    
C5    C7    1.346006 D    
C9    C11   1.400824 A    
C49   C54   1.404067 A    
C18   C20   1.400633 A    
C12   C14   1.415580 A    
C65   H41   1.082341 S    
C46   C47   1.397021 A    
O3    C1    1.290194 A    
C21   C24   1.400560 A    
C11   C13   1.414807 A    
C14   C23   1.464770 S    
C32   C34   1.408669 A    
C33   C35   1.410632 A    
C35   C36   1.426246 A    
C68   H45   1.110322 S    
C14   C16   1.401081 A    
C70   H48   1.110665 S    
C67   H46   1.109537 S    
C15   H5    1.083702 S    
C69   H51   1.108748 S    
Cu2   N2    2.003200 S    
C40   N2    1.361892 A    
C51   C52   1.397214 A    
C63   H39   1.081379 S    
C43   C48   1.404426 A    
C27   C29   1.403710 A    
C54   H32   1.083359 S    
C22   H10   1.083394 S    
C53   C54   1.397338 A    
C17   H7    1.083064 S    
C18   H8    1.083139 S    
C8    H2    1.087654 S    
O4    Cu2   1.948386 S    
C58   C59   1.396997 A    
C64   H40   1.082279 S    
O6    Cu1   1.961596 S    
O5    Cu1   1.961264 S    
C9    C19   1.404306 A    
C49   C50   1.403234 A    
C6    C8    1.345909 D    
C66   H42   1.083221 S    
C10   C12   1.400452 A    
C59   C60   1.398070 A    
C6    C49   1.483492 S    
C39   H20   1.082075 S    
C60   H37   1.083189 S    
C38   C42   1.406973 A    
C68   H43   1.109039 S    
C1    C20   1.469214 S    
C11   C67   1.515363 S    
C61   C66   1.405919 A    
C48   H27   1.083239 S    
C70   H49   1.109222 S    
C30   C31   1.408365 A    
