data_mof_unit_55938.cif
_audit_creation_date              2012-12-10T18:31:48-0500
_audit_creation_method            fapswitch 2.2
_symmetry_space_group_name_H-M    P1
_symmetry_Int_Tables_number       1
_space_group_crystal_system       triclinic
_cell_length_a                    10.659909
_cell_length_b                    14.996961
_cell_length_c                    15.462646
_cell_angle_alpha                 82.315709
_cell_angle_beta                  89.872426
_cell_angle_gamma                 105.056719
_cell_volume                      2363.8892653

loop_
_atom_site_label
_atom_site_type_symbol
_atom_type_description
_atom_site_fract_x
_atom_site_fract_y
_atom_site_fract_z
_atom_type_partial_charge
C1    C     C_R   0.477935 0.441787 0.662251 0.861051
C2    C     C_3   0.121156 0.496472 0.501563 0.138248
C3    C     C_3   0.100121 0.573146 0.429153 -0.413151
C4    C     C_3   0.080415 0.512640 0.593665 -0.502089
C5    C     C_R   0.443141 0.407287 0.754372 -0.055882
C6    C     C_R   0.503631 0.591966 0.245844 -0.062562
C7    C     C_R   0.346432 0.284800 0.871923 -0.214180
C8    C     C_R   0.387207 0.312771 0.784388 -0.214232
C9    C     C_R   0.454573 0.473114 0.811521 -0.259940
C10   C     C_R   0.406402 0.447597 0.897533 0.089640
C11   C     C_R   0.357433 0.351545 0.929050 0.184914
C12   C     C_R   0.742468 0.500417 0.501676 0.852154
C13   C     C_R   0.414374 0.515293 0.954181 0.068336
C14   C     C_R   0.398287 0.485362 0.044888 0.074489
C15   C     C_R   0.344976 0.389317 0.074964 -0.234747
C16   C     C_R   0.322473 0.323705 0.017297 -0.247081
C17   C     C_R   0.439396 0.611763 0.923296 -0.234772
C18   C     C_R   0.464343 0.677474 0.980755 -0.241611
C19   C     C_R   0.470560 0.649048 0.069764 0.178795
C20   C     C_R   0.438977 0.552593 0.102171 0.091056
C21   C     C_R   0.511518 0.715634 0.126609 -0.207313
C22   C     C_R   0.527452 0.687167 0.214579 -0.202634
C23   C     C_R   0.514928 0.558054 0.337810 0.861527
C24   C     C_R   0.459475 0.525969 0.189682 -0.271283
C25   C     C_R   0.691508 0.840623 0.640569 -0.297013
C26   C     C_R   0.657454 0.751561 0.617480 0.008519
C27   C     C_R   0.515248 0.794510 0.511729 -0.050349
C28   C     C_R   0.540564 0.885092 0.535483 -0.005057
C29   C     C_R   0.634892 0.908097 0.598481 0.106650
C30   C     C_R   0.476756 0.952717 0.498574 0.030669
C31   C     C_R   0.518851 0.046881 0.517299 -0.015330
C32   C     C_R   0.616241 0.067010 0.581064 0.439674
C33   C     C_R   0.672062 0.997849 0.619523 -0.300679
C34   C     C_R   0.257811 0.498510 0.500350 0.853860
C35   C     C_R   0.368667 0.927248 0.446166 -0.242751
C36   C     C_R   0.304921 0.991403 0.409854 -0.161992
C37   C     C_R   0.347168 0.084509 0.422413 0.067703
C38   C     C_R   0.456982 0.114305 0.474083 -0.053289
C39   C     C_R   0.279903 0.148158 0.383663 0.376745
C40   C     C_R   0.319385 0.240163 0.400717 -0.134055
C41   C     C_R   0.497732 0.210562 0.479959 -0.075002
C42   C     C_3   0.893720 0.402686 0.487287 -0.465396
C43   C     C_3   0.035785 0.401270 0.483083 -0.403519
C44   C     C_3   0.956458 0.574235 0.428790 -0.398988
C45   C     C_3   0.938597 0.523145 0.592959 0.373719
C46   C     C_3   0.880025 0.501009 0.503160 0.074411
H1    H     H_    0.849935 0.383865 0.424674 0.210286
H2    H     H_    0.153312 0.570194 0.617319 0.165112
H3    H     H_    0.947484 0.645095 0.436121 0.194600
H4    H     H_    0.162292 0.642964 0.438165 0.165622
H5    H     H_    0.282691 0.250688 0.042393 0.141339
H6    H     H_    0.446416 0.453377 0.214450 0.160971
H7    H     H_    0.559501 0.739303 0.257643 0.159066
H8    H     H_    0.484859 0.750856 0.954985 0.143329
H9    H     H_    0.306616 0.211267 0.894964 0.133934
H10   H     H_    0.375240 0.260843 0.740554 0.159891
H11   H     H_    0.504653 0.544657 0.788448 0.161077
H12   H     H_    0.841448 0.348255 0.540704 0.208977
H13   H     H_    0.317011 0.363431 0.142650 0.129756
H14   H     H_    0.437611 0.637998 0.854903 0.148334
H15   H     H_    0.533647 0.789516 0.102678 0.134895
H16   H     H_    0.746672 0.015419 0.666623 0.164327
H17   H     H_    0.585011 0.243368 0.509276 0.222581
H18   H     H_    0.264422 0.289512 0.378352 0.139091
H19   H     H_    0.221398 0.967116 0.371207 0.188610
H20   H     H_    0.761020 0.856615 0.690973 0.143020
H21   H     H_    0.698752 0.698057 0.650163 0.171541
H22   H     H_    0.451784 0.772050 0.460320 0.120574
H23   H     H_    0.051076 0.343722 0.531913 0.193297
H24   H     H_    0.326747 0.856540 0.434668 0.129937
H25   H     H_    0.061345 0.387167 0.417250 0.185975
H26   H     H_    0.915915 0.557936 0.364718 0.163172
H27   H     H_    0.129507 0.559188 0.364173 0.164148
H28   H     H_    0.882094 0.466736 0.643262 0.076297
H29   H     H_    0.083287 0.450688 0.641456 0.140386
N1    N     N_R   0.573860 0.731700 0.552730 -0.103314
N2    N     N_R   0.426060 0.268290 0.447230 -0.130568
O1    O     O_R   0.462770 0.383110 0.605620 -0.615753
O2    O     O_R   0.510160 0.531900 0.639510 -0.620092
O3    O     O_R   0.661510 0.425600 0.483070 -0.641033
O4    O     O_R   0.708900 0.574390 0.516960 -0.566906
O5    O     O_R   0.489840 0.468100 0.360490 -0.616117
O6    O     O_R   0.537230 0.616890 0.394380 -0.620533
O7    O     O_R   0.291100 0.425610 0.483040 -0.628645
O8    O     O_R   0.338490 0.574400 0.516930 -0.633624
Zn1   Zn    Zn3+2 0.468350 0.400660 0.477370 0.927448
Zn2   Zn    Zn3+2 0.531650 0.599340 0.522630 0.945342
O9    O     O_3   0.664388 0.154391 0.605187 -0.641964
C47   C     C_3   0.604816 0.158597 0.685673 0.076531
H30   H     H_    0.615391 0.101742 0.737136 0.139675
H31   H     H_    0.499673 0.154136 0.677672 0.142758
C48   C     C_3   0.670282 0.251163 0.716432 -0.844436
H32   H     H_    0.658542 0.309877 0.668076 0.254661
H33   H     H_    0.626149 0.255342 0.780346 0.220798
H34   H     H_    0.775654 0.257372 0.724098 0.251434
O10   O     O_3   0.168366 0.116845 0.338211 -0.615206
C49   C     C_3   0.177373 0.169688 0.254502 0.085452
H35   H     H_    0.275010 0.181610 0.221977 0.129312
H36   H     H_    0.156581 0.237825 0.259101 0.136615
C50   C     C_3   0.076274 0.116934 0.197483 -0.819480
H37   H     H_    0.977503 0.104046 0.227792 0.263557
H38   H     H_    0.080102 0.158481 0.132021 0.200951
H39   H     H_    0.095686 0.049094 0.189835 0.248756
O11   O     O_3   0.916607 0.607609 0.616159 -0.603221
C51   C     C_3   0.026519 0.685390 0.610895 0.124935
H40   H     H_    0.087149 0.693956 0.550748 0.144836
H41   H     H_    0.085216 0.679052 0.669628 0.145838
C52   C     C_3   0.983011 0.774171 0.609611 -0.851714
H42   H     H_    0.929421 0.772080 0.671730 0.243792
H43   H     H_    0.069257 0.835342 0.602736 0.215635
H44   H     H_    0.920056 0.781953 0.553512 0.266872

loop_
_geom_bond_atom_site_label_1
_geom_bond_atom_site_label_2
_ccdc_geom_bond_type
C44   H3    S    
C24   H6    S    
O6    Zn2   S    
C23   O5    A    
C19   C20   A    
C16   H5    S    
C7    H9    S    
C42   H12   S    
O2    Zn2   S    
C49   H35   S    
C7    C8    A    
C45   C46   S    
C7    C11   A    
C51   H41   S    
C23   O6    A    
C30   C35   A    
C1    C5    S    
C26   H21   S    
C36   C37   A    
C19   C21   A    
O7    Zn1   S    
C41   N2    A    
C30   C31   A    
C15   C16   A    
C32   O9    S    
C29   C33   A    
C52   H42   S    
C18   C19   A    
C42   C46   S    
C48   H32   S    
C4    H29   S    
O3    Zn1   S    
C27   H22   S    
C20   C24   A    
C35   H24   S    
C33   H16   S    
C26   N1    A    
C47   H31   S    
C9    C10   A    
C21   H15   S    
O1    Zn1   S    
C43   H23   S    
C21   C22   A    
C1    O1    A    
C8    H10   S    
C34   O7    A    
C50   H38   S    
O11   C51   S    
C49   H36   S    
C3    H4    S    
C44   C46   S    
C22   H7    S    
C4    C45   S    
O8    Zn2   S    
C25   C29   A    
C51   C52   S    
C3    C44   S    
C14   C20   A    
C38   C41   A    
C12   C46   S    
C39   C40   A    
C36   H19   S    
C25   C26   A    
O5    Zn1   S    
C48   H34   S    
C45   H28   S    
C34   O8    A    
C2    C4    S    
C5    C9    A    
C37   C38   A    
C45   O11   S    
C11   C16   A    
C31   C32   A    
C2    C43   S    
C6    C24   A    
O10   C49   S    
C48   H33   S    
C17   C18   A    
C47   C48   S    
N1    Zn2   S    
O4    Zn2   S    
N2    Zn1   S    
C1    O2    A    
C42   C43   S    
C41   H17   S    
C27   N1    A    
C49   C50   S    
C4    H2    S    
C28   C29   A    
C43   H25   S    
C14   C15   A    
C15   H13   S    
C25   H20   S    
C10   C13   A    
C5    C8    A    
C52   H44   S    
C51   H40   S    
C40   H18   S    
C31   C38   A    
C13   C17   A    
C32   C33   A    
C28   C30   A    
C2    C3    S    
C37   C39   A    
C2    C34   S    
C6    C23   S    
C12   O3    A    
C50   H37   S    
C52   H43   S    
C12   O4    A    
C44   H26   S    
C9    H11   S    
C42   H1    S    
C50   H39   S    
C3    H27   S    
C39   O10   S    
C10   C11   A    
C18   H8    S    
C17   H14   S    
O9    C47   S    
C27   C28   A    
C40   N2    A    
C35   C36   A    
C47   H30   S    
C13   C14   A    
C6    C22   A    
