data_mof_unit_30784.cif
_audit_creation_date              2012-10-26T17:46:33-0400
_audit_creation_method            fapswitch 2.2
_symmetry_space_group_name_H-M    P1
_symmetry_Int_Tables_number       1
_space_group_crystal_system       triclinic
_cell_length_a                    18.952496
_cell_length_b                    18.935865
_cell_length_c                    18.983506
_cell_angle_alpha                 110.176964
_cell_angle_beta                  109.452208
_cell_angle_gamma                 109.654017
_cell_volume                      5187.31613265

loop_
_atom_site_label
_atom_site_type_symbol
_atom_type_description
_atom_site_fract_x
_atom_site_fract_y
_atom_site_fract_z
_atom_type_partial_charge
C1    C     C_R   0.382371 0.500004 0.380920 0.545794
C2    C     C_R   0.821883 0.823991 0.575023 -0.138760
C3    C     C_R   0.279185 0.314428 0.735123 -0.166512
C4    C     C_R   0.337838 0.318144 0.806755 -0.017572
C5    C     C_R   0.079081 0.324403 0.822109 -0.131818
C6    C     C_R   0.999494 0.313206 0.814538 -0.009628
C7    C     C_R   0.920709 0.236791 0.743673 -0.039167
C8    C     C_R   0.923603 0.175798 0.679468 -0.165143
C9    C     C_R   0.002892 0.187619 0.686532 -0.009800
C10   C     C_3   0.848604 0.905057 0.942132 -0.254975
C11   C     C_3   0.785371 0.845485 0.957763 -0.289966
C12   C     C_3   0.822582 0.877497 0.054743 -0.450154
C13   C     C_R   0.811694 0.811329 0.494691 -0.007508
C14   C     C_3   0.617339 0.896644 0.486246 0.008025
C15   C     C_3   0.698318 0.930213 0.478915 -0.224472
C16   C     C_3   0.707462 0.001296 0.455991 -0.482965
C17   C     C_3   0.256865 0.336268 0.202359 -0.229729
C18   C     C_3   0.234893 0.289594 0.250325 -0.270336
C19   C     C_3   0.272296 0.229895 0.247420 -0.436177
C20   C     C_3   0.240912 0.644953 0.600968 -0.255698
C21   C     C_3   0.331287 0.725289 0.671258 -0.293679
C22   C     C_3   0.328991 0.809732 0.694394 -0.466829
C23   C     C_3   0.376636 0.208382 0.458564 -0.236440
C24   C     C_R   0.735154 0.738333 0.416190 0.000077
C25   C     C_3   0.466851 0.261024 0.539933 -0.282608
C26   C     C_3   0.532599 0.244850 0.518157 -0.445223
C27   C     C_3   0.313625 0.851021 0.383224 -0.008942
C28   C     C_3   0.290343 0.815637 0.287976 -0.265869
C29   C     C_3   0.364571 0.809806 0.276453 -0.478698
C30   C     C_3   0.140194 0.017971 0.292316 -0.252611
C31   C     C_3   0.179131 0.017563 0.233274 -0.304496
C32   C     C_3   0.120377 0.014866 0.153143 -0.463855
C33   C     C_3   0.794998 0.590105 0.660827 0.006430
C34   C     C_3   0.801384 0.515054 0.603337 -0.272042
C35   C     C_R   0.676788 0.675304 0.422230 -0.094499
C36   C     C_3   0.825892 0.533627 0.540290 -0.482316
C37   C     C_3   0.796692 0.615728 0.016985 -0.253649
C38   C     C_3   0.709042 0.611127 0.978094 -0.317050
C39   C     C_3   0.643201 0.547437 0.987519 -0.465995
C40   C     C_3   0.430315 0.348923 0.826235 -0.251757
C41   C     C_3   0.434859 0.281253 0.757371 -0.305299
C42   C     C_3   0.528913 0.307062 0.783005 -0.470807
C43   C     C_3   0.368398 0.226929 0.915161 0.015260
C44   C     C_3   0.417627 0.230907 0.999916 -0.251392
C45   C     C_3   0.418685 0.146407 0.982191 -0.498164
C46   C     C_R   0.686863 0.688224 0.503038 0.015996
C47   C     C_3   0.140833 0.163150 0.855173 0.018367
C48   C     C_3   0.148074 0.135311 0.922732 -0.264647
C49   C     C_3   0.076786 0.041101 0.881519 -0.488213
C50   C     C_3   0.495341 0.608276 0.225065 0.024706
C51   C     C_3   0.411332 0.609639 0.185797 -0.246404
C52   C     C_3   0.336166 0.519061 0.109674 -0.470727
C53   C     C_3   0.509684 0.640070 0.049457 -0.007490
C54   C     C_3   0.422584 0.629098 0.993707 -0.257655
C55   C     C_3   0.376225 0.554208 0.899874 -0.489254
C56   C     C_R   0.758933 0.765633 0.580781 -0.009890
C57   C     C_R   0.633755 0.708629 0.267397 0.300325
C58   C     C_R   0.623046 0.710616 0.190529 0.287652
C59   C     C_R   0.692376 0.726551 0.174482 -0.148599
C60   C     C_R   0.620805 0.619674 0.502510 0.536254
C61   C     C_R   0.821879 0.863864 0.847041 0.034290
C62   C     C_R   0.767036 0.731961 0.228284 -0.165209
C63   C     C_R   0.778639 0.731780 0.304482 -0.129739
C64   C     C_R   0.715083 0.725658 0.328019 -0.005243
C65   C     C_R   0.422754 0.788316 0.539336 -0.183639
C66   C     C_R   0.360254 0.705212 0.465969 -0.108224
C67   C     C_R   0.382341 0.662573 0.407745 -0.001820
C68   C     C_R   0.467712 0.703790 0.424232 -0.045924
C69   C     C_R   0.529191 0.788613 0.495358 0.278231
C70   C     C_R   0.506969 0.829954 0.554241 -0.122232
C71   C     C_R   0.251881 0.575920 0.262609 -0.168144
C72   C     C_R   0.081780 0.261078 0.759920 -0.014606
C73   C     C_R   0.618698 0.501333 0.618306 0.546384
C74   C     C_R   0.186237 0.497939 0.185525 -0.005131
C75   C     C_R   0.181752 0.418174 0.171131 -0.027755
C76   C     C_R   0.250895 0.418902 0.230379 -0.038402
C77   C     C_R   0.315691 0.498433 0.311767 -0.000240
C78   C     C_R   0.314915 0.576835 0.327282 -0.048518
C79   C     C_R   0.044900 0.282435 0.114294 -0.083152
C80   C     C_R   0.971152 0.201858 0.046222 -0.121466
C81   C     C_R   0.954265 0.172096 0.960853 -0.107801
C82   C     C_R   0.011137 0.222885 0.943576 -0.090797
C83   C     C_R   0.783478 0.141356 0.731400 -0.095406
C84   C     C_R   0.085451 0.303399 0.011559 -0.069701
C85   C     C_R   0.381285 0.380135 0.499815 0.538527
C86   C     C_R   0.102654 0.333596 0.097421 0.044383
C87   C     C_R   0.261989 0.536136 0.640031 -0.107619
C88   C     C_R   0.264967 0.459352 0.619504 -0.108500
C89   C     C_R   0.248976 0.406392 0.536470 0.053375
C90   C     C_R   0.228354 0.430576 0.473694 -0.067759
C91   C     C_R   0.226479 0.508100 0.494536 -0.085876
C92   C     C_R   0.243641 0.561704 0.578079 0.024951
C93   C     C_R   0.187223 0.259007 0.513216 -0.171859
C94   C     C_R   0.700633 0.120335 0.719328 -0.123350
C95   C     C_R   0.185704 0.181207 0.497402 -0.010683
C96   C     C_R   0.246241 0.164479 0.479142 -0.021620
C97   C     C_R   0.744101 0.848752 0.784806 -0.112834
C98   C     C_R   0.311206 0.228543 0.478583 -0.030480
C99   C     C_R   0.314125 0.310288 0.498099 -0.002210
C100  C     C_R   0.251038 0.324290 0.515295 -0.047492
C101  C     C_R   0.283762 0.065294 0.520352 -0.131187
C102  C     C_R   0.284744 0.987517 0.499281 -0.118507
C103  C     C_R   0.240486 0.920950 0.412106 0.278908
C104  C     C_R   0.192388 0.931280 0.346557 -0.076809
C105  C     C_R   0.667938 0.174466 0.709540 -0.113843
C106  C     C_R   0.191147 0.009351 0.366345 -0.025683
C107  C     C_R   0.237667 0.077250 0.454694 0.033660
C108  C     C_2   0.738774 0.463884 0.793328 -0.170752
C109  C     C_R   0.721286 0.813222 0.697178 -0.066458
C110  C     C_2   0.820103 0.489687 0.809325 -0.097186
C111  C     C_2   0.673372 0.461875 0.722583 -0.140967
C112  C     C_2   0.691786 0.509655 0.685899 0.270216
C113  C     C_R   0.998601 0.878983 0.381439 0.552297
C114  C     C_R   0.880473 0.878992 0.497124 0.537063
C115  C     C_R   0.001113 0.120029 0.618565 0.548136
C116  C     C_R   0.718102 0.249673 0.711865 -0.105235
C117  C     C_R   0.118739 0.117221 0.499053 0.563951
C118  C     C_R   0.001692 0.380815 0.883254 0.540940
C119  C     C_R   0.121015 0.500443 0.121307 0.545744
C120  C     C_R   0.003435 0.618836 0.121664 0.554391
C121  C     C_R   0.774354 0.789479 0.669833 0.030847
C122  C     C_R   0.885233 0.497479 0.883161 0.544897
C123  C     C_R   0.109463 0.781802 0.556087 -0.120544
C124  C     C_R   0.104505 0.789019 0.483928 -0.051578
C125  C     C_R   0.024514 0.739630 0.405564 0.048281
C126  C     C_R   0.950773 0.680179 0.399075 -0.111750
C127  C     C_R   0.801185 0.271198 0.724192 -0.059213
C128  C     C_R   0.956033 0.672914 0.471157 -0.110703
C129  C     C_R   0.035257 0.723942 0.549804 -0.101110
C130  C     C_R   0.019868 0.687166 0.265486 -0.116511
C131  C     C_R   0.002602 0.685434 0.187344 0.007667
C132  C     C_R   0.978152 0.742441 0.170150 -0.051553
C133  C     C_R   0.852658 0.805972 0.732554 -0.135214
C134  C     C_R   0.974700 0.803594 0.233564 -0.181756
C135  C     C_R   0.996706 0.809258 0.314330 -0.006719
C136  C     C_R   0.016908 0.748368 0.329376 -0.007263
C137  C     C_R   0.019667 0.784376 0.074415 -0.079853
C138  C     C_R   0.834568 0.217269 0.734426 0.051353
C139  C     C_R   0.001189 0.780162 0.995220 -0.131517
C140  C     C_R   0.916146 0.727855 0.925580 -0.098321
C141  C     C_R   0.849638 0.678638 0.934417 -0.080570
C142  C     C_R   0.866960 0.680932 0.013530 0.018873
C143  C     C_R   0.953400 0.737028 0.085173 0.040086
C144  C     C_R   0.310012 0.296561 0.860755 0.289443
C145  C     C_R   0.876434 0.843262 0.820198 -0.105551
C146  C     C_R   0.224569 0.273127 0.843145 0.289615
C147  C     C_R   0.167808 0.274238 0.773252 0.000944
C148  C     C_R   0.195386 0.293524 0.718995 -0.153618
Cu1   Cu    Cu3+1 0.499580 0.561790 0.561390 0.931896
Cu2   Cu    Cu3+1 0.500420 0.438210 0.438610 0.837099
Cu3   Cu    Cu3+1 0.061410 0.999960 0.561370 0.895888
Cu4   Cu    Cu3+1 0.938590 1.000000 0.438590 0.905430
Cu5   Cu    Cu3+1 0.065060 0.561820 0.003180 0.893299
Cu6   Cu    Cu3+1 0.941450 0.438250 0.003210 0.934920
H1    H     H_    0.689146 0.735122 0.120418 0.104606
H2    H     H_    0.057273 0.304991 0.180254 0.098541
H3    H     H_    0.859640 0.650379 0.697767 0.139080
H4    H     H_    0.748575 0.603160 0.621221 0.150978
H5    H     H_    0.851772 0.507258 0.645123 0.150880
H6    H     H_    0.738388 0.452614 0.565300 0.173766
H7    H     H_    0.776450 0.541720 0.497588 0.158185
H8    H     H_    0.829349 0.478297 0.498856 0.144559
H9    H     H_    0.890496 0.594089 0.577183 0.135116
H10   H     H_    0.632607 0.480898 0.952742 0.152665
H11   H     H_    0.666464 0.568226 0.057085 0.159212
H12   H     H_    0.580351 0.544853 0.958863 0.126946
H13   H     H_    0.927120 0.162502 0.059660 0.095723
H14   H     H_    0.717997 0.677064 0.011374 0.155310
H15   H     H_    0.681613 0.587587 0.907559 0.157770
H16   H     H_    0.787652 0.550236 0.980805 0.159107
H17   H     H_    0.817058 0.630941 0.084859 0.150122
H18   H     H_    0.563648 0.371924 0.790810 0.150131
H19   H     H_    0.562620 0.309963 0.845183 0.149251
H20   H     H_    0.530620 0.257969 0.731644 0.133509
H21   H     H_    0.401190 0.216098 0.749665 0.150499
H22   H     H_    0.401996 0.276060 0.693647 0.162827
H23   H     H_    0.456322 0.411508 0.827125 0.131003
H24   H     H_    0.897191 0.109672 0.908092 0.101689
H25   H     H_    0.472670 0.362534 0.891773 0.177971
H26   H     H_    0.401934 0.218269 0.877424 0.119885
H27   H     H_    0.301374 0.169162 0.876605 0.124174
H28   H     H_    0.485689 0.286641 0.038097 0.163028
H29   H     H_    0.385981 0.241819 0.039314 0.170903
H30   H     H_    0.351229 0.090128 0.945930 0.138397
H31   H     H_    0.455356 0.151642 0.044977 0.142870
H32   H     H_    0.450844 0.134593 0.943575 0.142833
H33   H     H_    0.153283 0.122550 0.807618 0.122911
H34   H     H_    0.073503 0.149007 0.819284 0.146029
H35   H     H_    0.997606 0.199282 0.877415 0.114120
H36   H     H_    0.212695 0.141406 0.953167 0.155393
H37   H     H_    0.142811 0.178972 0.974878 0.178962
H38   H     H_    0.011590 0.034263 0.853042 0.154659
H39   H     H_    0.084428 0.022785 0.932080 0.138269
H40   H     H_    0.081175 0.995726 0.829639 0.142531
H41   H     H_    0.487928 0.572355 0.260020 0.118412
H42   H     H_    0.502922 0.569211 0.171628 0.123593
H43   H     H_    0.394195 0.631935 0.236340 0.151425
H44   H     H_    0.420856 0.657035 0.163350 0.210583
H45   H     H_    0.350836 0.496264 0.056937 0.164746
H46   H     H_    0.129713 0.341817 0.997660 0.123641
H47   H     H_    0.276083 0.521803 0.082823 0.163093
H48   H     H_    0.324642 0.471288 0.131768 0.163112
H49   H     H_    0.498432 0.576300 0.044193 0.128301
H50   H     H_    0.551192 0.658794 0.021913 0.125541
H51   H     H_    0.379539 0.615213 0.020794 0.164237
H52   H     H_    0.434034 0.690801 0.994049 0.165105
H53   H     H_    0.417531 0.565881 0.870430 0.141076
H54   H     H_    0.314317 0.549048 0.860519 0.143939
H55   H     H_    0.360998 0.491460 0.898160 0.162516
H56   H     H_    0.274009 0.575681 0.704353 0.097885
H57   H     H_    0.279844 0.441304 0.668495 0.097511
H58   H     H_    0.213317 0.389315 0.408678 0.078906
H59   H     H_    0.211246 0.525919 0.445336 0.099316
H60   H     H_    0.663813 0.807127 0.651412 0.159248
H61   H     H_    0.817126 0.739056 0.211836 0.137227
H62   H     H_    0.138618 0.269549 0.525498 0.119814
H63   H     H_    0.320084 0.116911 0.587886 0.108285
H64   H     H_    0.320689 0.979216 0.550554 0.098038
H65   H     H_    0.156706 0.878289 0.279780 0.121726
H66   H     H_    0.718335 0.442171 0.832743 0.128111
H67   H     H_    0.841484 0.506258 0.768258 0.159588
H68   H     H_    0.606276 0.420633 0.702090 0.061718
H69   H     H_    0.897126 0.793037 0.713903 0.088901
H70   H     H_    0.039196 0.718563 0.605763 0.094432
H71   H     H_    0.170592 0.821604 0.617083 0.088260
H72   H     H_    0.839063 0.740162 0.347207 0.119502
H73   H     H_    0.162262 0.834257 0.489721 0.146664
H74   H     H_    0.889180 0.639742 0.338277 0.093050
H75   H     H_    0.898533 0.627820 0.465809 0.104227
H76   H     H_    0.034629 0.639877 0.276192 0.120740
H77   H     H_    0.954051 0.846343 0.219479 0.122230
H78   H     H_    0.086290 0.822038 0.126716 0.100720
H79   H     H_    0.053010 0.816779 0.987620 0.095856
H80   H     H_    0.938488 0.857765 0.867336 0.088840
H81   H     H_    0.902080 0.723450 0.863777 0.154863
H82   H     H_    0.784942 0.637342 0.878254 0.152603
H83   H     H_    0.554526 0.894703 0.610695 0.095697
H84   H     H_    0.152536 0.294780 0.665514 0.114981
H85   H     H_    0.299777 0.330908 0.693455 0.129579
H86   H     H_    0.139601 0.381881 0.877890 0.132394
H87   H     H_    0.863609 0.117542 0.624448 0.120928
H88   H     H_    0.878365 0.882423 0.634361 0.120336
H89   H     H_    0.807881 0.098550 0.738393 0.097808
H90   H     H_    0.661686 0.061926 0.717249 0.093520
H91   H     H_    0.603630 0.157989 0.699827 0.096457
H92   H     H_    0.692240 0.290895 0.703599 0.106946
H93   H     H_    0.838995 0.329092 0.724799 0.089604
H94   H     H_    0.405518 0.821538 0.583653 0.116677
H95   H     H_    0.622309 0.615727 0.363262 0.122256
H96   H     H_    0.882470 0.874118 0.081079 0.155851
H97   H     H_    0.838218 0.945963 0.091227 0.150953
H98   H     H_    0.774085 0.835539 0.064427 0.134249
H99   H     H_    0.722739 0.844181 0.931701 0.149802
H100  H     H_    0.771897 0.777644 0.923231 0.175185
H101  H     H_    0.915228 0.918826 0.981691 0.139331
H102  H     H_    0.850907 0.968762 0.964603 0.127899
H103  H     H_    0.623092 0.952189 0.538799 0.123031
H104  H     H_    0.559649 0.871278 0.422763 0.139065
H105  H     H_    0.294573 0.674580 0.453984 0.118438
H106  H     H_    0.756928 0.956741 0.541653 0.161673
H107  H     H_    0.693495 0.875193 0.427083 0.219689
H108  H     H_    0.650489 0.974878 0.392061 0.148439
H109  H     H_    0.767104 0.024803 0.451638 0.176657
H110  H     H_    0.712387 0.057395 0.506830 0.141476
H111  H     H_    0.241843 0.176936 0.179240 0.132977
H112  H     H_    0.343761 0.267029 0.275579 0.178454
H113  H     H_    0.259214 0.202014 0.287151 0.145943
H114  H     H_    0.261360 0.336842 0.319386 0.178020
H115  H     H_    0.163214 0.250214 0.219790 0.138163
H116  H     H_    0.485974 0.671372 0.380637 0.139576
H117  H     H_    0.212861 0.288440 0.131525 0.130847
H118  H     H_    0.321788 0.352535 0.209669 0.166222
H119  H     H_    0.304161 0.814819 0.635555 0.145638
H120  H     H_    0.286507 0.811545 0.722748 0.146118
H121  H     H_    0.395674 0.866717 0.743139 0.135037
H122  H     H_    0.355405 0.722022 0.731359 0.153912
H123  H     H_    0.377711 0.726582 0.647549 0.171361
H124  H     H_    0.217044 0.650574 0.542230 0.138136
H125  H     H_    0.194313 0.642936 0.624628 0.139864
H126  H     H_    0.513659 0.175033 0.492509 0.138406
H127  H     H_    0.252853 0.636347 0.273191 0.121894
H128  H     H_    0.536475 0.262471 0.468944 0.166208
H129  H     H_    0.597880 0.285796 0.577718 0.137585
H130  H     H_    0.489327 0.331466 0.569372 0.180245
H131  H     H_    0.463287 0.242021 0.588358 0.146480
H132  H     H_    0.357523 0.138769 0.432491 0.138361
H133  H     H_    0.378636 0.217425 0.404636 0.160144
H134  H     H_    0.333713 0.810420 0.405234 0.164686
H135  H     H_    0.371257 0.918898 0.425640 0.112779
H136  H     H_    0.230994 0.749524 0.246310 0.193889
H137  H     H_    0.276553 0.859347 0.266213 0.143051
H138  H     H_    0.702371 0.866777 0.804505 0.090533
H139  H     H_    0.423710 0.875821 0.315227 0.139225
H140  H     H_    0.345297 0.782411 0.206691 0.151384
H141  H     H_    0.379903 0.766485 0.297822 0.144823
H142  H     H_    0.055117 0.955195 0.114927 0.154652
H143  H     H_    0.112063 0.072573 0.172823 0.154012
H144  H     H_    0.149299 0.014319 0.110958 0.133250
H145  H     H_    0.244748 0.076150 0.270184 0.148768
H146  H     H_    0.188167 0.960702 0.211602 0.144246
H147  H     H_    0.072351 0.962811 0.253323 0.143047
H148  H     H_    0.136799 0.078407 0.316304 0.154707
O1    O     O_R   0.410050 0.552190 0.462250 -0.491989
O2    O     O_R   0.951650 0.357670 0.913630 -0.488314
O3    O     O_R   0.145040 0.552210 0.092780 -0.528726
O4    O     O_R   0.410760 0.447830 0.358560 -0.525053
O5    O     O_R   0.040660 0.447850 0.092810 -0.496668
O6    O     O_R   0.054850 0.642400 0.092760 -0.510705
O7    O     O_R   0.950470 0.538040 0.092790 -0.520596
O8    O     O_R   0.965850 0.552220 0.913580 -0.499455
O9    O     O_R   0.861470 0.447860 0.913610 -0.512232
O10   O     O_R   0.589820 0.642360 0.551840 -0.501838
O11   O     O_R   0.590530 0.538000 0.448150 -0.526901
O12   O     O_R   0.948740 0.909840 0.358530 -0.514780
O13   O     O_R   0.589240 0.552170 0.641440 -0.509181
O14   O     O_R   0.589950 0.447810 0.537750 -0.538626
O15   O     O_R   0.409470 0.462000 0.551850 -0.496442
O16   O     O_R   0.410180 0.357640 0.448160 -0.531669
O17   O     O_R   0.052450 0.909800 0.462220 -0.498234
O18   O     O_3   0.610781 0.830273 0.506343 -0.569734
O19   O     O_3   0.240003 0.843279 0.390916 -0.590908
O20   O     O_3   0.776548 0.576398 0.722922 -0.617322
O21   O     O_3   0.367828 0.305782 0.935591 -0.566360
O22   O     O_3   0.199756 0.254087 0.898271 -0.569960
O23   O     O_R   0.961680 0.909780 0.551820 -0.511862
O24   O     O_3   0.566929 0.695190 0.285724 -0.566010
O25   O     O_3   0.548089 0.705699 0.137356 -0.564279
O26   O     O_R   0.857970 0.909820 0.448140 -0.509323
O27   O     O_R   0.051260 0.090120 0.641420 -0.524959
O28   O     O_R   0.947550 0.090150 0.537740 -0.517987
O29   O     O_R   0.142030 0.090140 0.551820 -0.503164
O30   O     O_R   0.038320 0.090170 0.448130 -0.513603
O31   O     O_R   0.056040 0.462030 0.913600 -0.522661

loop_
_geom_bond_atom_site_label_1
_geom_bond_atom_site_label_2
_ccdc_geom_bond_type
C101  C107  A    
C27   O19   S    
C1    C77   S    
C120  O7    A    
C105  C116  A    
C112  O20   S    
C20   H125  S    
C26   H126  S    
C22   H121  S    
C55   H54   S    
C20   C92   S    
Cu4   O28   S    
C101  C102  A    
C148  H84   S    
C73   O13   A    
C84   C86   A    
C81   H24   S    
C5    C6    A    
C106  C107  A    
C47   O22   S    
C52   H47   S    
C62   H61   S    
C51   H43   S    
C27   H134  S    
C30   H148  S    
C17   C76   S    
C70   H83   S    
C21   C22   S    
Cu2   O14   S    
C50   O24   S    
C43   H26   S    
C37   C142  S    
C51   C52   S    
C53   H50   S    
C140  C141  A    
Cu6   O5    S    
C39   H11   S    
C75   C76   A    
C4    C144  A    
C37   C38   S    
C21   H123  S    
C55   H55   S    
C117  O30   A    
C50   H41   S    
C75   C86   S    
C54   H51   S    
C114  O26   A    
C93   C100  A    
C19   H112  S    
C41   H22   S    
C82   C84   A    
C36   H7    S    
C87   H56   S    
C10   C61   S    
C133  C145  A    
C21   H122  S    
C118  O31   A    
C33   H4    S    
C38   H15   S    
C146  C147  A    
Cu4   O30   S    
C46   C60   S    
C14   H103  S    
C60   O10   A    
C139  C140  A    
C6    C7    A    
C123  H71   S    
C57   O24   S    
C108  C111  S    
C130  C131  A    
C91   H59   S    
C45   H31   S    
C122  O9    A    
C69   C70   A    
C85   O15   A    
C115  O28   A    
C88   C89   A    
C132  C134  A    
C98   C99   A    
C113  C135  S    
C39   H10   S    
C110  H67   S    
C83   C138  A    
C45   H30   S    
C5    H86   S    
C111  C112  D    
C9    C72   A    
C17   H117  S    
C109  C121  A    
C128  C129  A    
C123  C124  A    
C53   C54   S    
C95   C117  S    
C53   H49   S    
C12   H97   S    
C119  O5    A    
C15   H107  S    
C20   H124  S    
C5    C72   A    
C38   C39   S    
C65   C70   A    
C11   H100  S    
C48   H37   S    
C11   H99   S    
C4    C40   S    
Cu1   O1    S    
C96   C98   A    
C139  H79   S    
C36   H9    S    
C22   H119  S    
C34   H5    S    
C66   C67   A    
C93   C95   A    
C93   H62   S    
C137  H78   S    
C146  O22   S    
C109  H60   S    
C42   H20   S    
C29   H139  S    
C91   C92   A    
C32   H144  S    
C25   C26   S    
C43   H27   S    
C111  H68   S    
C104  H65   S    
C85   C99   S    
C97   C109  A    
Cu1   O15   S    
C31   C32   S    
C17   C18   S    
C20   C21   S    
C2    H88   S    
C44   H29   S    
C105  H91   S    
C42   H18   S    
C65   H94   S    
C116  H92   S    
C82   H35   S    
C47   H33   S    
C3    C4    A    
C124  H73   S    
C73   C112  S    
C19   H113  S    
C54   C55   S    
C126  C128  A    
C119  O3    A    
Cu5   O8    S    
C37   H17   S    
C134  C135  A    
C72   C147  S    
C55   H53   S    
C99   C100  A    
C144  O21   S    
C2    C56   A    
C57   C58   A    
C8    H87   S    
C108  C110  D    
C34   C36   S    
C25   H131  S    
C102  C103  A    
C26   H128  S    
C10   C11   S    
C102  H64   S    
C63   C64   A    
C23   H132  S    
C23   C98   S    
Cu4   O26   S    
C46   C56   A    
C14   C15   S    
C145  H80   S    
C15   H106  S    
C34   H6    S    
Cu1   O10   S    
C87   C88   A    
C94   C105  A    
C128  H75   S    
C120  C131  S    
C41   C42   S    
C29   H141  S    
C104  C106  A    
Cu5   O6    S    
C135  C136  A    
C49   H38   S    
C77   C78   A    
C38   H14   S    
C137  C139  A    
C10   H102  S    
C32   H143  S    
C28   C29   S    
C30   C31   S    
C49   H40   S    
C130  H76   S    
C53   O25   S    
C83   H89   S    
C12   H96   S    
C18   C19   S    
C61   C145  A    
C117  O29   A    
C16   H109  S    
C50   H42   S    
C147  C148  A    
C68   C69   A    
C54   H52   S    
C116  C127  A    
Cu3   Cu4   S    
C127  C138  A    
C48   H36   S    
C13   C114  S    
C19   H111  S    
C132  C143  S    
C41   H21   S    
C24   C64   S    
C87   C92   A    
C36   H8    S    
C129  H70   S    
C33   H3    S    
C32   H142  S    
C130  C136  A    
C89   C100  S    
C67   C68   A    
C9    C115  S    
C7    C8    A    
C73   O14   A    
C144  C146  A    
C14   H104  S    
C58   C59   A    
C83   C94   A    
C10   H101  S    
C71   H127  S    
C62   C63   A    
C51   H44   S    
C40   H25   S    
C30   H147  S    
Cu6   O2    S    
Cu2   O4    S    
Cu3   O17   S    
C50   C51   S    
C27   H135  S    
C115  O27   A    
C125  C136  S    
C48   C49   S    
C96   C107  S    
C125  C126  A    
C113  O17   A    
C127  H93   S    
C131  C132  A    
C44   H28   S    
C44   C45   S    
C3    H85   S    
C61   C97   A    
C28   H137  S    
C7    C138  S    
C60   O11   A    
C12   H98   S    
C18   H115  S    
C39   H12   S    
Cu1   Cu2   S    
C110  C122  S    
C90   H58   S    
C90   C91   A    
C133  H69   S    
C33   O20   S    
C108  H66   S    
C103  C104  A    
C142  C143  A    
C89   C90   A    
C35   C46   A    
C79   C86   A    
C22   H120  S    
Cu3   O29   S    
C23   H133  S    
C95   C96   A    
C122  O8    A    
C43   C44   S    
C14   O18   S    
C81   C82   A    
C84   H46   S    
C74   C119  S    
C113  O12   A    
C69   O18   S    
Cu5   O3    S    
C45   H32   S    
C15   C16   S    
C35   H95   S    
Cu4   O12   S    
C2    C13   A    
C94   H90   S    
C71   C74   A    
C79   H2    S    
C8    C9    A    
C88   H57   S    
Cu3   O23   S    
C80   H13   S    
C52   H48   S    
C16   H108  S    
Cu6   O9    S    
Cu2   O11   S    
C85   O16   A    
C3    C148  A    
C123  C129  A    
C67   C78   S    
C17   H118  S    
Cu5   O31   S    
Cu1   O13   S    
C63   H72   S    
C24   C35   A    
C74   C75   A    
C76   C77   A    
C43   O21   S    
C66   H105  S    
C31   H146  S    
C37   H16   S    
C59   H1    S    
C40   H23   S    
C13   C24   A    
C114  O23   A    
C68   H116  S    
C140  H81   S    
C47   C48   S    
C33   C34   S    
C120  O6    A    
C118  O2    A    
C52   H45   S    
C134  H77   S    
C25   H130  S    
C26   H129  S    
C31   H145  S    
Cu3   O27   S    
C40   C41   S    
C58   O25   S    
C57   C64   A    
C59   C62   A    
C103  O19   S    
C126  H74   S    
C80   C81   A    
C42   H19   S    
C29   H140  S    
C11   C12   S    
Cu2   O16   S    
C1    O4    A    
C97   H138  S    
C56   C121  S    
C47   H34   S    
C28   H136  S    
C141  C142  A    
C18   H114  S    
C49   H39   S    
C141  H82   S    
C23   C25   S    
C137  C143  A    
C79   C80   A    
C16   H110  S    
Cu6   O7    S    
C101  H63   S    
C65   C66   A    
C27   C28   S    
C1    O1    A    
C121  C133  A    
Cu5   Cu6   S    
C6    C118  S    
C71   C78   A    
C30   C106  S    
C124  C125  A    
