data_mof_unit_65537.cif
_audit_creation_date              2012-12-10T17:46:07-0500
_audit_creation_method            fapswitch 2.2
_symmetry_space_group_name_H-M    P1
_symmetry_Int_Tables_number       1
_space_group_crystal_system       triclinic
_cell_length_a                    16.04167
_cell_length_b                    17.961272
_cell_length_c                    17.957692
_cell_angle_alpha                 115.633707
_cell_angle_beta                  99.3
_cell_angle_gamma                 76.086291
_cell_volume                      4518.19791687

loop_
_atom_site_label
_atom_site_type_symbol
_atom_type_description
_atom_site_fract_x
_atom_site_fract_y
_atom_site_fract_z
_atom_type_partial_charge
Br1   Br    Br    0.618962 0.150067 0.269478 -0.455364
Br2   Br    Br    0.645707 0.708247 0.141097 -0.568234
C1    C     C_R   0.462118 0.456299 0.281047 0.502546
C2    C     C_R   0.532949 0.533771 0.925163 0.003087
C3    C     C_R   0.577375 0.599458 0.978432 0.063911
C4    C     C_R   0.537771 0.543031 0.719134 0.505857
C5    C     C_R   0.502120 0.486655 0.958057 0.026553
C6    C     C_R   0.509744 0.510470 0.045219 0.005269
C7    C     C_R   0.552894 0.577159 0.096145 -0.099755
C8    C     C_R   0.587065 0.620190 0.063773 0.156769
C9    C     C_R   0.465910 0.415061 0.906294 -0.122449
C10   C     C_R   0.435350 0.370136 0.938610 -0.123069
C11   C     C_R   0.439646 0.394182 0.023558 0.053331
C12   C     C_1   0.889419 0.476131 0.476594 -0.030883
C13   C     C_R   0.475966 0.465166 0.078319 0.037814
C14   C     C_R   0.409378 0.346363 0.054100 -0.120509
C15   C     C_R   0.415450 0.367394 0.138627 -0.111583
C16   C     C_R   0.461851 0.723473 0.548290 0.500838
C17   C     C_R   0.477912 0.487028 0.164106 -0.115817
C18   C     C_R   0.547787 0.184079 0.425922 0.025858
C19   C     C_R   0.448083 0.812869 0.568416 0.040440
C20   C     C_R   0.583570 0.038537 0.327737 -0.091458
C21   C     C_R   0.580370 0.123546 0.349580 0.158695
C22   C     C_R   0.520039 0.156846 0.478516 -0.156973
C23   C     C_1   0.110687 0.525000 0.521680 -0.035742
C24   C     C_R   0.520799 0.071108 0.456240 0.023110
C25   C     C_R   0.553803 0.012039 0.379552 0.012507
C26   C     C_R   0.489874 0.042292 0.507527 0.043569
C27   C     C_R   0.494600 0.954130 0.481403 0.035095
C28   C     C_R   0.537211 0.275899 0.451450 0.522576
C29   C     C_R   0.527650 0.898028 0.403946 -0.120113
C30   C     C_R   0.556530 0.926660 0.354376 -0.113261
C31   C     C_R   0.453943 0.098549 0.583714 -0.128683
C32   C     C_R   0.426390 0.069822 0.633990 -0.126946
C33   C     C_R   0.433210 0.984177 0.610766 0.050010
C34   C     C_1   0.814030 0.480893 0.481028 0.028247
C35   C     C_R   0.466544 0.925018 0.533868 0.034056
C36   C     C_R   0.407746 0.957150 0.664672 -0.123391
C37   C     C_R   0.416189 0.871755 0.643969 -0.121776
C38   C     C_R   0.472176 0.838780 0.513605 -0.116247
C39   C     C_R   0.276191 0.513675 0.513022 0.501633
C40   C     C_R   0.724377 0.486588 0.486492 0.509228
C41   C     C_1   0.186252 0.519905 0.517716 0.024916
C42   C     C_2   0.020435 0.530870 0.526396 -0.116460
C43   C     C_2   0.979541 0.470521 0.471542 -0.113863
C44   C     C_R   0.553061 0.562202 0.808103 0.019405
C45   C     C_R   0.449312 0.437803 0.193361 0.042300
C46   C     C_R   0.610871 0.643325 0.945064 -0.100761
C47   C     C_R   0.599491 0.624307 0.860742 -0.135430
C48   C     C_R   0.519652 0.518235 0.840551 -0.125440
H1    H     H_    0.013630 0.416269 0.422522 0.143999
H2    H     H_    0.497920 0.204531 0.536801 0.132250
H3    H     H_    0.986361 0.585083 0.575460 0.142448
H4    H     H_    0.531994 0.831042 0.378889 0.122205
H5    H     H_    0.445619 0.165821 0.607039 0.106494
H6    H     H_    0.382625 0.002145 0.723540 0.113324
H7    H     H_    0.502448 0.540847 0.210169 0.096084
H8    H     H_    0.394129 0.328657 0.161394 0.124465
H9    H     H_    0.408769 0.315359 0.896410 0.106578
H10   H     H_    0.645917 0.692870 0.983543 0.178189
H11   H     H_    0.625905 0.659273 0.837026 0.146210
H12   H     H_    0.563453 0.596688 0.162020 0.140891
H13   H     H_    0.481511 0.473470 0.798376 0.132005
H14   H     H_    0.462491 0.389718 0.839781 0.105232
H15   H     H_    0.382460 0.291689 0.012373 0.114577
H16   H     H_    0.581325 0.881253 0.295491 0.169091
H17   H     H_    0.497448 0.789564 0.457152 0.097758
H18   H     H_    0.398121 0.851526 0.686851 0.114621
H19   H     H_    0.400142 0.115330 0.692226 0.107979
H20   H     H_    0.608428 0.992750 0.268982 0.161359
O1    O     O_3   0.500000 0.500000 0.500000 -0.449312
O2    O     O_R   0.299440 0.550140 0.473730 -0.534803
O3    O     O_R   0.684420 0.431670 0.431640 -0.521965
O4    O     O_R   0.331720 0.471780 0.548240 -0.535716
O5    O     O_R   0.684420 0.546410 0.546380 -0.537441
O6    O     O_R   0.525630 0.690350 0.582790 -0.537784
O7    O     O_R   0.571070 0.303900 0.411450 -0.486382
O8    O     O_R   0.412800 0.516450 0.332470 -0.538111
O9    O     O_R   0.490500 0.489300 0.673290 -0.546779
O10   O     O_R   0.525640 0.414150 0.306600 -0.517212
O11   O     O_R   0.571060 0.580100 0.687640 -0.545651
O12   O     O_R   0.412790 0.677900 0.493930 -0.534488
O13   O     O_R   0.490510 0.327840 0.511830 -0.555700
Zn1   Zn    Zn3+2 0.569080 0.577860 0.577850 0.946663
Zn2   Zn    Zn3+2 0.407860 0.560080 0.450890 0.951296
Zn3   Zn    Zn3+2 0.453980 0.448130 0.557350 0.935789
Zn4   Zn    Zn3+2 0.569080 0.413920 0.413920 0.998427

loop_
_geom_bond_atom_site_label_1
_geom_bond_atom_site_label_2
_ccdc_geom_bond_type
C31   H5    S    
C22   H2    S    
C16   C19   S    
C37   H18   S    
C34   C40   S    
C23   C41   T    
O2    Zn2   S    
C5    C6    A    
C18   C28   S    
C17   H7    S    
C5    C9    A    
C44   C47   A    
C24   C25   A    
C26   C27   A    
C33   C35   A    
C22   C24   A    
O10   Zn4   S    
C12   C34   T    
C36   C37   A    
C17   C45   A    
O5    Zn1   S    
C43   H1    S    
C32   C33   A    
C28   O13   A    
O3    Zn4   S    
C39   O4    A    
O1    Zn2   S    
C28   O7    A    
C42   H3    S    
C18   C22   A    
C14   C15   A    
C38   H17   S    
C7    C8    A    
C15   H8    S    
C4    O11   A    
C48   H13   S    
C39   C41   S    
O6    Zn1   S    
C2    C5    A    
C1    O10   A    
C23   C42   S    
C46   H10   S    
C12   C43   S    
C3    C46   A    
C47   H11   S    
C7    H12   S    
C33   C36   A    
C9    H14   S    
C6    C7    A    
C2    C48   A    
C13   C17   A    
O1    Zn3   S    
C29   C30   A    
C19   C37   A    
C18   C21   A    
C31   C32   A    
C40   O5    A    
O4    Zn3   S    
C32   H19   S    
C39   O2    A    
O1    Zn4   S    
O8    Zn2   S    
C46   C47   A    
C26   C31   A    
Br1   C21   S    
C6    C13   A    
C20   C25   A    
C11   C13   A    
Br2   C8    S    
O11   Zn1   S    
C42   C43   D    
C30   H16   S    
O1    Zn1   S    
C40   O3    A    
C16   O6    A    
C4    C44   S    
C25   C30   A    
C15   C45   A    
C2    C3    A    
C9    C10   A    
C35   C38   A    
O12   Zn2   S    
C44   C48   A    
C24   C26   A    
C3    C8    A    
C27   C29   A    
C4    O9    A    
C19   C38   A    
C1    C45   S    
C16   O12   A    
C10   H9    S    
C29   H4    S    
O13   Zn3   S    
C36   H6    S    
C10   C11   A    
O7    Zn4   S    
C11   C14   A    
C27   C35   A    
C20   C21   A    
C14   H15   S    
C1    O8    A    
C20   H20   S    
O9    Zn3   S    
