data_mof_unit_63183.cif
_audit_creation_date              2012-12-10T21:18:22-0500
_audit_creation_method            fapswitch 2.2
_symmetry_space_group_name_H-M    P1
_symmetry_Int_Tables_number       1
_space_group_crystal_system       triclinic
_cell_length_a                    17.448174
_cell_length_b                    16.857675
_cell_length_c                    10.551722
_cell_angle_alpha                 89.679067
_cell_angle_beta                  91.271277
_cell_angle_gamma                 90.361427
_cell_volume                      3102.7656028

loop_
_atom_site_label
_atom_site_type_symbol
_atom_type_description
_atom_site_fract_x
_atom_site_fract_y
_atom_site_fract_z
_atom_type_partial_charge
C1    C     C_R   0.352296 0.499793 0.499991 0.882836
C2    C     C_R   0.647422 0.500485 0.495085 0.887831
C3    C     C_1   0.965286 0.506223 0.381801 0.092190
C4    C     C_1   0.033552 0.508914 0.381114 0.089902
C5    C     C_R   0.447198 0.831882 0.423294 0.057278
C6    C     C_R   0.530022 0.166419 0.603160 0.057892
C7    C     C_R   0.553116 0.832294 0.574938 0.056807
C8    C     C_R   0.469778 0.167202 0.395632 0.058313
C9    C     C_R   0.449640 0.747796 0.422696 0.032006
C10   C     C_R   0.531791 0.250631 0.599971 0.026253
C11   C     C_R   0.550730 0.748174 0.576208 0.029210
C12   C     C_R   0.467481 0.251323 0.400234 0.032820
C13   C     C_R   0.500086 0.875309 0.499063 0.001366
C14   C     C_R   0.500173 0.123610 0.498958 -0.001364
C15   C     C_1   0.500089 0.963035 0.498731 0.111225
C16   C     C_1   0.500121 0.035866 0.498655 0.112589
C17   C     C_R   0.501902 0.500299 0.257575 0.899126
C18   C     C_R   0.496765 0.499749 0.742194 0.904266
C19   C     C_3   0.532942 0.567281 0.038770 -0.057476
C20   C     C_3   0.464136 0.432865 0.960620 -0.051633
C21   C     C_3   0.570183 0.503537 0.957037 -0.070761
C22   C     C_3   0.426983 0.496629 0.042635 -0.069678
C23   C     C_3   0.458806 0.562902 0.957576 -0.062152
C24   C     C_3   0.538330 0.437105 0.041897 -0.055798
C25   C     C_3   0.496132 0.499267 0.876228 -0.139100
C26   C     C_3   0.501136 0.500917 0.123407 -0.137347
C27   C     C_R   0.839480 0.567149 0.366605 0.132354
C28   C     C_R   0.153807 0.438140 0.386740 0.139199
C29   C     C_R   0.149578 0.576031 0.454482 0.131819
C30   C     C_R   0.854908 0.437039 0.465469 0.131186
C31   C     C_R   0.762948 0.568660 0.403371 -0.095346
C32   C     C_R   0.228523 0.431778 0.435847 -0.083996
C33   C     C_R   0.226340 0.571948 0.495140 -0.080902
C34   C     C_R   0.777510 0.436101 0.497099 -0.085041
C35   C     C_R   0.730462 0.502276 0.467723 -0.195169
C36   C     C_R   0.267777 0.500287 0.481561 -0.201055
C37   C     C_R   0.884957 0.502018 0.399427 -0.012259
C38   C     C_R   0.114378 0.509517 0.398873 -0.011310
N1    N     N_R   0.500000 0.707230 0.500000 -0.154003
N2    N     N_R   0.500000 0.292770 0.500000 -0.153651
O1    O     O_R   0.389110 0.566570 0.499990 -0.618902
O2    O     O_R   0.610890 0.433430 0.500010 -0.614177
O3    O     O_R   0.610890 0.566570 0.500010 -0.620331
O4    O     O_R   0.389110 0.433430 0.499990 -0.616892
O5    O     O_R   0.499980 0.566530 0.313950 -0.625307
O6    O     O_R   0.500020 0.433470 0.686050 -0.628024
O7    O     O_R   0.500020 0.566530 0.686050 -0.622875
O8    O     O_R   0.499980 0.433470 0.313950 -0.628214
Zn1   Zn    Zn3+2 0.500000 0.588860 0.500000 0.975620
Zn2   Zn    Zn3+2 0.500000 0.411140 0.500000 0.975587
C39   C     C_1   0.415046 0.631501 0.910026 0.219627
N3    N     N_1   0.380709 0.685613 0.872750 -0.144528
C40   C     C_1   0.582071 0.368731 0.090475 0.229890
N4    N     N_1   0.616415 0.314902 0.128874 -0.149015
C41   C     C_1   0.569515 0.641907 0.079086 0.221035
N5    N     N_1   0.597905 0.701171 0.109588 -0.141995
C42   C     C_1   0.425954 0.359997 0.915716 0.231870
N6    N     N_1   0.395929 0.302616 0.880309 -0.147130
C43   C     C_1   0.648130 0.506440 0.907117 0.207997
N7    N     N_1   0.709461 0.508549 0.867675 -0.158500
C44   C     C_1   0.349112 0.493741 0.092895 0.211168
N8    N     N_1   0.287844 0.491496 0.132576 -0.162356
I1    I     I_    0.887419 0.664424 0.262134 -0.207566
I2    I     I_    0.100430 0.339066 0.292636 -0.204209
I3    I     I_    0.085833 0.683015 0.479500 -0.204563
I4    I     I_    0.927669 0.340505 0.523410 -0.219766
C45   C     C_1   0.719635 0.639735 0.374756 0.289619
N9    N     N_1   0.685491 0.697018 0.352910 -0.150483
C46   C     C_1   0.260471 0.353100 0.448254 0.301830
N10   N     N_1   0.284704 0.289667 0.459866 -0.158654
C47   C     C_1   0.259994 0.640622 0.557323 0.281478
N11   N     N_1   0.286708 0.695602 0.606978 -0.146528
C48   C     C_1   0.748929 0.366736 0.562060 0.294615
N12   N     N_1   0.727825 0.310150 0.613291 -0.152805
I5    I     I_    0.362288 0.891923 0.310912 -0.203915
I6    I     I_    0.571060 0.104681 0.768432 -0.203865
I7    I     I_    0.638495 0.893011 0.685848 -0.206383
I8    I     I_    0.427683 0.106869 0.230378 -0.203554
C49   C     C_1   0.399075 0.704277 0.338284 0.315099
N13   N     N_1   0.358359 0.669776 0.269913 -0.180111
C50   C     C_1   0.568468 0.291141 0.704595 0.327869
N14   N     N_1   0.598651 0.322150 0.789826 -0.185730
C51   C     C_1   0.602596 0.704980 0.658636 0.318037
N15   N     N_1   0.644486 0.670786 0.725311 -0.173243
C52   C     C_1   0.426812 0.292403 0.299946 0.319847
N16   N     N_1   0.393070 0.323970 0.218807 -0.189989

loop_
_geom_bond_atom_site_label_1
_geom_bond_atom_site_label_2
_ccdc_geom_bond_type
C2    C35   S    
C41   N5    T    
C12   N2    A    
C48   N12   T    
C17   O8    A    
C18   O7    A    
C50   N14   T    
O7    Zn1   S    
C52   N16   T    
C31   C45   S    
C12   C52   S    
C17   C26   S    
C32   C36   A    
C19   C21   S    
C24   C26   S    
C21   C43   S    
C20   C25   S    
C19   C41   S    
C15   C16   T    
C29   C33   A    
C9    N1    A    
C33   C36   A    
C10   N2    A    
C34   C35   A    
C9    C49   S    
C19   C26   S    
C20   C24   S    
C29   C38   A    
O5    Zn1   S    
C5    C13   A    
C7    I7    S    
O8    Zn2   S    
C43   N7    T    
C8    I8    S    
C46   N10   T    
C18   C25   S    
C18   O6    A    
O1    Zn1   S    
C7    C11   A    
C30   C34   A    
C27   C31   A    
C45   N9    T    
C28   C32   A    
O3    Zn1   S    
C11   C51   S    
C24   C40   S    
C40   N4    T    
C39   N3    T    
C30   C37   A    
C5    I5    S    
C19   C23   S    
C5    C9    A    
C6    C14   A    
C1    O4    A    
C23   C39   S    
C51   N15   T    
C28   C38   A    
C2    O3    A    
C8    C12   A    
C11   N1    A    
C30   I4    S    
C27   I1    S    
O2    Zn2   S    
C29   I3    S    
C28   I2    S    
C1    O1    A    
N1    Zn1   S    
C20   C22   S    
C13   C15   S    
C14   C16   S    
C3    C4    T    
O4    Zn2   S    
C21   C25   S    
C8    C14   A    
C17   O5    A    
C6    C10   A    
C6    I6    S    
C32   C46   S    
O6    Zn2   S    
C10   C50   S    
C47   N11   T    
C22   C44   S    
C42   N6    T    
C2    O2    A    
N2    Zn2   S    
C31   C35   A    
C23   C25   S    
C44   N8    T    
C33   C47   S    
C34   C48   S    
C49   N13   T    
C7    C13   A    
C3    C37   S    
C22   C26   S    
C21   C24   S    
C22   C23   S    
C20   C42   S    
C4    C38   S    
C27   C37   A    
C1    C36   S    
