data_mof_unit_50505.cif
_audit_creation_date              2013-03-05T16:41:25-0500
_audit_creation_method            fapswitch 2.2
_symmetry_space_group_name_H-M    P1
_symmetry_Int_Tables_number       1
_space_group_crystal_system       triclinic
_cell_length_a                    10.644878
_cell_length_b                    10.737436
_cell_length_c                    9.967794
_cell_angle_alpha                 87.072977
_cell_angle_beta                  99.354653
_cell_angle_gamma                 93.34934
_cell_volume                      1121.23447218

loop_
_atom_site_label
_atom_site_type_symbol
_atom_site_description
_atom_site_fract_x
_atom_site_fract_y
_atom_site_fract_z
_atom_type_partial_charge
O1    O     O_R   0.500020 0.316790 0.614700 -0.587252
O2    O     O_R   0.500000 0.316760 0.385350 -0.608586
C1    C     C_R   0.510754 0.260966 0.504111 0.926249
O3    O     O_R   0.317820 0.500020 0.571850 -0.562578
O4    O     O_R   0.317800 0.499980 0.342510 -0.611937
C2    C     C_R   0.258883 0.499630 0.447420 0.851834
Zn1   Zn    Zn3+2 0.500010 0.500020 0.653140 1.022664
Zn2   Zn    Zn3+2 0.499990 0.499980 0.346860 0.994233
O5    O     O_R   0.500000 0.683240 0.614650 -0.582424
O6    O     O_R   0.499980 0.683210 0.385300 -0.647947
O7    O     O_R   0.682200 0.500020 0.657490 -0.610003
O8    O     O_R   0.682180 0.499980 0.428150 -0.546627
C3    C     C_R   0.506746 0.740452 0.497939 0.875186
C4    C     C_R   0.740165 0.503682 0.551938 0.855726
H1    H     H_    0.141282 0.664174 0.550147 0.133082
C5    C     C_2   0.121165 0.506853 0.428669 0.173755
C6    C     C_2   0.075831 0.593289 0.499304 -0.211620
C7    C     C_2   0.876704 0.502708 0.568045 0.032716
C8    C     C_2   0.941629 0.599648 0.514604 0.168866
C9    C     C_R   0.530756 0.056828 0.626591 0.056256
C10   C     C_R   0.544490 0.132157 0.512088 -0.272280
C11   C     C_R   0.587738 0.077990 0.401735 0.292529
C12   C     C_R   0.576942 0.947447 0.393095 0.006348
C13   C     C_R   0.530957 0.873869 0.498893 -0.232203
C14   C     C_R   0.523604 0.930198 0.619245 0.124652
C15   C     C_3   0.427121 0.911862 0.712535 -0.082252
C16   C     C_3   0.437377 0.052519 0.723112 -0.491991
H2    H     H_    0.332534 0.873767 0.662577 0.165789
H3    H     H_    0.347682 0.097977 0.679566 0.235634
H4    H     H_    0.486220 0.080994 0.824387 0.225846
C17   C     C_R   0.388895 0.482048 0.052942 0.026361
N1    N     N_R   0.499160 0.499140 0.142600 -0.119400
C18   C     C_R   0.605753 0.540132 0.088669 0.130905
C19   C     C_R   0.604325 0.544081 0.943446 0.129065
N2    N     N_R   0.499160 0.499180 0.856960 -0.112936
C20   C     C_R   0.390764 0.477344 0.912276 0.079072
C21   C     C_3   0.301973 0.364626 0.900533 0.297102
C22   C     C_3   0.287254 0.377813 0.050806 0.034561
N3    N     N_3   0.881460 0.715226 0.476837 -0.496666
H5    H     H_    0.931231 0.784235 0.537649 0.191388
H6    H     H_    0.892531 0.738865 0.376247 0.188452
N4    N     N_3   0.716416 0.581417 0.180009 -0.329846
H7    H     H_    0.691723 0.660107 0.223975 0.171556
H8    H     H_    0.793202 0.609713 0.131077 0.175267
N5    N     N_3   0.710259 0.599799 0.886760 -0.385774
H9    H     H_    0.726806 0.691880 0.917096 0.158838
H10   H     H_    0.790717 0.548738 0.921518 0.195325
N6    N     N_R   0.189218 0.383280 0.798876 0.217388
O9    O     O_R   0.137543 0.491050 0.784229 -0.459608
O10   O     O_R   0.158250 0.302316 0.704737 -0.382541
N7    N     N_3   0.366483 0.253557 0.876603 -0.428845
H11   H     H_    0.312152 0.174967 0.904472 0.205882
H12   H     H_    0.456616 0.251949 0.936896 0.184614
N8    N     N_3   0.164389 0.422098 0.072566 -0.360783
H13   H     H_    0.090927 0.361630 0.027184 0.241872
H14   H     H_    0.150037 0.512142 0.029906 0.215990
N9    N     N_3   0.321985 0.267280 0.138630 -0.432130
H15   H     H_    0.420163 0.257720 0.152449 0.235953
H16   H     H_    0.296354 0.277986 0.233917 0.272298
N10   N     N_3   0.934122 0.388400 0.615262 -0.326898
H17   H     H_    0.892880 0.318119 0.551007 0.239262
H18   H     H_    0.910518 0.365189 0.711603 0.203429
N11   N     N_R   0.041008 0.415882 0.349338 0.219622
O11   O     O_R   0.930469 0.444212 0.282499 -0.363085
O12   O     O_R   0.082500 0.306245 0.336353 -0.379621
N12   N     N_R   0.643670 0.153581 0.300921 0.231373
O13   O     O_R   0.729067 0.241842 0.338775 -0.340534
O14   O     O_R   0.618872 0.127721 0.172871 -0.415139
N13   N     N_3   0.618364 0.893415 0.280751 -0.391984
H19   H     H_    0.690239 0.833941 0.320243 0.189885
H20   H     H_    0.541708 0.845372 0.223113 0.208614
N14   N     N_3   0.476187 0.843563 0.839577 -0.411868
H21   H     H_    0.565688 0.881821 0.881977 0.206156
H22   H     H_    0.414055 0.854436 0.908818 0.193761

loop_
_geom_bond_atom_site_label_1
_geom_bond_atom_site_label_2
_geom_bond_distance
_ccdc_geom_bond_type
O4    Zn2   1.932816 S    
N12   O14   1.301546 A    
C12   C13   1.418958 A    
N11   O12   1.300989 A    
N14   H22   1.045494 S    
H1    C6    1.088210 S    
C21   C22   1.545581 S    
C9    C16   1.488902 S    
C16   H3    1.111923 S    
C22   N9    1.466819 S    
C15   N14   1.465980 S    
C4    C7    1.436705 S    
C15   H2    1.112985 S    
N2    C20   1.361033 A    
C22   N8    1.469401 S    
C17   C22   1.509029 S    
Zn2   O8    1.976595 S    
C17   N1    1.364056 A    
N1    C18   1.373301 A    
N6    O10   1.301621 A    
C18   C19   1.443642 A    
N9    H15   1.042120 S    
N3    H6    1.045262 S    
C19   N5    1.429180 S    
O1    Zn1   2.023507 S    
N5    H9    1.045413 S    
C13   C14   1.386093 A    
C16   H4    1.106880 S    
Zn1   O7    1.932815 S    
N8    H13   1.045635 S    
C15   C16   1.515679 S    
N13   H19   1.040025 S    
N4    H8    1.041045 S    
O3    Zn1   1.976595 S    
C18   N4    1.429912 S    
C8    N3    1.434867 S    
C7    N10   1.427122 S    
N6    O9    1.301520 A    
C5    N11   1.438620 S    
O8    C4    1.288259 A    
N12   O13   1.300460 A    
O2    C1    1.290306 A    
N5    H10   1.045543 S    
N10   H18   1.045999 S    
O4    C2    1.303610 A    
C21   N7    1.459017 S    
O7    C4    1.301239 A    
N8    H14   1.045512 S    
C1    C10   1.444191 S    
O3    C2    1.295842 A    
N9    H16   1.043472 S    
C9    C14   1.362407 A    
N7    H12   1.046644 S    
C2    C5    1.453557 S    
N11   O11   1.298943 A    
Zn2   N1    2.035082 S    
Zn1   O5    1.985054 S    
C9    C10   1.387226 A    
C3    C13   1.440900 S    
N14   H21   1.046975 S    
C20   C21   1.488860 S    
C7    C8    1.350499 D    
N4    H7    1.037429 S    
N3    H5    1.045362 S    
N13   H20   1.044365 S    
O5    C3    1.298048 A    
C17   C20   1.409013 A    
C11   N12   1.441470 S    
C21   N6    1.455855 S    
C19   N2    1.376407 A    
C6    C8    1.466965 S    
C14   C15   1.492129 S    
C10   C11   1.421764 A    
Zn1   N2    2.032684 S    
C12   N13   1.428906 S    
Zn2   O6    2.023506 S    
O2    Zn2   1.985056 S    
C11   C12   1.405578 A    
N7    H11   1.046426 S    
C5    C6    1.348888 D    
N10   H17   1.044835 S    
O1    C1    1.305338 A    
O6    C3    1.297143 A    
