data_mof_unit_65574.cif
_audit_creation_date              2012-12-10T17:15:50-0500
_audit_creation_method            fapswitch 2.2
_symmetry_space_group_name_H-M    P1
_symmetry_Int_Tables_number       1
_space_group_crystal_system       triclinic
_cell_length_a                    23.681956
_cell_length_b                    23.681985
_cell_length_c                    47.124557
_cell_angle_alpha                 90.013129
_cell_angle_beta                  90.013245
_cell_angle_gamma                 89.995785
_cell_volume                      26429.133702

loop_
_atom_site_label
_atom_site_type_symbol
_atom_type_description
_atom_site_fract_x
_atom_site_fract_y
_atom_site_fract_z
_atom_type_partial_charge
C1    C     C_R   0.000003 0.391529 0.500030 0.804421
C2    C     C_R   0.500020 0.999962 0.354554 0.285678
C3    C     C_R   0.499223 0.000618 0.765020 -0.093786
C4    C     C_R   0.499383 0.000777 0.734980 -0.093785
C5    C     C_R   0.000048 0.499954 0.734970 -0.094296
C6    C     C_R   0.500045 0.999955 0.265033 -0.094299
C7    C     C_R   0.999223 0.500618 0.265020 -0.093786
C8    C     C_R   0.923641 0.571719 0.235113 0.160859
C9    C     C_R   0.423622 0.929781 0.235206 0.159663
C10   C     C_R   0.075151 0.429872 0.235129 0.160585
C11   C     C_R   0.576478 0.070128 0.235246 0.159663
C12   C     C_R   0.930143 0.423279 0.764759 0.159680
C13   C     C_R   0.000039 0.499978 0.645449 0.285670
C14   C     C_R   0.428347 0.076422 0.764886 0.160865
C15   C     C_R   0.069956 0.576619 0.764798 0.159681
C16   C     C_R   0.570062 0.924788 0.764871 0.160593
C17   C     C_R   0.423592 0.071668 0.735113 0.160864
C18   C     C_R   0.923389 0.430035 0.735202 0.159681
C19   C     C_R   0.575199 0.929924 0.735129 0.160591
C20   C     C_R   0.076713 0.569865 0.735242 0.159681
C21   C     C_R   0.430400 0.923048 0.264762 0.159703
C22   C     C_R   0.928399 0.576470 0.264886 0.160869
C23   C     C_R   0.569696 0.076857 0.264802 0.159704
C24   C     C_R   0.499699 0.001181 0.645408 0.284684
C25   C     C_R   0.070009 0.424739 0.264871 0.160599
C26   C     C_R   0.972054 0.455968 0.369397 0.169182
C27   C     C_R   0.458685 0.031428 0.369312 0.176036
C28   C     C_R   0.026441 0.544228 0.369293 0.169676
C29   C     C_R   0.541346 0.968503 0.369325 0.176009
C30   C     C_R   0.031591 0.458725 0.630678 0.175999
C31   C     C_R   0.544049 0.027920 0.630603 0.169182
C32   C     C_R   0.968479 0.541241 0.630690 0.176025
C33   C     C_R   0.455758 0.973583 0.630707 0.169676
C34   C     C_R   0.472074 0.955955 0.869397 0.169182
C35   C     C_R   0.498819 0.000302 0.854591 0.284684
C36   C     C_R   0.958755 0.531516 0.869310 0.176026
C37   C     C_R   0.526422 0.044239 0.869293 0.169677
C38   C     C_R   0.041278 0.468414 0.869322 0.175999
C39   C     C_R   0.531678 0.958795 0.130681 0.175991
C40   C     C_R   0.044061 0.527901 0.130603 0.169181
C41   C     C_R   0.468393 0.041177 0.130693 0.176015
C42   C     C_R   0.955747 0.473601 0.130706 0.169676
C43   C     C_R   0.974624 0.454405 0.399331 0.081099
C44   C     C_R   0.457318 0.029724 0.399291 0.081132
C45   C     C_R   0.024832 0.545594 0.399292 0.091754
C46   C     C_R   0.000021 0.499961 0.854551 0.285669
C47   C     C_R   0.542698 0.970225 0.399304 0.081096
C48   C     C_R   0.029859 0.457359 0.600699 0.081077
C49   C     C_R   0.545608 0.025353 0.600668 0.081096
C50   C     C_R   0.970192 0.542622 0.600712 0.081114
C51   C     C_R   0.454393 0.975190 0.600707 0.091755
C52   C     C_R   0.474642 0.954395 0.899332 0.081097
C53   C     C_R   0.957374 0.529803 0.899288 0.081115
C54   C     C_R   0.524815 0.045604 0.899293 0.091755
C55   C     C_R   0.042644 0.470146 0.899301 0.081079
C56   C     C_R   0.529935 0.957415 0.100703 0.081064
C57   C     C_R   0.500040 0.999982 0.145452 0.285656
C58   C     C_R   0.045617 0.525336 0.100668 0.081094
C59   C     C_R   0.470116 0.042570 0.100715 0.081098
C60   C     C_R   0.954385 0.475206 0.100707 0.091757
C61   C     C_R   0.999911 0.499917 0.414232 -0.105906
C62   C     C_R   0.500005 0.999980 0.414136 -0.124158
C63   C     C_R   0.000020 0.499994 0.585866 -0.124218
C64   C     C_R   0.500083 0.000089 0.585768 -0.105885
C65   C     C_R   0.499911 0.999917 0.914232 -0.105892
C66   C     C_R   0.000006 0.499980 0.914134 -0.124216
C67   C     C_R   0.500020 0.999995 0.085867 -0.124277
C68   C     C_R   0.999700 0.501180 0.145408 0.284687
C69   C     C_R   0.000083 0.500089 0.085768 -0.105871
C70   C     C_3   0.873665 0.599152 0.220313 -0.759123
C71   C     C_3   0.372472 0.903527 0.220884 -0.755124
C72   C     C_3   0.125326 0.402640 0.220413 -0.757922
C73   C     C_3   0.627636 0.096371 0.220945 -0.755083
C74   C     C_3   0.904088 0.372026 0.779061 -0.755108
C75   C     C_3   0.400959 0.126422 0.779686 -0.759128
C76   C     C_3   0.096021 0.627864 0.779121 -0.755150
C77   C     C_3   0.597247 0.874587 0.779588 -0.757928
C78   C     C_3   0.373597 0.099066 0.720314 -0.759124
C79   C     C_1   0.000008 0.330419 0.500024 -0.173544
C80   C     C_3   0.872146 0.403965 0.720880 -0.755149
C81   C     C_3   0.625394 0.902729 0.720412 -0.757927
C82   C     C_3   0.127964 0.595925 0.720939 -0.755107
C83   C     C_3   0.404529 0.871702 0.279065 -0.755121
C84   C     C_3   0.901047 0.626490 0.279685 -0.759134
C85   C     C_3   0.595577 0.128195 0.279126 -0.755162
C86   C     C_3   0.097156 0.374519 0.279589 -0.757938
C87   C     C_3   0.941159 0.409825 0.353327 -0.785888
C88   C     C_3   0.416486 0.067119 0.353048 -0.788823
C89   C     C_3   0.056678 0.589227 0.352124 -0.807025
C90   C     C_1   0.669581 0.999992 0.499976 -0.173545
C91   C     C_3   0.583553 0.932803 0.353072 -0.788739
C92   C     C_3   0.067402 0.416611 0.646929 -0.788735
C93   C     C_3   0.590212 0.058786 0.646673 -0.785877
C94   C     C_3   0.932678 0.583346 0.646954 -0.788820
C95   C     C_3   0.410739 0.943376 0.647876 -0.807015
C96   C     C_3   0.441202 0.909797 0.853327 -0.785879
C97   C     C_3   0.916645 0.567312 0.853046 -0.788818
C98   C     C_3   0.556636 0.089253 0.852124 -0.807020
C99   C     C_3   0.083397 0.432608 0.853071 -0.788733
C100  C     C_3   0.567594 0.916769 0.146932 -0.788731
C101  C     C_1   0.999992 0.669581 0.500019 -0.173501
C102  C     C_3   0.090239 0.558744 0.146673 -0.785869
C103  C     C_3   0.432488 0.083195 0.146955 -0.788812
C104  C     C_3   0.910715 0.443415 0.147876 -0.807014
C105  C     C_3   0.950896 0.403374 0.414851 -0.801129
C106  C     C_3   0.410454 0.058737 0.415847 -0.793833
C107  C     C_3   0.047744 0.596805 0.414929 -0.806078
C108  C     C_3   0.589554 0.941222 0.415874 -0.793727
C109  C     C_3   0.058942 0.410549 0.584132 -0.793600
C110  C     C_3   0.596648 0.049061 0.585148 -0.801150
C111  C     C_3   0.941098 0.589441 0.584160 -0.793705
C112  C     C_R   0.608471 0.999996 0.499970 0.804412
C113  C     C_1   0.330419 0.000008 0.499980 -0.173502
C114  C     C_3   0.403174 0.952298 0.585070 -0.806099
C115  C     C_3   0.450930 0.903357 0.914851 -0.801148
C116  C     C_3   0.910553 0.558893 0.915840 -0.793712
C117  C     C_3   0.547711 0.096821 0.914930 -0.806097
C118  C     C_3   0.089457 0.441068 0.915868 -0.793607
C119  C     C_3   0.559092 0.910644 0.084140 -0.793481
C120  C     C_3   0.096663 0.549030 0.085147 -0.801169
C121  C     C_3   0.440946 0.089346 0.084167 -0.793579
C122  C     C_3   0.903160 0.452328 0.085070 -0.806116
C123  C     C_1   0.500008 0.830419 0.000024 -0.173542
C124  C     C_1   0.169581 0.499992 0.999976 -0.173544
C125  C     C_1   0.499992 0.169581 0.000019 -0.173499
C126  C     C_1   0.830419 0.500008 0.999981 -0.173500
C127  C     C_1   0.000008 0.279203 0.500018 0.011604
C128  C     C_1   0.720797 0.999992 0.499982 0.011602
C129  C     C_1   0.999991 0.720797 0.500007 0.011841
C130  C     C_1   0.279203 0.000009 0.499993 0.011840
C131  C     C_1   0.500008 0.779203 0.000018 0.011605
C132  C     C_R   0.999996 0.608471 0.500032 0.804557
C133  C     C_1   0.220797 0.499992 0.999982 0.011603
C134  C     C_1   0.499991 0.220797 0.000007 0.011842
C135  C     C_1   0.779203 0.500008 0.999993 0.011840
C136  C     C_1   0.000006 0.219077 0.500013 0.011479
C137  C     C_1   0.780923 0.999994 0.499987 0.011476
C138  C     C_1   0.999993 0.780923 0.499997 0.011607
C139  C     C_1   0.219077 0.000006 0.500003 0.011603
C140  C     C_1   0.500006 0.719077 0.000013 0.011480
C141  C     C_1   0.280923 0.499994 0.999987 0.011477
C142  C     C_1   0.499993 0.280923 0.999997 0.011608
C143  C     C_R   0.391529 0.000004 0.499967 0.804550
C144  C     C_1   0.719077 0.500006 0.000003 0.011604
C145  C     C_1   0.000003 0.167856 0.500009 -0.167002
C146  C     C_1   0.832144 0.999997 0.499991 -0.167004
C147  C     C_1   0.999996 0.832144 0.499993 -0.166924
C148  C     C_1   0.167856 0.000004 0.500007 -0.166927
C149  C     C_1   0.500003 0.667856 0.000009 -0.167000
C150  C     C_1   0.332144 0.499997 0.999991 -0.167002
C151  C     C_1   0.499996 0.332144 0.999993 -0.166923
C152  C     C_1   0.667856 0.500004 0.000007 -0.166925
C153  C     C_R   0.106730 0.000001 0.500003 0.801748
C154  C     C_R   0.500003 0.891529 0.000030 0.804420
C155  C     C_R   0.000001 0.106730 0.500003 0.801737
C156  C     C_R   0.893270 0.999999 0.499997 0.801737
C157  C     C_R   0.999999 0.893270 0.499997 0.801747
C158  C     C_R   0.606730 0.500001 0.000003 0.801747
C159  C     C_R   0.500000 0.606730 0.000003 0.801735
C160  C     C_R   0.393270 0.499999 0.999997 0.801736
C161  C     C_R   0.499999 0.393270 0.999997 0.801746
C162  C     C_R   0.999989 0.499883 0.445434 0.832253
C163  C     C_R   0.500000 0.999994 0.445413 0.845240
C164  C     C_R   0.000006 0.499999 0.554588 0.845201
C165  C     C_R   0.108471 0.499996 0.999970 0.804412
C166  C     C_R   0.500117 0.000011 0.554565 0.832252
C167  C     C_R   0.499989 0.999883 0.945434 0.832261
C168  C     C_R   0.000000 0.499994 0.945412 0.845202
C169  C     C_R   0.500006 1.000000 0.054588 0.845158
C170  C     C_R   0.000116 0.500011 0.054565 0.832261
C171  C     C_R   0.032407 0.462940 0.189983 0.546800
C172  C     C_R   0.535100 0.036051 0.189971 0.548515
C173  C     C_R   0.966882 0.539163 0.190015 0.546917
C174  C     C_R   0.464993 0.963883 0.189951 0.548524
C175  C     C_R   0.036006 0.535124 0.810052 0.548517
C176  C     C_R   0.499996 0.108471 0.000033 0.804554
C177  C     C_R   0.537032 0.967563 0.810016 0.546803
C178  C     C_R   0.964067 0.464783 0.810033 0.548509
C179  C     C_R   0.460863 0.033151 0.809984 0.546920
C180  C     C_R   0.532431 0.962962 0.689984 0.546803
C181  C     C_R   0.035213 0.535936 0.689968 0.548509
C182  C     C_R   0.466856 0.039143 0.690015 0.546921
C183  C     C_R   0.964880 0.463989 0.689948 0.548515
C184  C     C_R   0.535894 0.035240 0.310055 0.548513
C185  C     C_R   0.037010 0.467540 0.310016 0.546804
C186  C     C_R   0.464177 0.964672 0.310035 0.548505
C187  C     C_R   0.891529 0.500004 0.999967 0.804548
C188  C     C_R   0.960884 0.533177 0.309984 0.546922
C189  C     C_R   0.962481 0.537340 0.219928 -0.056208
C190  C     C_R   0.462045 0.964467 0.219926 -0.059957
C191  C     C_R   0.036472 0.464408 0.219924 -0.058231
C192  C     C_R   0.538052 0.035452 0.219947 -0.059962
C193  C     C_R   0.964682 0.461829 0.780057 -0.059964
C194  C     C_R   0.462692 0.037551 0.780071 -0.056206
C195  C     C_R   0.035407 0.538074 0.780077 -0.059960
C196  C     C_R   0.535560 0.963498 0.780076 -0.058230
C197  C     C_R   0.462456 0.037316 0.719929 -0.056206
C198  C     C_R   0.998818 0.500303 0.354591 0.284683
C199  C     C_R   0.961930 0.464588 0.719923 -0.059959
C200  C     C_R   0.536496 0.964433 0.719924 -0.058231
C201  C     C_R   0.038167 0.535322 0.719943 -0.059963
C202  C     C_R   0.464807 0.961715 0.280060 -0.059966
C203  C     C_R   0.962716 0.537575 0.280070 -0.056204
C204  C     C_R   0.535280 0.038193 0.280081 -0.059962
C205  C     C_R   0.035534 0.463474 0.280075 -0.058231
C206  C     C_R   0.999383 0.500777 0.234979 -0.093784
C207  C     C_R   0.500048 0.999958 0.234974 -0.094299
C208  C     C_R   0.000046 0.499952 0.765030 -0.094296
Cu1   Cu    Cu3+1 0.944110 0.500000 0.500000 0.966980
Cu2   Cu    Cu3+1 0.000000 0.000000 0.528040 0.979596
Cu3   Cu    Cu3+1 0.500000 0.500000 0.971960 0.979595
Cu4   Cu    Cu3+1 0.500000 0.500000 0.028040 0.979601
Cu5   Cu    Cu3+1 0.500000 0.944110 0.500000 0.967544
Cu6   Cu    Cu3+1 0.055890 0.500000 0.500000 0.967522
Cu7   Cu    Cu3+1 0.500000 0.055890 0.500000 0.967003
Cu8   Cu    Cu3+1 0.444110 0.000000 0.000000 0.966964
Cu9   Cu    Cu3+1 0.000000 0.444110 0.000000 0.967527
Cu10  Cu    Cu3+1 0.555890 0.000000 0.000000 0.967506
Cu11  Cu    Cu3+1 0.000000 0.555890 0.000000 0.966985
Cu12  Cu    Cu3+1 0.000000 0.000000 0.471960 0.979590
H1    H     H_    0.838315 0.607846 0.235134 0.212825
H2    H     H_    0.661741 0.106407 0.236288 0.211524
H3    H     H_    0.374525 0.072783 0.402620 0.230997
H4    H     H_    0.392451 0.029129 0.431725 0.214831
H5    H     H_    0.427529 0.096418 0.426903 0.245661
H6    H     H_    0.094481 0.597856 0.413207 0.237808
H7    H     H_    0.029631 0.635947 0.405679 0.233133
H8    H     H_    0.036587 0.598067 0.437715 0.221725
H9    H     H_    0.625486 0.927161 0.402659 0.231001
H10   H     H_    0.607554 0.970841 0.431758 0.214845
H11   H     H_    0.572471 0.903551 0.426924 0.245666
H12   H     H_    0.073028 0.374629 0.597350 0.230975
H13   H     H_    0.647203 0.065819 0.206017 0.250364
H14   H     H_    0.029366 0.392515 0.568237 0.214866
H15   H     H_    0.096606 0.427684 0.573096 0.245670
H16   H     H_    0.597829 0.095673 0.587515 0.237948
H17   H     H_    0.635967 0.030700 0.594035 0.230475
H18   H     H_    0.597581 0.039116 0.562219 0.222783
H19   H     H_    0.927028 0.625357 0.597389 0.230970
H20   H     H_    0.970661 0.607478 0.568271 0.214853
H21   H     H_    0.903423 0.572312 0.573119 0.245664
H22   H     H_    0.402097 0.905562 0.586799 0.237809
H23   H     H_    0.364040 0.970438 0.594315 0.233133
H24   H     H_    0.615433 0.135726 0.209711 0.257934
H25   H     H_    0.401925 0.963440 0.562282 0.221718
H26   H     H_    0.404317 0.902181 0.912486 0.237947
H27   H     H_    0.469284 0.864037 0.905964 0.230474
H28   H     H_    0.460877 0.902421 0.937780 0.222785
H29   H     H_    0.874635 0.572961 0.902611 0.230971
H30   H     H_    0.892517 0.529327 0.931729 0.214851
H31   H     H_    0.927678 0.596568 0.926882 0.245662
H32   H     H_    0.594447 0.097893 0.913203 0.237808
H33   H     H_    0.529576 0.135957 0.905684 0.233133
H34   H     H_    0.536565 0.098073 0.937717 0.221719
H35   H     H_    0.894190 0.337880 0.763719 0.211528
H36   H     H_    0.125379 0.426986 0.902651 0.230976
H37   H     H_    0.107488 0.470645 0.931763 0.214865
H38   H     H_    0.072326 0.403402 0.926904 0.245667
H39   H     H_    0.573194 0.874733 0.097360 0.230950
H40   H     H_    0.529557 0.892581 0.068234 0.214885
H41   H     H_    0.596752 0.927825 0.073119 0.245667
H42   H     H_    0.097865 0.595640 0.087519 0.237948
H43   H     H_    0.135976 0.530649 0.094030 0.230476
H44   H     H_    0.097587 0.539096 0.062217 0.222779
H45   H     H_    0.426859 0.125255 0.097397 0.230944
H46   H     H_    0.934709 0.352581 0.793994 0.250353
H47   H     H_    0.470466 0.107412 0.068265 0.214871
H48   H     H_    0.403274 0.072170 0.073141 0.245661
H49   H     H_    0.902063 0.405594 0.086803 0.237809
H50   H     H_    0.864031 0.470488 0.094310 0.233133
H51   H     H_    0.901920 0.463459 0.062280 0.221712
H52   H     H_    0.864684 0.384083 0.790290 0.257942
H53   H     H_    0.392301 0.161782 0.764865 0.212824
H54   H     H_    0.360689 0.113368 0.789797 0.259168
H55   H     H_    0.430158 0.144648 0.795694 0.245173
H56   H     H_    0.105941 0.662006 0.763790 0.211529
H57   H     H_    0.886757 0.639408 0.210200 0.259169
H58   H     H_    0.065398 0.647323 0.794045 0.250346
H59   H     H_    0.135414 0.615794 0.790362 0.257944
H60   H     H_    0.606165 0.839445 0.764670 0.212164
H61   H     H_    0.637344 0.887514 0.789924 0.258425
H62   H     H_    0.567796 0.856107 0.795393 0.248136
H63   H     H_    0.338240 0.107732 0.735135 0.212824
H64   H     H_    0.386660 0.139332 0.710202 0.259167
H65   H     H_    0.355365 0.069870 0.704306 0.245174
H66   H     H_    0.838005 0.394042 0.736210 0.211529
H67   H     H_    0.852685 0.434586 0.705955 0.250346
H68   H     H_    0.855411 0.569968 0.204306 0.245178
H69   H     H_    0.884220 0.364573 0.709638 0.257944
H70   H     H_    0.660534 0.893803 0.735330 0.212164
H71   H     H_    0.612459 0.862635 0.710076 0.258425
H72   H     H_    0.643881 0.932176 0.704607 0.248137
H73   H     H_    0.162109 0.605826 0.736281 0.211528
H74   H     H_    0.147412 0.565307 0.706007 0.250353
H75   H     H_    0.115902 0.635328 0.709710 0.257942
H76   H     H_    0.394766 0.837516 0.263723 0.211526
H77   H     H_    0.435213 0.852372 0.294002 0.250341
H78   H     H_    0.365074 0.883615 0.290288 0.257942
H79   H     H_    0.338371 0.893470 0.236215 0.211524
H80   H     H_    0.892415 0.661856 0.264864 0.212826
H81   H     H_    0.860767 0.613465 0.289796 0.259170
H82   H     H_    0.930258 0.644694 0.295694 0.245169
H83   H     H_    0.605363 0.162377 0.263796 0.211527
H84   H     H_    0.564891 0.147536 0.294055 0.250334
H85   H     H_    0.635021 0.116269 0.290362 0.257943
H86   H     H_    0.106047 0.339370 0.264671 0.212166
H87   H     H_    0.137264 0.387417 0.289923 0.258427
H88   H     H_    0.067693 0.356063 0.295395 0.248132
H89   H     H_    0.963482 0.368983 0.356040 0.231296
H90   H     H_    0.352894 0.934082 0.205964 0.250357
H91   H     H_    0.937709 0.418028 0.330254 0.226220
H92   H     H_    0.897322 0.405915 0.361411 0.231139
H93   H     H_    0.425695 0.070195 0.330061 0.225895
H94   H     H_    0.416905 0.111017 0.361334 0.227374
H95   H     H_    0.373547 0.048861 0.355280 0.238154
H96   H     H_    0.082725 0.618332 0.364997 0.231300
H97   H     H_    0.025369 0.614845 0.340236 0.237907
H98   H     H_    0.085931 0.568940 0.336793 0.237393
H99   H     H_    0.574355 0.929714 0.330082 0.225898
H100  H     H_    0.583129 0.888910 0.361354 0.227395
H101  H     H_    0.384688 0.864184 0.209637 0.257936
H102  H     H_    0.626491 0.951062 0.355321 0.238159
H103  H     H_    0.070507 0.425847 0.669915 0.225896
H104  H     H_    0.111281 0.417114 0.638631 0.227387
H105  H     H_    0.049228 0.373632 0.644701 0.238191
H106  H     H_    0.631042 0.036443 0.643954 0.231289
H107  H     H_    0.582018 0.062229 0.669746 0.226220
H108  H     H_    0.594142 0.102624 0.638593 0.231143
H109  H     H_    0.929585 0.574098 0.669937 0.225893
H110  H     H_    0.888793 0.582848 0.638652 0.227366
H111  H     H_    0.950851 0.626326 0.644743 0.238187
H112  H     H_    0.160458 0.393685 0.235331 0.212165
H113  H     H_    0.381610 0.917355 0.635004 0.231297
H114  H     H_    0.385148 0.974701 0.659767 0.237895
H115  H     H_    0.431008 0.914104 0.663204 0.237401
H116  H     H_    0.463540 0.868964 0.856044 0.231290
H117  H     H_    0.437757 0.917992 0.830253 0.226220
H118  H     H_    0.397365 0.905871 0.861408 0.231141
H119  H     H_    0.925893 0.570406 0.830063 0.225892
H120  H     H_    0.917138 0.611197 0.861348 0.227364
H121  H     H_    0.873668 0.549135 0.855257 0.238187
H122  H     H_    0.582663 0.118377 0.864997 0.231297
H123  H     H_    0.112361 0.362556 0.210076 0.258426
H124  H     H_    0.525314 0.114851 0.840233 0.237898
H125  H     H_    0.585904 0.068981 0.836795 0.237399
H126  H     H_    0.074161 0.429501 0.830085 0.225896
H127  H     H_    0.082899 0.388728 0.861370 0.227386
H128  H     H_    0.126373 0.450787 0.855299 0.238191
H129  H     H_    0.570720 0.926046 0.169913 0.225893
H130  H     H_    0.611459 0.917343 0.138616 0.227377
H131  H     H_    0.549497 0.873754 0.144725 0.238225
H132  H     H_    0.131060 0.536388 0.143950 0.231283
H133  H     H_    0.082052 0.562182 0.169747 0.226220
H134  H     H_    0.143836 0.432074 0.204609 0.248140
H135  H     H_    0.094183 0.602583 0.138596 0.231144
H136  H     H_    0.429377 0.073910 0.169934 0.225890
H137  H     H_    0.388617 0.082624 0.138636 0.227356
H138  H     H_    0.450582 0.126212 0.144764 0.238218
H139  H     H_    0.881568 0.417413 0.135004 0.231297
H140  H     H_    0.885143 0.474753 0.159770 0.237887
H141  H     H_    0.930970 0.414130 0.163202 0.237409
H142  H     H_    0.904283 0.402220 0.412490 0.237947
H143  H     H_    0.969230 0.364047 0.405959 0.230472
H144  H     H_    0.960855 0.402428 0.437778 0.222791
N1    N     N_R   0.999586 0.501036 0.175960 -0.447838
N2    N     N_R   0.500045 0.999971 0.175978 -0.453338
N3    N     N_R   0.000032 0.499955 0.824026 -0.453347
N4    N     N_R   0.498963 0.000415 0.824039 -0.447838
N5    N     N_R   0.499585 0.001037 0.675961 -0.447838
N6    N     N_R   0.000044 0.499967 0.675975 -0.453348
N7    N     N_R   0.500031 0.999958 0.324029 -0.453358
N8    N     N_R   0.998963 0.500417 0.324039 -0.447839
O1    O     O_R   0.952780 0.418580 0.499940 -0.577631
O2    O     O_R   0.081420 0.452780 0.999940 -0.574759
O3    O     O_R   0.547220 0.081420 0.999940 -0.577066
O4    O     O_R   0.918580 0.547220 0.999940 -0.574727
O5    O     O_R   0.452780 0.081420 0.000060 -0.574732
O6    O     O_R   0.081420 0.547220 0.000060 -0.577627
O7    O     O_R   0.547220 0.918580 0.000060 -0.574764
O8    O     O_R   0.918580 0.452780 0.000060 -0.577069
O9    O     O_R   0.952780 0.500010 0.458880 -0.575828
O10   O     O_R   0.499990 0.952780 0.458880 -0.581276
O11   O     O_R   0.047220 0.499990 0.458880 -0.575080
O12   O     O_R   0.581420 0.952780 0.499940 -0.574753
O13   O     O_R   0.500010 0.047220 0.458880 -0.581236
O14   O     O_R   0.952780 0.499990 0.541120 -0.581234
O15   O     O_R   0.499990 0.047220 0.541120 -0.575827
O16   O     O_R   0.047220 0.500010 0.541120 -0.581275
O17   O     O_R   0.500010 0.952780 0.541120 -0.575081
O18   O     O_R   0.452780 0.000010 0.958880 -0.575826
O19   O     O_R   0.999990 0.452780 0.958880 -0.581275
O20   O     O_R   0.547220 0.999990 0.958880 -0.575079
O21   O     O_R   0.000010 0.547220 0.958880 -0.581234
O22   O     O_R   0.452780 0.999990 0.041120 -0.581229
O23   O     O_R   0.047220 0.581420 0.499940 -0.577073
O24   O     O_R   0.999990 0.547220 0.041120 -0.575825
O25   O     O_R   0.547220 0.000010 0.041120 -0.581270
O26   O     O_R   0.000010 0.452780 0.041120 -0.575080
O27   O     O_2   0.059713 0.423220 0.174749 -0.543545
O28   O     O_2   0.565573 0.073178 0.174618 -0.541460
O29   O     O_2   0.940083 0.579328 0.174847 -0.544449
O30   O     O_2   0.434520 0.926764 0.174578 -0.541487
O31   O     O_2   0.073031 0.565713 0.825425 -0.541458
O32   O     O_2   0.576731 0.940226 0.825250 -0.543539
O33   O     O_2   0.927034 0.434195 0.825385 -0.541431
O34   O     O_R   0.418580 0.047220 0.499940 -0.574721
O35   O     O_2   0.420718 0.059981 0.825151 -0.544449
O36   O     O_2   0.559761 0.923259 0.674750 -0.543539
O37   O     O_2   0.065796 0.572973 0.674615 -0.541431
O38   O     O_2   0.440033 0.079292 0.674848 -0.544448
O39   O     O_2   0.934295 0.426961 0.674576 -0.541457
O40   O     O_2   0.572827 0.065940 0.325427 -0.541426
O41   O     O_2   0.076692 0.440177 0.325250 -0.543534
O42   O     O_2   0.427235 0.933972 0.325387 -0.541399
O43   O     O_2   0.920756 0.560033 0.325150 -0.544449
O44   O     O_R   0.080090 0.000000 0.475550 -0.570775
O45   O     O_R   0.952780 0.581420 0.500060 -0.574725
O46   O     O_R   0.000000 0.080090 0.475550 -0.571006
O47   O     O_R   0.919910 0.000000 0.475550 -0.570750
O48   O     O_R   0.000000 0.919910 0.475550 -0.570918
O49   O     O_R   0.080090 0.000000 0.524450 -0.570917
O50   O     O_R   0.000000 0.919910 0.524450 -0.570773
O51   O     O_R   0.919910 0.000000 0.524450 -0.571005
O52   O     O_R   0.000000 0.080090 0.524450 -0.570747
O53   O     O_R   0.580090 0.500000 0.975550 -0.570773
O54   O     O_R   0.500000 0.580090 0.975550 -0.571007
O55   O     O_R   0.419910 0.500000 0.975550 -0.570748
O56   O     O_R   0.581420 0.047220 0.500060 -0.577634
O57   O     O_R   0.500000 0.419910 0.975550 -0.570919
O58   O     O_R   0.580090 0.500000 0.024450 -0.570917
O59   O     O_R   0.500000 0.419910 0.024450 -0.570771
O60   O     O_R   0.419910 0.500000 0.024450 -0.571006
O61   O     O_R   0.500000 0.580090 0.024450 -0.570745
O62   O     O_R   0.047220 0.418580 0.500060 -0.574758
O63   O     O_R   0.418580 0.952780 0.500060 -0.577076
O64   O     O_R   0.452780 0.918580 0.999940 -0.577625

loop_
_geom_bond_atom_site_label_1
_geom_bond_atom_site_label_2
_ccdc_geom_bond_type
C184  C204  A    
C2    N7    S    
C155  O52   A    
Cu10  O3    S    
C55   C66   A    
C110  H17   S    
C179  O35   S    
C54   C65   A    
C67   C169  S    
C19   C200  A    
C124  C133  T    
C2    C29   A    
Cu4   O58   S    
C126  C187  S    
C34   C96   S    
C20   C201  A    
C175  O31   S    
C98   H125  S    
C107  H6    S    
C72   H123  S    
C186  C202  A    
C11   C192  A    
Cu11  O4    S    
C7    C203  A    
C131  C140  S    
C153  O49   A    
C160  O55   A    
C38   C55   A    
C21   C83   S    
C177  O32   S    
C151  C161  S    
C17   C197  A    
C36   C97   S    
C77   H62   S    
C81   H70   S    
C78   H65   S    
C180  O36   S    
C153  O44   A    
C86   H88   S    
C119  H40   S    
C14   C194  A    
C193  C208  A    
C7    C206  A    
C175  C195  A    
C93   H107  S    
C99   H127  S    
C68   N1    S    
Cu5   Cu7   S    
C87   H91   S    
C15   C20   A    
C178  C193  A    
C40   C58   A    
C137  C146  T    
C127  C136  S    
C82   H74   S    
Cu12  O46   S    
C74   H52   S    
C48   C63   A    
C162  O11   A    
C191  C206  A    
C142  C151  T    
C89   H98   S    
C24   C33   A    
C154  O64   A    
C91   H100  S    
C62   C163  S    
C6    C202  A    
C189  C206  A    
C166  O15   A    
Cu5   O10   S    
C122  H51   S    
C84   H82   S    
C22   C203  A    
C102  H135  S    
C85   H83   S    
C185  N8    A    
C1    C79   S    
C96   H118  S    
C148  C153  S    
C29   C91   S    
C43   C61   A    
C115  H28   S    
C52   C115  S    
C79   C127  T    
C104  H139  S    
C94   H111  S    
C75   H55   S    
Cu4   O60   S    
C34   C52   A    
C181  C201  A    
C51   C64   A    
C3    C196  A    
Cu5   O17   S    
Cu12  O47   S    
C118  H38   S    
C80   H66   S    
C10   C191  A    
C100  H130  S    
C102  H132  S    
C24   N5    S    
Cu2   O52   S    
C46   N3    S    
Cu1   O1    S    
C9    C21   A    
C11   C23   A    
C88   H93   S    
C81   H72   S    
C71   H79   S    
C78   H63   S    
C188  N8    A    
C154  O7    A    
C83   H78   S    
C86   H86   S    
C187  O8    A    
C97   H119  S    
C156  O51   A    
Cu1   O9    S    
C52   C65   A    
C123  C154  S    
C87   H89   S    
Cu9   O8    S    
C20   C82   S    
C161  O57   A    
C163  O13   A    
C13   C32   A    
C57   N2    S    
Cu12  O48   S    
C103  H138  S    
C108  H10   S    
C172  C192  A    
C179  N4    A    
C29   C47   A    
C162  O9    A    
C175  N3    A    
C30   C48   A    
Cu8   Cu10  S    
C34   C35   A    
C177  N4    A    
C5    C201  A    
C109  H12   S    
C114  H25   S    
C116  H29   S    
C70   H1    S    
C186  O42   S    
C91   H102  S    
C17   C78   S    
Cu5   O12   S    
C122  H49   S    
C59   C67   A    
C117  H33   S    
C27   C44   A    
C102  H133  S    
C195  C208  A    
C26   C87   S    
C107  H7    S    
C157  O50   A    
C8    C22   A    
C158  O53   A    
C36   C46   A    
C187  O4    A    
C36   C53   A    
Cu10  O7    S    
Cu5   O63   S    
C92   H103  S    
C168  O21   A    
C111  H21   S    
C94   H109  S    
C75   H53   S    
C50   C63   A    
C14   C17   A    
Cu8   O22   S    
C112  O56   A    
C182  C197  A    
C37   C98   S    
C117  H32   S    
C141  C150  T    
C139  C148  T    
C112  O12   A    
C51   C114  S    
C113  C130  T    
C61   C162  S    
C30   C92   S    
Cu2   O50   S    
C98   H124  S    
C72   H134  S    
C88   H95   S    
Cu9   O26   S    
C182  O38   S    
C101  C132  S    
C180  C200  A    
C149  C159  S    
C83   H76   S    
C106  H3    S    
C72   H112  S    
C120  H43   S    
Cu1   O14   S    
C106  H5    S    
C97   H121  S    
C174  O30   S    
C109  H15   S    
C10   C25   A    
C114  H22   S    
C161  O59   A    
C192  C207  A    
C37   C54   A    
C3    C4    A    
C176  O5    A    
C132  O45   A    
C4    C197  A    
C198  N8    S    
C158  O58   A    
C143  O34   A    
C110  H18   S    
C116  H31   S    
C8    C70   S    
C111  H20   S    
C23   C204  A    
C144  C152  T    
C183  O39   S    
C160  O60   A    
C73   H24   S    
C60   C69   A    
C159  O61   A    
C50   C111  S    
C56   C119  S    
C155  O46   A    
C26   C198  A    
C105  H144  S    
C38   C46   A    
C124  C165  S    
Cu3   O54   S    
C190  C207  A    
Cu6   O62   S    
C181  N6    A    
C47   C108  S    
C54   C117  S    
Cu7   O15   S    
C77   H61   S    
Cu6   O11   S    
Cu11  O21   S    
C125  C176  S    
C140  C149  T    
C55   C118  S    
C45   C107  S    
C49   C110  S    
C101  C129  T    
C125  C134  T    
C119  H39   S    
C170  O26   A    
C12   C74   S    
C12   C193  A    
C7    C205  A    
C95   H114  S    
C93   H106  S    
C98   H122  S    
C5    C199  A    
C150  C160  S    
C77   H60   S    
C178  N3    A    
C183  N6    A    
C82   H75   S    
C165  O6    A    
C16   C77   S    
C89   H97   S    
C64   C166  S    
C171  N1    A    
C91   H99   S    
C169  O25   A    
C2    C27   A    
C164  O14   A    
Cu10  O20   S    
C73   H13   S    
C74   H35   S    
C47   C62   A    
C15   C195  A    
C15   C76   S    
C121  H47   S    
C31   C49   A    
C25   C205  A    
C130  C139  S    
C110  H16   S    
C115  H27   S    
Cu3   O57   S    
C63   C164  S    
C152  C158  S    
C104  H140  S    
C182  N5    A    
C11   C73   S    
C185  O41   S    
C167  O18   A    
C28   C198  A    
C165  O2    A    
C113  C143  S    
C92   H105  S    
C6    C204  A    
C16   C196  A    
C134  C142  S    
C13   C30   A    
Cu3   Cu4   S    
C8    C189  A    
Cu12  O44   S    
Cu7   O13   S    
C58   C120  S    
C171  C191  A    
C132  O23   A    
C60   C122  S    
C81   H71   S    
C71   H90   S    
Cu6   O16   S    
C118  H36   S    
C174  C190  A    
C73   H2    S    
C86   H87   S    
C126  C135  T    
C176  O3    A    
C120  H42   S    
C121  H45   S    
C9    C190  A    
C93   H108  S    
C99   H128  S    
C87   H92   S    
C76   H59   S    
C123  C131  T    
C171  O27   S    
C21   C202  A    
C9    C71   S    
C38   C99   S    
C82   H73   S    
C42   C104  S    
C103  H137  S    
C163  O10   A    
C58   C69   A    
C181  O37   S    
Cu9   O19   S    
C44   C106  S    
C33   C51   A    
C65   C167  S    
C133  C141  S    
Cu1   Cu6   S    
C66   C168  S    
C167  O20   A    
C14   C75   S    
C24   C31   A    
C41   C57   A    
C5    C208  A    
C116  H30   S    
C76   H58   S    
C16   C19   A    
C173  O29   S    
C45   C61   A    
C104  H141  S    
C164  O16   A    
C122  H50   S    
C40   C102  S    
C84   H81   S    
C85   H84   S    
C40   C68   A    
C13   N6    S    
C96   H117  S    
Cu11  O6    S    
C92   H104  S    
Cu7   O34   S    
Cu3   O55   S    
C59   C121  S    
C32   C94   S    
C94   H110  S    
C177  C196  A    
Cu4   O59   S    
C1    O62   A    
C90   C112  S    
C118  H37   S    
C1    O1    A    
C157  O48   A    
C70   H57   S    
C100  H129  S    
C35   C37   A    
C184  N7    A    
Cu8   O64   S    
Cu2   O51   S    
C95   H115  S    
C168  O19   A    
C80   H69   S    
C170  O24   A    
C39   C57   A    
Cu2   Cu12  S    
Cu9   O2    S    
C76   H56   S    
C43   C105  S    
C183  C199  A    
C103  H136  S    
C106  H4    S    
C129  C138  S    
C39   C56   A    
C120  H44   S    
C172  N2    A    
C97   H120  S    
C136  C145  T    
C99   H126  S    
C109  H14   S    
C48   C109  S    
C180  N5    A    
C42   C68   A    
C169  O22   A    
C27   C88   S    
Cu6   O23   S    
C33   C95   S    
C121  H48   S    
C88   H94   S    
C26   C43   A    
C108  H9    S    
C173  N1    A    
C28   C45   A    
C96   H116  S    
C3    C194  A    
Cu8   O18   S    
C185  C205  A    
C41   C59   A    
C42   C60   A    
C44   C62   A    
C31   C93   S    
Cu1   O45   S    
C111  H19   S    
C35   N4    S    
C41   C103  S    
C22   C84   S    
C128  C137  S    
C159  O54   A    
C117  H34   S    
C4    C200  A    
C138  C147  T    
C78   H64   S    
C107  H8    S    
C71   H101  S    
C53   C66   A    
C105  H143  S    
C178  O33   S    
C32   C50   A    
C6    C207  A    
C28   C89   S    
Cu7   O56   S    
Cu3   O53   S    
C135  C144  S    
C75   H54   S    
Cu4   O61   S    
Cu10  O25   S    
Cu11  O24   S    
C147  C157  S    
C83   H77   S    
C85   H85   S    
C105  H142  S    
C80   H67   S    
C100  H131  S    
C179  C194  A    
C156  O47   A    
Cu2   O49   S    
C95   H113  S    
C53   C116  S    
C143  O63   A    
Cu9   Cu11  S    
C56   C67   A    
C188  C203  A    
C70   H68   S    
C188  O43   S    
C172  O28   S    
C184  O40   S    
C115  H26   S    
C19   C81   S    
C74   H46   S    
C39   C100  S    
C119  H41   S    
C173  C189  A    
C25   C86   S    
C114  H23   S    
C69   C170  S    
C174  N2    A    
C186  N7    A    
C89   H96   S    
C145  C155  S    
C146  C156  S    
C18   C80   S    
C23   C85   S    
C166  O17   A    
C12   C18   A    
C18   C199  A    
C49   C64   A    
C90   C128  T    
Cu8   O5    S    
C10   C72   S    
C84   H80   S    
C108  H11   S    
