data_mof_unit_68527.cif
_audit_creation_date              2013-03-05T16:48:48-0500
_audit_creation_method            fapswitch 2.2
_symmetry_space_group_name_H-M    P1
_symmetry_Int_Tables_number       1
_space_group_crystal_system       triclinic
_cell_length_a                    11.242845
_cell_length_b                    11.081596
_cell_length_c                    13.27338
_cell_angle_alpha                 91.876456
_cell_angle_beta                  91.054042
_cell_angle_gamma                 89.681608
_cell_volume                      1652.52592748

loop_
_atom_site_label
_atom_site_type_symbol
_atom_site_description
_atom_site_fract_x
_atom_site_fract_y
_atom_site_fract_z
_atom_type_partial_charge
O1    O     O_R   0.499980 0.319630 0.578260 -0.531081
O2    O     O_R   0.500020 0.680370 0.421740 -0.525540
O3    O     O_R   0.500000 0.319650 0.421740 -0.606571
O4    O     O_R   0.500000 0.680350 0.578260 -0.596340
C1    C     C_R   0.502865 0.259778 0.499115 0.956221
C2    C     C_R   0.496533 0.740327 0.501557 0.929335
O5    O     O_R   0.319630 0.500000 0.578260 -0.537225
O6    O     O_R   0.680370 0.500000 0.421740 -0.522929
O7    O     O_R   0.319650 0.500020 0.421740 -0.608826
O8    O     O_R   0.680350 0.499980 0.578260 -0.600374
C3    C     C_R   0.259599 0.496532 0.498799 0.923748
C4    C     C_R   0.740383 0.501873 0.500554 0.929268
Cu1   Cu    Cu3+1 0.499990 0.499990 0.592680 1.134504
Cu2   Cu    Cu3+1 0.500010 0.500010 0.407320 1.126459
C5    C     C_R   0.196094 0.599513 0.165684 0.161298
C6    C     C_R   0.812257 0.418915 0.839335 0.148878
C7    C     C_R   0.161852 0.599194 0.266781 0.204522
C8    C     C_R   0.843781 0.407778 0.737414 0.234423
C9    C     C_R   0.114535 0.493707 0.306216 -0.183495
C10   C     C_R   0.886520 0.508664 0.688889 -0.188635
C11   C     C_R   0.101902 0.387274 0.245234 0.167803
C12   C     C_R   0.895553 0.621080 0.739742 0.232763
C13   C     C_R   0.133223 0.388696 0.142602 0.056494
C14   C     C_R   0.871737 0.630916 0.842771 0.261457
C15   C     C_R   0.179852 0.495311 0.102476 0.155552
C16   C     C_R   0.827304 0.530837 0.893141 0.169472
C17   C     C_R   0.933692 0.505394 0.408257 0.339937
C18   C     C_R   0.065663 0.487848 0.588047 0.334214
C19   C     C_R   0.873037 0.500306 0.499933 -0.180905
C20   C     C_R   0.126830 0.494654 0.497028 -0.189067
C21   C     C_R   0.940992 0.494422 0.589609 -0.003102
C22   C     C_R   0.058978 0.500117 0.406342 0.021218
H1    H     H_    0.512398 0.163613 0.021534 0.260153
H2    H     H_    0.284104 0.894110 0.951762 0.271061
C23   C     C_R   0.417984 0.170377 0.158351 -0.289975
C24   C     C_R   0.425707 0.840735 0.855238 -0.239427
H3    H     H_    0.338338 0.199907 0.120562 0.232294
H4    H     H_    0.477714 0.805587 0.917323 0.246815
C25   C     C_R   0.416979 0.141081 0.259649 0.338479
C26   C     C_R   0.475016 0.847144 0.759489 0.371331
C27   C     C_R   0.525188 0.111151 0.309130 -0.105488
C28   C     C_R   0.405929 0.894092 0.679435 -0.148822
C29   C     C_R   0.631597 0.102553 0.253416 0.213903
C30   C     C_R   0.287105 0.933042 0.697677 0.213186
C31   C     C_R   0.623559 0.108254 0.146826 0.389450
C32   C     C_R   0.245411 0.940005 0.797768 0.370938
C33   C     C_R   0.518944 0.151167 0.101930 -0.221246
C34   C     C_R   0.314474 0.890628 0.874859 -0.169854
C35   C     C_R   0.529596 0.931658 0.414813 0.316800
C36   C     C_R   0.477993 0.068854 0.590175 0.331732
C37   C     C_R   0.498264 0.873009 0.503466 -0.168582
C38   C     C_R   0.501120 0.127181 0.499332 -0.159584
C39   C     C_R   0.465050 0.943029 0.589723 -0.015168
C40   C     C_R   0.520705 0.057467 0.410241 -0.033289
N1    N     N_1   0.500030 0.500030 0.268070 -0.131645
N2    N     N_1   0.499970 0.499970 0.731930 -0.116425
C41   C     C_1   0.499835 0.499095 0.173932 0.280848
C42   C     C_1   0.500848 0.498977 0.826044 0.280089
C43   C     C_1   0.499836 0.498240 0.050690 0.135737
C44   C     C_1   0.501268 0.498479 0.949369 0.123603
S1    S     S_3+6 0.202435 0.501474 0.970694 0.110344
O9    O     O_2   0.269178 0.390562 0.935336 -0.249215
O10   O     O_2   0.084107 0.503241 0.917325 -0.190355
O11   O     O_3   0.276110 0.626315 0.940892 -0.508869
H5    H     H_    0.298879 0.613922 0.869979 0.378194
S2    S     S_3+6 0.797812 0.549023 0.023465 0.135635
O12   O     O_2   0.709244 0.649634 0.038809 -0.200621
O13   O     O_2   0.751101 0.435660 0.067135 -0.248765
O14   O     O_3   0.923276 0.589209 0.085169 -0.403904
H6    H     H_    0.942058 0.520145 0.127490 0.373136
N3    N     N_R   0.743585 0.086551 0.306239 0.180296
O15   O     O_R   0.764142 0.146182 0.390820 -0.277381
O16   O     O_R   0.823670 0.010615 0.273612 -0.127231
N4    N     N_R   0.214289 0.973059 0.614813 0.179773
O17   O     O_R   0.206418 0.906455 0.532482 -0.235074
O18   O     O_R   0.169959 0.081729 0.615244 -0.164815
S3    S     S_3+6 0.731138 0.045884 0.065232 0.161307
O19   O     O_2   0.840823 0.122258 0.071670 -0.162990
O20   O     O_2   0.761519 0.919160 0.093903 -0.124079
O21   O     O_3   0.674890 0.041346 0.946818 -0.461869
H7    H     H_    0.743439 0.026564 0.902714 0.440773
S4    S     S_3+6 0.118060 0.025249 0.833020 0.188817
O22   O     O_2   0.151430 0.156313 0.838727 -0.131355
O23   O     O_2   0.017254 0.008013 0.758126 -0.118622
O24   O     O_3   0.073834 0.985203 0.947296 -0.415846
H8    H     H_    0.994982 0.023827 0.955499 0.436046
N5    N     N_R   0.570259 0.863537 0.328012 0.130974
O25   O     O_R   0.505358 0.856186 0.245976 -0.265475
O26   O     O_R   0.673276 0.809725 0.330942 -0.222112
N6    N     N_R   0.461537 0.136488 0.683689 0.125571
O27   O     O_R   0.532187 0.117760 0.760332 -0.253231
O28   O     O_R   0.365788 0.200981 0.697469 -0.265339
N7    N     N_R   0.235584 0.710522 0.125786 0.220441
O29   O     O_R   0.348829 0.729223 0.116470 -0.299444
O30   O     O_R   0.162022 0.801122 0.119724 -0.161542
N8    N     N_R   0.777904 0.312440 0.888826 0.223214
O31   O     O_R   0.847267 0.218377 0.882828 -0.218112
O32   O     O_R   0.666951 0.297509 0.910822 -0.319093
N9    N     N_R   0.170315 0.708465 0.328152 0.179718
O33   O     O_R   0.268657 0.769829 0.332254 -0.260556
O34   O     O_R   0.077290 0.751936 0.373870 -0.201394
N10   N     N_R   0.832415 0.293594 0.683302 0.179561
O35   O     O_R   0.732162 0.235727 0.682735 -0.262509
O36   O     O_R   0.922064 0.246336 0.635263 -0.201278
N11   N     N_R   0.042725 0.283529 0.284062 0.214785
O37   O     O_R   0.059860 0.252522 0.376891 -0.220670
O38   O     O_R   0.958268 0.230442 0.231655 -0.165846
N12   N     N_R   0.938731 0.723341 0.688135 0.198766
O39   O     O_R   0.886284 0.757398 0.605553 -0.247313
O40   O     O_R   0.039762 0.771368 0.715599 -0.260768
N13   N     N_R   0.102267 0.287907 0.076451 0.213745
O41   O     O_R   0.022504 0.302378 0.005937 -0.196873
O42   O     O_R   0.131277 0.178522 0.099716 -0.244063
N14   N     N_R   0.897585 0.742034 0.896566 0.224812
O43   O     O_R   0.849026 0.841421 0.866578 -0.248439
O44   O     O_R   0.991791 0.748701 0.954582 -0.174420
N15   N     N_R   0.868963 0.522343 0.315933 0.105873
O45   O     O_R   0.848313 0.631202 0.286197 -0.198601
O46   O     O_R   0.816092 0.431333 0.270289 -0.289094
N16   N     N_R   0.129600 0.475522 0.681267 0.140419
O47   O     O_R   0.141909 0.370082 0.720341 -0.182450
O48   O     O_R   0.176892 0.569856 0.726105 -0.333089
N17   N     N_R   0.304571 0.127861 0.307379 0.150420
O49   O     O_R   0.223468 0.058929 0.265032 -0.150107
O50   O     O_R   0.284826 0.177939 0.395362 -0.322772
N18   N     N_R   0.597046 0.812054 0.747217 0.160126
O51   O     O_R   0.668791 0.874787 0.694002 -0.247627
O52   O     O_R   0.639915 0.723588 0.798543 -0.409930

loop_
_geom_bond_atom_site_label_1
_geom_bond_atom_site_label_2
_geom_bond_distance
_ccdc_geom_bond_type
S2    O13   1.502058 D    
N5    O25   1.300133 A    
C14   N14   1.431539 S    
N7    O29   1.299873 A    
C4    C19   1.491587 S    
C17   C19   1.408680 A    
C35   N5    1.436976 S    
N13   O41   1.297410 A    
C23   C33   1.383010 A    
N14   O43   1.297512 A    
N17   O49   1.300632 A    
C25   C27   1.414850 A    
O24   H8    0.988562 S    
O5    C3    1.241312 A    
N11   O38   1.298719 A    
N18   O51   1.300842 A    
N4    O18   1.300619 A    
O1    C1    1.224720 A    
C23   H3    1.073056 S    
C14   C16   1.411926 A    
O14   H6    0.983812 S    
N15   O46   1.300358 A    
C28   C39   1.493078 S    
N17   O50   1.298769 A    
S2    O14   1.673142 S    
C42   C44   1.637043 S    
C35   C40   1.400404 A    
C25   N17   1.434433 S    
N12   O39   1.300957 A    
C8    N10   1.439516 S    
O4    Cu1   2.014050 S    
S1    O10   1.495977 D    
C32   S4    1.772557 S    
C36   N6    1.443143 S    
C3    C20   1.492704 S    
N16   O48   1.297499 A    
C35   C37   1.413882 A    
N8    O32   1.299055 A    
C36   C38   1.415547 A    
C1    C38   1.469725 S    
C2    C37   1.469948 S    
C8    C10   1.400052 A    
Cu1   N2    1.848330 S    
S3    O20   1.502807 D    
Cu2   N1    1.848331 S    
C43   C44   1.345364 T    
N7    O30   1.300801 A    
Cu1   Cu2   2.460365 S    
C19   C21   1.405656 A    
C27   C29   1.419102 A    
O2    C2    1.233108 A    
C28   C30   1.424170 A    
C9    C22   1.478278 S    
C38   C40   1.411221 A    
C31   C33   1.396854 A    
C6    C16   1.420157 A    
C32   C34   1.397177 A    
C6    N8    1.427597 S    
C36   C39   1.402524 A    
N4    O17   1.300462 A    
N10   O35   1.299658 A    
C16   S2    1.772126 S    
C24   C26   1.399955 A    
C29   N3    1.442732 S    
O4    C2    1.233844 A    
C18   N16   1.429564 S    
N3    O16   1.299388 A    
C30   C32   1.416511 A    
S3    O19   1.499104 D    
C37   C39   1.416570 A    
S1    O11   1.678424 S    
C23   C25   1.393764 A    
O7    Cu2   2.040274 S    
O7    C3    1.237662 A    
N6    O28   1.301224 A    
N9    O33   1.300598 A    
O5    Cu1   2.033265 S    
O6    C4    1.234025 A    
C26   N18   1.434636 S    
N8    O31   1.299550 A    
N13   O42   1.299035 A    
C15   S1    1.775716 S    
N10   O36   1.301010 A    
C7    N9    1.439706 S    
O3    Cu2   2.014050 S    
O8    C4    1.243786 A    
N9    O34   1.301051 A    
C10   C12   1.400578 A    
S4    O23   1.502577 D    
C11   C13   1.413919 A    
H1    C33   1.081595 S    
O6    Cu2   2.033263 S    
H2    C34   1.081723 S    
C24   H4    1.083249 S    
N16   O47   1.299486 A    
C17   N15   1.430854 S    
C5    C7    1.402937 A    
N18   O52   1.297651 A    
C9    C11   1.414763 A    
C17   C22   1.410125 A    
C18   C21   1.403642 A    
O21   H7    0.986103 S    
O3    C1    1.240640 A    
O8    Cu1   2.040274 S    
C5    N7    1.431175 S    
N14   O44   1.299001 A    
N12   O40   1.298125 A    
S4    O24   1.679058 S    
C13   N13   1.438196 S    
N11   O37   1.300630 A    
O11   H5    0.985075 S    
N1    C41   1.249196 T    
C18   C20   1.405452 A    
C29   C31   1.419484 A    
C30   N4    1.439227 S    
N15   O45   1.299856 A    
C20   C22   1.415974 A    
S3    O21   1.682697 S    
N6    O27   1.300454 A    
C12   N12   1.434661 S    
C26   C28   1.415777 A    
C7    C9    1.407372 A    
N2    C42   1.249479 T    
C24   C34   1.390075 A    
C12   C14   1.398979 A    
C13   C15   1.418708 A    
S1    O9    1.502965 D    
O2    Cu2   2.001571 S    
C27   C40   1.487543 S    
C41   C43   1.635547 S    
N3    O15   1.301556 A    
O1    Cu1   2.001573 S    
C5    C15   1.415585 A    
C6    C8    1.406142 A    
S4    O22   1.501247 D    
S2    O12   1.502109 D    
N5    O26   1.300279 A    
C31   S3    1.761649 S    
C11   N11   1.445654 S    
C10   C21   1.466794 S    
