data_mof_unit_21967.cif
_audit_creation_date              2012-12-11T14:07:41-0500
_audit_creation_method            fapswitch 2.2
_symmetry_space_group_name_H-M    P1
_symmetry_Int_Tables_number       1
_space_group_crystal_system       triclinic
_cell_length_a                    19.724214
_cell_length_b                    17.005546
_cell_length_c                    15.356632
_cell_angle_alpha                 89.960221
_cell_angle_beta                  53.289809
_cell_angle_gamma                 90.151572
_cell_volume                      4129.31738896

loop_
_atom_site_label
_atom_site_type_symbol
_atom_type_description
_atom_site_fract_x
_atom_site_fract_y
_atom_site_fract_z
_atom_type_partial_charge
C1    C     C_R   0.375589 0.197763 0.994660 -0.123361
C2    C     C_R   0.710511 0.853238 0.981405 0.156079
C3    C     C_R   0.150831 0.683945 0.073416 0.157757
C4    C     C_R   0.210511 0.353238 0.981405 0.156076
C5    C     C_R   0.611822 0.816919 0.694964 0.045456
C6    C     C_R   0.693197 0.136937 0.678661 0.033036
C7    C     C_R   0.111830 0.316922 0.694959 0.045470
C8    C     C_R   0.193198 0.636938 0.678662 0.033041
C9    C     C_3   0.182001 0.129921 0.520743 0.686702
C10   C     C_3   0.248444 0.782225 0.459176 0.692608
C11   C     C_3   0.682022 0.629910 0.520761 0.686672
C12   C     C_R   0.339735 0.825252 0.050728 -0.099164
C13   C     C_3   0.748446 0.282242 0.459193 0.692591
C14   C     C_3   0.126921 0.180525 0.624238 -0.532522
C15   C     C_3   0.194766 0.733371 0.562441 -0.516075
C16   C     C_3   0.626927 0.680516 0.624250 -0.532500
C17   C     C_3   0.694767 0.233374 0.562443 -0.516076
C18   C     C_3   0.305513 0.224285 0.449171 -0.364640
C19   C     C_3   0.367189 0.783842 0.479456 -0.379600
C20   C     C_3   0.805512 0.724313 0.449145 -0.364560
C21   C     C_3   0.867207 0.283823 0.479441 -0.379550
C22   C     C_3   0.700840 0.746869 0.407806 -0.522550
C23   C     C_R   0.875589 0.697763 0.994661 -0.123363
C24   C     C_3   0.860418 0.176187 0.372941 -0.519215
C25   C     C_3   0.200878 0.246899 0.407784 -0.522567
C26   C     C_3   0.360437 0.676188 0.372945 -0.519194
C27   C     C_3   0.249386 0.183040 0.422983 0.191032
C28   C     C_3   0.343493 0.764975 0.401420 0.202845
C29   C     C_3   0.749381 0.683035 0.422987 0.191025
C30   C     C_3   0.843494 0.264974 0.401419 0.202864
C31   C     C_3   0.657386 0.767255 0.597924 0.320235
C32   C     C_3   0.751529 0.181269 0.577531 0.310536
C33   C     C_3   0.157394 0.267260 0.597919 0.320240
C34   C     C_R   0.839735 0.325252 0.050728 -0.099176
C35   C     C_3   0.251529 0.681271 0.577532 0.310520
C36   C     C_3   0.751489 0.772221 0.552554 -0.385964
C37   C     C_3   0.812763 0.234288 0.583604 -0.395998
C38   C     C_3   0.251494 0.272209 0.552565 -0.385974
C39   C     C_3   0.312759 0.734295 0.583609 -0.395996
C40   C     C_R   0.398194 0.800636 0.209394 -0.172652
C41   C     C_R   0.349599 0.171014 0.218671 -0.142674
C42   C     C_R   0.898195 0.300636 0.209394 -0.172683
C43   C     C_R   0.849598 0.671013 0.218673 -0.142632
C44   C     C_3   0.647567 0.797108 0.510341 -0.418541
C45   C     C_R   0.669383 0.917453 0.050602 -0.160508
C46   C     C_3   0.806229 0.126501 0.477312 -0.404970
C47   C     C_3   0.147594 0.297127 0.510325 -0.418555
C48   C     C_3   0.306233 0.626503 0.477315 -0.404988
C49   C     C_2   0.191282 0.740481 0.099689 -0.206138
C50   C     C_2   0.284334 0.314857 0.960375 -0.196321
C51   C     C_2   0.691282 0.240481 0.099689 -0.206147
C52   C     C_2   0.784333 0.814856 0.960376 -0.196319
C53   C     C_2   0.711082 0.312652 0.054905 -0.196271
C54   C     C_2   0.811593 0.747350 0.904659 -0.198015
C55   C     C_2   0.211082 0.812652 0.054905 -0.196268
C56   C     C_R   0.633593 0.105224 0.105217 -0.163472
C57   C     C_2   0.311593 0.247350 0.904659 -0.198024
C58   C     C_R   0.329018 0.913251 0.953008 -0.156741
C59   C     C_R   0.366027 0.111325 0.895966 -0.163288
C60   C     C_R   0.829018 0.413251 0.953008 -0.156739
C61   C     C_R   0.866027 0.611325 0.895966 -0.163286
C62   C     C_R   0.358062 0.078300 0.314898 -0.083717
C63   C     C_R   0.407693 0.892667 0.303780 0.006328
C64   C     C_R   0.858062 0.578299 0.314898 -0.083763
C65   C     C_R   0.907693 0.392666 0.303780 0.006300
C66   C     C_R   0.348093 0.187737 0.932035 0.152621
C67   C     C_R   0.169383 0.417453 0.050602 -0.160508
C68   C     C_R   0.286948 0.852001 0.026774 0.147534
C69   C     C_R   0.848092 0.687737 0.932036 0.152620
C70   C     C_R   0.786948 0.352001 0.026774 0.147531
C71   C     C_R   0.390025 0.814683 0.303810 0.008691
C72   C     C_R   0.307833 0.138536 0.321994 0.025512
C73   C     C_R   0.890025 0.314683 0.303810 0.008663
C74   C     C_R   0.807830 0.638533 0.321995 0.025459
C75   C     C_R   0.623414 0.200088 0.011515 -0.132910
C76   C     C_R   0.660136 0.821976 0.954608 -0.120906
C77   C     C_R   0.123414 0.700088 0.011516 -0.132913
C78   C     C_R   0.133593 0.605225 0.105217 -0.163468
C79   C     C_R   0.160136 0.321976 0.954608 -0.120903
C80   C     C_R   0.603021 0.801546 0.789564 -0.153246
C81   C     C_R   0.651061 0.170554 0.781247 -0.134402
C82   C     C_R   0.103024 0.301547 0.789561 -0.153254
C83   C     C_R   0.151060 0.670555 0.781248 -0.134396
C84   C     C_R   0.642563 0.076888 0.685432 -0.131692
C85   C     C_R   0.592556 0.894544 0.696074 -0.155889
C86   C     C_R   0.142564 0.576888 0.685432 -0.131699
C87   C     C_R   0.092558 0.394546 0.696073 -0.155891
C88   C     C_R   0.650831 0.183945 0.073416 0.157761
F1    F     F_    0.218871 0.070746 0.541222 -0.700434
F2    F     F_    0.230993 0.861418 0.484977 -0.679607
F3    F     F_    0.718920 0.570768 0.541244 -0.700450
F4    F     F_    0.731010 0.361433 0.485019 -0.679629
H1    H     H_    0.141102 0.101569 0.502166 0.023023
H2    H     H_    0.355916 0.846711 0.503606 0.192123
H3    H     H_    0.841926 0.680501 0.459724 0.180673
H4    H     H_    0.855964 0.346694 0.503578 0.192105
H5    H     H_    0.760232 0.749551 0.613322 0.164326
H6    H     H_    0.777594 0.275255 0.653523 0.161421
H7    H     H_    0.260225 0.249542 0.613344 0.164301
H8    H     H_    0.277589 0.775253 0.653537 0.161396
H9    H     H_    0.745034 0.787470 0.339941 0.185359
H10   H     H_    0.928621 0.163068 0.330611 0.194868
H11   H     H_    0.245098 0.287502 0.339936 0.185372
H12   H     H_    0.230831 0.767066 0.404471 -0.001140
H13   H     H_    0.428638 0.663080 0.330642 0.194871
H14   H     H_    0.659725 0.718820 0.389342 0.164390
H15   H     H_    0.843961 0.159106 0.317809 0.154525
H16   H     H_    0.159778 0.218874 0.389279 0.164391
H17   H     H_    0.344008 0.659095 0.317788 0.154525
H18   H     H_    0.579969 0.795102 0.542107 0.161237
H19   H     H_    0.766314 0.086538 0.468144 0.150335
H20   H     H_    0.080000 0.295123 0.542072 0.161241
H21   H     H_    0.266319 0.586546 0.468139 0.150335
H22   H     H_    0.669997 0.858969 0.487199 0.163579
H23   H     H_    0.641128 0.601520 0.502200 0.023041
H24   H     H_    0.847691 0.089207 0.486841 0.173749
H25   H     H_    0.170025 0.358989 0.487196 0.163580
H26   H     H_    0.347686 0.589202 0.486854 0.173744
H27   H     H_    0.352401 0.263736 0.380870 0.160693
H28   H     H_    0.435407 0.771740 0.438542 0.150689
H29   H     H_    0.852370 0.763780 0.380844 0.160677
H30   H     H_    0.935421 0.271694 0.438521 0.150689
H31   H     H_    0.395799 0.744302 0.178924 0.090203
H32   H     H_    0.331428 0.221155 0.194362 0.096817
H33   H     H_    0.895801 0.244302 0.178922 0.090221
H34   H     H_    0.730822 0.267109 0.404491 -0.001137
H35   H     H_    0.831428 0.721156 0.194364 0.096805
H36   H     H_    0.773618 0.834521 0.534903 0.159849
H37   H     H_    0.853974 0.197516 0.594172 0.159352
H38   H     H_    0.273637 0.334505 0.534900 0.159865
H39   H     H_    0.353980 0.697524 0.594161 0.159365
H40   H     H_    0.217959 0.717208 0.138808 0.123336
H41   H     H_    0.304213 0.334045 0.009240 0.122464
H42   H     H_    0.717960 0.217208 0.138808 0.123335
H43   H     H_    0.804212 0.834044 0.009241 0.122463
H44   H     H_    0.682547 0.336962 0.018719 0.124637
H45   H     H_    0.559481 0.676751 0.655701 0.131850
H46   H     H_    0.794013 0.729288 0.852946 0.126533
H47   H     H_    0.182548 0.836962 0.018718 0.124634
H48   H     H_    0.294013 0.229288 0.852945 0.126528
H49   H     H_    0.307624 0.947436 0.914328 0.102360
H50   H     H_    0.362371 0.085520 0.834505 0.097436
H51   H     H_    0.807624 0.447436 0.914328 0.102365
H52   H     H_    0.862371 0.585520 0.834505 0.097445
H53   H     H_    0.349619 0.043648 0.379453 0.183423
H54   H     H_    0.414394 0.923102 0.359922 0.074657
H55   H     H_    0.849622 0.543647 0.379449 0.183461
H56   H     H_    0.650583 0.196192 0.557515 0.124276
H57   H     H_    0.914391 0.423102 0.359924 0.074699
H58   H     H_    0.616600 0.256574 0.985479 0.085218
H59   H     H_    0.670522 0.770727 0.906782 0.089750
H60   H     H_    0.116600 0.756574 0.985480 0.085217
H61   H     H_    0.170522 0.270727 0.906782 0.089746
H62   H     H_    0.607555 0.745165 0.818184 0.092362
H63   H     H_    0.669173 0.221556 0.804691 0.096807
H64   H     H_    0.107559 0.245165 0.818179 0.092361
H65   H     H_    0.169171 0.721557 0.804694 0.096801
H66   H     H_    0.652161 0.042028 0.620391 0.088178
H67   H     H_    0.059472 0.176772 0.655698 0.131861
H68   H     H_    0.583947 0.924391 0.641239 0.086446
H69   H     H_    0.152163 0.542029 0.620390 0.088180
H70   H     H_    0.083946 0.424393 0.641240 0.086450
H71   H     H_    0.384808 0.252911 0.021152 0.082156
H72   H     H_    0.330271 0.776402 0.101554 0.085682
H73   H     H_    0.884807 0.752910 0.021153 0.082156
H74   H     H_    0.830271 0.276402 0.101555 0.085682
H75   H     H_    0.130914 0.156846 0.688512 0.200213
H76   H     H_    0.155216 0.772969 0.633623 0.210991
H77   H     H_    0.630915 0.656849 0.688533 0.200210
H78   H     H_    0.150573 0.696188 0.557532 0.124288
H79   H     H_    0.655207 0.272962 0.633634 0.210984
H80   H     H_    0.690596 0.951402 0.089641 0.097811
H81   H     H_    0.637830 0.078024 0.165481 0.088771
H82   H     H_    0.190596 0.451402 0.089641 0.097812
H83   H     H_    0.137830 0.578024 0.165481 0.088774
H84   H     H_    0.341890 0.180452 0.459787 0.180671
N1    N     N_R   0.408680 0.130160 0.995800 -0.041317
N2    N     N_R   0.403730 0.078230 0.935950 -0.039107
N3    N     N_R   0.903730 0.421770 0.935950 -0.040891
N4    N     N_R   0.903730 0.578230 0.935950 -0.039109
N5    N     N_R   0.426630 0.075970 0.212960 -0.058328
N6    N     N_R   0.426630 0.924030 0.212960 -0.048685
N7    N     N_R   0.926630 0.575970 0.212960 -0.058322
N8    N     N_R   0.926630 0.424030 0.212960 -0.048691
N9    N     N_R   0.591320 0.134600 0.004200 -0.043463
N10   N     N_R   0.591320 0.865400 0.004200 -0.046676
N11   N     N_R   0.091320 0.634600 0.004200 -0.043464
N12   N     N_R   0.408680 0.869840 0.995800 -0.044848
N13   N     N_R   0.091320 0.365400 0.004200 -0.046673
N14   N     N_R   0.578320 0.867660 0.846880 -0.034644
N15   N     N_R   0.578320 0.132340 0.846880 -0.038471
N16   N     N_R   0.078320 0.367660 0.846880 -0.034644
N17   N     N_R   0.078320 0.632340 0.846880 -0.038471
N18   N     N_R   0.573370 0.074390 0.787040 -0.037806
N19   N     N_R   0.573370 0.925610 0.787040 -0.033160
N20   N     N_R   0.073370 0.574390 0.787040 -0.037805
N21   N     N_R   0.073370 0.425610 0.787040 -0.033160
N22   N     N_R   0.596270 0.927870 0.064040 -0.044837
N23   N     N_R   0.908680 0.630160 0.995800 -0.041319
N24   N     N_R   0.596270 0.072130 0.064040 -0.038146
N25   N     N_R   0.096270 0.427870 0.064040 -0.044834
N26   N     N_R   0.096270 0.572130 0.064040 -0.038146
N27   N     N_R   0.908680 0.369840 0.995800 -0.044846
N28   N     N_R   0.421680 0.867580 0.153120 -0.034705
N29   N     N_R   0.421680 0.132420 0.153120 -0.040267
N30   N     N_R   0.921680 0.367580 0.153120 -0.034706
N31   N     N_R   0.921680 0.632420 0.153120 -0.040268
N32   N     N_R   0.403730 0.921770 0.935950 -0.040891
Ni1   Ni    Ni4+2 0.500000 0.131190 0.000000 0.209577
Ni2   Ni    Ni4+2 0.500000 0.868810 0.000000 0.211713
Ni3   Ni    Ni4+2 0.000000 0.631190 0.000000 0.209574
Ni4   Ni    Ni4+2 1.000000 0.368810 0.000000 0.211711
Ni5   Ni    Ni4+2 0.488650 0.000000 0.862740 0.211582
Ni6   Ni    Ni4+2 0.988650 0.500000 0.862740 0.211584
Ni7   Ni    Ni4+2 0.511350 0.000000 0.137260 0.205587
Ni8   Ni    Ni4+2 0.011350 0.500000 0.137260 0.205590

loop_
_geom_bond_atom_site_label_1
_geom_bond_atom_site_label_2
_ccdc_geom_bond_type
C6    C32   S    
N32   Ni5   S    
C40   C71   A    
C8    C83   A    
N7    N31   A    
N6    Ni7   S    
C23   C69   A    
N5    N29   A    
C16   H45   S    
C57   C66   S    
C14   C33   S    
C55   C68   S    
C3    C49   S    
C65   C73   A    
C36   H36   S    
C16   C31   S    
C12   C68   A    
N11   N26   A    
C22   H9    S    
C65   H57   S    
N6    N28   A    
C38   H38   S    
C41   H32   S    
C22   C29   S    
C10   C15   S    
C59   C66   A    
C51   H42   S    
N17   Ni3   S    
C12   H72   S    
C53   C70   S    
C75   H58   S    
C61   C69   A    
C47   H20   S    
C12   N12   A    
C23   N23   A    
N24   Ni7   S    
C55   H47   S    
C26   H13   S    
N1    Ni1   S    
C21   H30   S    
C81   N15   A    
C5    C31   S    
C42   H33   S    
C86   N20   A    
C23   H73   S    
C64   N7    A    
N12   Ni2   S    
C16   H77   S    
N16   Ni4   S    
C40   N28   A    
C59   H50   S    
C35   C48   S    
C62   H53   S    
C56   C88   A    
C84   N18   A    
C36   H5    S    
C85   H68   S    
C60   C70   A    
C11   H23   S    
C25   C47   S    
C63   H54   S    
N23   Ni3   S    
C26   C48   S    
C82   H64   S    
C43   C74   A    
C44   H22   S    
C63   N6    A    
C46   H19   S    
N31   Ni3   S    
C7    C33   S    
C75   N9    A    
C53   H44   S    
C80   N14   A    
N18   Ni5   S    
N22   Ni7   S    
C77   H60   S    
C15   C35   S    
C37   H6    S    
C52   C54   D    
C20   C29   S    
C2    C45   A    
C49   H40   S    
C7    C87   A    
C6    C84   A    
C31   C44   S    
N8    N30   A    
C43   N31   A    
C41   N29   A    
C13   C30   S    
C17   H56   S    
C4    C79   A    
C9    F1    S    
C24   H15   S    
C30   C73   S    
C84   H66   S    
C25   H11   S    
C76   N10   A    
C48   H26   S    
C29   C74   S    
C76   H59   S    
N13   N25   A    
C45   N22   A    
N16   N21   A    
C50   H41   S    
C57   H48   S    
C4    C50   S    
C60   N3    A    
C8    C35   S    
C83   N17   A    
C35   C39   S    
C9    C14   S    
N25   Ni8   S    
C67   N25   A    
C11   F3    S    
C79   H61   S    
C24   H10   S    
N20   Ni6   S    
C11   C16   S    
C61   H52   S    
C83   H65   S    
N29   Ni1   S    
C34   N27   A    
N17   N20   A    
C49   C55   D    
C87   H70   S    
C1    C66   A    
C62   C72   A    
N5    Ni7   S    
C86   H69   S    
C32   C37   S    
C5    C80   A    
C19   C28   S    
C26   H17   S    
C1    H71   S    
C20   H29   S    
C19   H2    S    
C19   C39   S    
N14   N19   A    
N15   Ni1   S    
C41   C72   A    
C13   H34   S    
C15   H78   S    
C58   C68   A    
C20   H3    S    
C63   C71   A    
C19   H28   S    
N3    N27   A    
N10   Ni2   S    
C64   H55   S    
N26   Ni8   S    
C78   H83   S    
C77   N11   A    
N9    Ni1   S    
C15   H76   S    
C28   C71   S    
C87   N21   A    
C43   H35   S    
C3    C77   A    
C45   H80   S    
C9    H1    S    
C2    C76   A    
C9    C27   S    
C10   C28   S    
N7    Ni8   S    
C52   H43   S    
C40   H31   S    
C34   C70   A    
N12   N32   A    
C42   C73   A    
C22   C44   S    
N2    Ni5   S    
C82   N16   A    
C50   C57   D    
C32   C46   S    
C59   N2    A    
C85   N19   A    
C18   C27   S    
C78   N26   A    
N11   Ni3   S    
C38   H7    S    
N13   Ni4   S    
C51   C88   S    
C4    C67   A    
C17   H79   S    
C80   H62   S    
C21   H4    S    
C13   C17   S    
C25   C27   S    
C21   C30   S    
C56   H81   S    
C26   C28   S    
C33   C38   S    
C81   H63   S    
C2    C52   S    
C46   H24   S    
C14   H67   S    
C24   C46   S    
N4    Ni6   S    
N14   Ni2   S    
N15   N18   A    
C58   N32   A    
C13   F4    S    
N4    N23   A    
C22   H14   S    
C62   N5    A    
C58   H49   S    
C39   H8    S    
C54   H46   S    
C54   C69   S    
C39   H39   S    
C33   C47   S    
N3    Ni6   S    
C10   H12   S    
C37   H37   S    
C42   N30   A    
C8    C86   A    
C11   C29   S    
N9    N24   A    
C18   C38   S    
N27   Ni4   S    
C24   C30   S    
C60   H51   S    
N19   Ni5   S    
N8    Ni8   S    
N21   Ni6   S    
C20   C36   S    
N30   Ni4   S    
C75   C88   A    
C47   H25   S    
C7    C82   A    
C21   C37   S    
C10   F2    S    
C61   N4    A    
N1    N2    A    
C79   N13   A    
N28   Ni2   S    
C6    C81   A    
C17   C32   S    
C64   C74   A    
C31   C36   S    
N10   N22   A    
C67   H82   S    
C51   C53   D    
C14   H75   S    
C34   H74   S    
C3    C78   A    
C1    N1    A    
C18   H27   S    
C5    C85   A    
C27   C72   S    
C25   H16   S    
C44   H18   S    
C48   H21   S    
C56   N24   A    
C65   N8    A    
C18   H84   S    
