data_mof_unit_15476.cif
_audit_creation_date              2012-12-11T14:06:38-0500
_audit_creation_method            fapswitch 2.2
_symmetry_space_group_name_H-M    P1
_symmetry_Int_Tables_number       1
_space_group_crystal_system       triclinic
_cell_length_a                    6.919825
_cell_length_b                    17.372871
_cell_length_c                    24.049726
_cell_angle_alpha                 103.886068
_cell_angle_beta                  90.253175
_cell_angle_gamma                 90.023856
_cell_volume                      2806.66526934

loop_
_atom_site_label
_atom_site_type_symbol
_atom_type_description
_atom_site_fract_x
_atom_site_fract_y
_atom_site_fract_z
_atom_type_partial_charge
O1    O     O_R   0.494290 0.391990 0.999150 -0.524996
O2    O     O_R   0.827170 0.534410 0.082350 -0.506768
O3    O     O_R   0.994360 0.608010 0.000850 -0.550963
C1    C     C_R   0.658644 0.548554 0.106293 0.824371
O4    O     O_R   0.824210 0.388010 0.004470 -0.504403
O5    O     O_R   0.991370 0.460560 0.922410 -0.522787
C2    C     C_R   0.653815 0.354807 0.000431 0.832234
O6    O     O_R   0.497270 0.539440 0.077590 -0.520986
O7    O     O_3   0.659770 0.523970 0.973170 -0.390377
V1    V     V_3+5 0.935840 0.495550 0.004980 1.760169
O8    O     O_R   0.320910 0.465590 0.917650 -0.528833
C3    C     C_R   0.151531 0.452007 0.893825 0.834058
O9    O     O_R   0.323870 0.611990 0.995530 -0.556719
C4    C     C_R   0.154389 0.645142 0.998523 0.773415
V2    V     V_3+5 0.435470 0.504450 0.995020 1.692791
O10   O     O_3   0.161670 0.476030 0.026830 -0.317245
C5    C     C_2   0.142802 0.730200 0.998090 -0.250449
H1    H     H_    0.277290 0.760739 0.994217 0.155300
C6    C     C_2   0.973049 0.770030 0.002600 -0.262254
H2    H     H_    0.838667 0.739503 0.006592 0.130638
C7    C     C_R   0.185817 0.265420 0.625561 0.697089
N1    N     N_R   0.118390 0.340521 0.647800 -0.540346
C8    C     C_R   0.040132 0.384662 0.613458 0.740157
C9    C     C_R   0.030300 0.354079 0.553885 -0.072203
C10   C     C_R   0.093161 0.275956 0.529929 -0.045952
C11   C     C_R   0.168229 0.229138 0.565964 -0.207756
C12   C     C_R   0.958972 0.400368 0.518028 -0.165681
C13   C     C_R   0.949990 0.370981 0.458736 0.419040
C14   C     C_R   0.009664 0.292175 0.433604 -0.100142
C15   C     C_R   0.078390 0.244649 0.469866 -0.107493
C16   C     C_R   0.140059 0.166855 0.445671 -0.188871
C17   C     C_R   0.242871 0.125154 0.480069 0.394208
C18   C     C_R   0.232406 0.150347 0.540505 0.383871
C19   C     C_R   0.006723 0.259003 0.373599 0.775516
N2    N     N_R   0.034959 0.179136 0.351903 -0.545922
C20   C     C_R   0.096480 0.132897 0.387433 0.780136
O11   O     O_2   0.277485 0.228479 0.661208 -0.471124
O12   O     O_2   0.973799 0.458266 0.636906 -0.444510
H3    H     H_    0.910085 0.460408 0.536023 0.200747
O13   O     O_2   0.979261 0.305948 0.337073 -0.407546
O14   O     O_2   0.108540 0.053687 0.367196 -0.433657
C21   C     C_R   0.153129 0.095760 0.259728 -0.088462
H4    H     H_    0.281336 0.082456 0.281622 0.232111
C22   C     C_R   0.131834 0.061164 0.201244 0.361922
C23   C     C_R   0.976452 0.083217 0.169752 -0.329381
C24   C     C_R   0.836626 0.137385 0.200087 0.268882
C25   C     C_R   0.842259 0.159498 0.260823 0.403508
C26   C     C_R   0.008954 0.144369 0.290695 0.137403
C27   C     C_R   0.270566 0.428118 0.734904 0.391414
C28   C     C_R   0.270207 0.457682 0.795338 0.255798
C29   C     C_R   0.141177 0.426017 0.830017 -0.278514
C30   C     C_R   0.003169 0.369112 0.802937 0.351646
C31   C     C_R   0.996043 0.344264 0.743360 -0.116452
H5    H     H_    0.889064 0.300774 0.723210 0.191572
C32   C     C_R   0.127905 0.372437 0.709027 0.120328
C33   C     C_R   0.578807 0.871533 0.616131 0.663094
N3    N     N_R   0.500607 0.825078 0.649130 -0.559695
C34   C     C_R   0.445015 0.748474 0.624794 0.631988
C35   C     C_R   0.470236 0.715673 0.565711 -0.035864
C36   C     C_R   0.547398 0.763184 0.531204 -0.021839
C37   C     C_R   0.601475 0.841771 0.556464 -0.109375
C38   C     C_R   0.423181 0.636210 0.540622 -0.105324
C39   C     C_R   0.453755 0.604247 0.482300 -0.092734
C40   C     C_R   0.527470 0.651452 0.447231 -0.026218
C41   C     C_R   0.572851 0.731574 0.471557 -0.067616
C42   C     C_R   0.647102 0.779339 0.436591 -0.198014
C43   C     C_R   0.715768 0.856806 0.463290 0.397096
C44   C     C_R   0.686645 0.887463 0.522298 -0.060437
C45   C     C_R   0.559093 0.619857 0.388412 0.653788
N4    N     N_R   0.612672 0.668140 0.353393 -0.552709
C46   C     C_R   0.648161 0.747333 0.376404 0.667046
O15   O     O_2   0.638952 0.945644 0.641081 -0.492286
O16   O     O_2   0.365616 0.703992 0.657645 -0.453324
H6    H     H_    0.364883 0.598079 0.566096 0.208476
H7    H     H_    0.417454 0.542514 0.464682 0.200650
O17   O     O_2   0.537040 0.541209 0.366698 -0.447985
O18   O     O_2   0.673988 0.795594 0.340886 -0.439684
H8    H     H_    0.737477 0.946643 0.542162 0.244733
C47   C     C_R   0.783641 0.656000 0.260475 -0.078121
H9    H     H_    0.898124 0.693879 0.282661 0.200041
C48   C     C_R   0.791484 0.629871 0.200633 0.340295
C49   C     C_R   0.650257 0.576555 0.170300 -0.257433
C50   C     C_R   0.501382 0.551260 0.202572 0.360961
C51   C     C_R   0.484819 0.585354 0.261458 -0.107617
H10   H     H_    0.361811 0.570209 0.284363 0.202302
C52   C     C_R   0.627416 0.636230 0.291602 0.207981
C53   C     C_R   0.592871 0.819146 0.747300 -0.113688
H11   H     H_    0.683537 0.768859 0.728697 0.199062
C54   C     C_R   0.581784 0.846598 0.807132 0.416460
C55   C     C_R   0.465906 0.913690 0.831298 -0.168753
C56   C     C_R   0.358093 0.948968 0.794262 -0.225953
H12   H     H_    0.267299 0.999775 0.811568 0.168155
C57   C     C_R   0.369083 0.920291 0.734625 -0.051132
H13   H     H_    0.285534 0.948715 0.707029 0.178783
C58   C     C_R   0.487354 0.855298 0.710661 0.261757
C59   C     C_2   0.639893 0.268130 0.993316 0.150937
C60   C     C_2   0.473129 0.230935 0.003387 0.127729
O19   O     O_R   0.618210 0.960470 0.922400 -0.522856
O20   O     O_R   0.291310 0.111960 0.995450 -0.520697
O21   O     O_R   0.124210 0.039530 0.077580 -0.513868
C61   C     C_R   0.461491 0.144710 0.998104 0.811064
O22   O     O_R   0.288310 0.965490 0.917650 -0.543945
O23   O     O_R   0.121180 0.892010 0.999220 -0.543643
C62   C     C_R   0.456620 0.947889 0.894266 0.769521
O24   O     O_R   0.621230 0.107990 0.000760 -0.512432
O25   O     O_3   0.455770 0.976060 0.026840 -0.362326
V3    V     V_3+5 0.179680 0.004440 0.995020 1.707440
O26   O     O_R   0.791670 0.888040 0.004570 -0.541608
C63   C     C_R   0.961291 0.855037 0.002032 0.822590
O27   O     O_R   0.794680 0.034510 0.082370 -0.510327
C64   C     C_R   0.964024 0.050876 0.106119 0.856171
V4    V     V_3+5 0.680070 0.995560 0.005010 1.731933
O28   O     O_3   0.953840 0.023940 0.973160 -0.359858
Cl1   Cl    Cl    0.634723 0.199559 0.300059 -0.436271
S1    S     S_3+6 0.449319 0.460767 0.692466 0.143007
O29   O     O_2   0.387093 0.539177 0.682461 -0.218328
O30   O     O_2   0.640353 0.471685 0.723418 -0.263469
O31   O     O_3   0.480875 0.396701 0.628585 -0.501854
H14   H     H_    0.561907 0.353660 0.636733 0.340132
Cl2   Cl    Cl    0.420114 0.539301 0.827271 -0.450522
Cl3   Cl    Cl    0.839100 0.324331 0.841531 -0.568561
S2    S     S_3+6 0.873157 0.910698 0.428198 0.176246
O32   O     O_2   0.764185 0.944541 0.385475 -0.194193
O33   O     O_2   0.967153 0.977805 0.470825 -0.270442
O34   O     O_3   0.045001 0.849339 0.393509 -0.455827
H15   H     H_    0.110480 0.828585 0.423604 0.331122
Cl4   Cl    Cl    0.977660 0.669173 0.165775 -0.578449
S3    S     S_3+6 0.347397 0.470335 0.173351 0.103206
O35   O     O_2   0.272562 0.434469 0.220149 -0.268123
O36   O     O_2   0.178738 0.498123 0.144040 -0.282959
O37   O     O_3   0.472016 0.401624 0.125954 -0.499638
H16   H     H_    0.453789 0.351472 0.137916 0.417146
S4    S     S_3+6 0.707069 0.792756 0.849827 0.043395
O38   O     O_2   0.755613 0.711097 0.814874 -0.263943
O39   O     O_2   0.891090 0.835717 0.871503 -0.345490
O40   O     O_3   0.568723 0.784890 0.905568 -0.520147
H17   H     H_    0.622625 0.739445 0.918685 0.352678
Cl5   Cl    Cl    0.845639 0.214505 0.961935 -0.529145
Cl6   Cl    Cl    0.259582 0.282983 0.029952 -0.517663
Cl7   Cl    Cl    0.852755 0.435862 0.419600 -0.477647
S5    S     S_3+6 0.434769 0.061351 0.448540 0.165854
O41   O     O_2   0.507335 0.085512 0.396309 -0.301919
O42   O     O_2   0.599585 0.068097 0.490309 -0.260566
O43   O     O_3   0.358856 0.966566 0.429936 -0.416515
H18   H     H_    0.374088 0.949317 0.387857 0.418916
S6    S     S_3+6 0.281842 0.079790 0.582160 0.143596
O44   O     O_2   0.126736 0.084714 0.626519 -0.296622
O45   O     O_2   0.285570 0.996305 0.546074 -0.264863
O46   O     O_3   0.498486 0.100425 0.614436 -0.437551
H19   H     H_    0.483740 0.089162 0.652658 0.401191
Cl8   Cl    Cl    0.302781 0.988333 0.170137 -0.531878
S7    S     S_3+6 0.675946 0.187887 0.162892 0.087101
O47   O     O_2   0.501649 0.137213 0.142803 -0.292568
O48   O     O_2   0.610854 0.265338 0.200741 -0.251310
O49   O     O_3   0.788170 0.207003 0.105796 -0.503617
H20   H     H_    0.898069 0.241950 0.121912 0.366264

loop_
_geom_bond_atom_site_label_1
_geom_bond_atom_site_label_2
_ccdc_geom_bond_type
C25   Cl1   S    
C24   S7    S    
C53   H11   S    
C43   S2    S    
C57   H13   S    
N2    C20   A    
C13   Cl7   S    
C9    C12   A    
C50   S3    S    
C1    O6    A    
S3    O35   D    
C48   C49   A    
C55   C56   A    
O25   V4    S    
C31   H5    S    
O26   C63   A    
C2    C59   S    
C38   C39   A    
C28   Cl2   S    
C7    N1    A    
C13   C14   A    
C51   C52   A    
S5    O42   D    
C59   Cl5   S    
C15   C16   A    
O25   V3    S    
S1    O29   D    
C33   N3    A    
C45   O17   S    
C19   N2    A    
O31   H14   S    
V3    O28   S    
O27   C64   A    
O8    V2    S    
C50   C51   A    
C12   H3    S    
S1    O30   D    
C53   C58   A    
S4    O40   S    
C8    C9    A    
N4    C46   A    
O1    V2    S    
O7    V1    S    
C31   C32   A    
C42   C43   A    
C35   C36   A    
C57   C58   A    
O9    C4    A    
C48   Cl4   S    
C61   O24   A    
C4    C5    S    
C20   O14   S    
C21   C22   A    
N2    C26   S    
N1    C8    A    
V4    O28   S    
C7    C11   A    
C28   C29   A    
S6    O45   D    
C6    C63   S    
C44   H8    S    
C22   Cl8   S    
C54   S4    S    
C43   C44   A    
C25   C26   A    
O19   V4    S    
C51   H10   S    
S5    O43   S    
C54   C55   A    
C56   H12   S    
C47   C48   A    
O40   H17   S    
C35   C38   A    
C33   O15   S    
C10   C11   A    
C27   C32   A    
C14   C19   A    
O26   V4    S    
C36   C37   A    
O2    C1    A    
C14   C15   A    
C56   C57   A    
S6    O46   S    
C30   Cl3   S    
C11   C18   A    
C42   C46   A    
S7    O49   S    
S1    O31   S    
C59   C60   D    
C5    H1    S    
C7    O11   S    
O22   V3    S    
C33   C37   A    
C21   C26   A    
C40   C45   A    
C9    C10   A    
O22   C62   A    
C55   C62   S    
C17   S5    S    
O3    C4    A    
O20   C61   A    
O24   V4    S    
S7    O48   D    
C36   C41   A    
C49   C50   A    
O6    V2    S    
C53   C54   A    
O34   H15   S    
C19   O13   S    
C47   H9    S    
C21   H4    S    
S2    O33   D    
O37   H16   S    
O2    V1    S    
S3    O37   S    
C46   O18   S    
C3    C29   S    
C30   C31   A    
O4    C2    A    
S6    O44   D    
C10   C15   A    
C24   C25   A    
O21   V3    S    
C27   S1    S    
O1    C2    A    
C16   C17   A    
C22   C23   A    
O43   H18   S    
S3    O36   D    
O5    V1    S    
O8    C3    A    
C23   C64   S    
N1    C32   S    
C8    O12   S    
O20   V3    S    
O23   C63   A    
C17   C18   A    
C6    H2    S    
O9    V2    S    
C34   C35   A    
C29   C30   A    
O3    V1    S    
V1    O10   S    
O46   H19   S    
C40   C41   A    
O5    C3    A    
C37   C44   A    
N3    C34   A    
S4    O38   D    
C39   H7    S    
S2    O34   S    
O19   C62   A    
C5    C6    D    
C41   C42   A    
O7    V2    S    
C45   N4    A    
O27   V4    S    
C18   S6    S    
C39   C40   A    
C23   C24   A    
O4    V1    S    
C1    C49   S    
S7    O47   D    
O21   C64   A    
C27   C28   A    
N3    C58   S    
O49   H20   S    
S4    O39   D    
C16   C20   A    
C38   H6    S    
O23   V3    S    
S2    O32   D    
S5    O41   D    
C60   Cl6   S    
C47   C52   A    
C60   C61   S    
V2    O10   S    
C34   O16   S    
C12   C13   A    
N4    C52   S    
