data_mof_unit_35928.cif
_audit_creation_date              2012-12-10T17:33:00-0500
_audit_creation_method            fapswitch 2.2
_symmetry_space_group_name_H-M    P1
_symmetry_Int_Tables_number       1
_space_group_crystal_system       triclinic
_cell_length_a                    12.402755
_cell_length_b                    13.301162
_cell_length_c                    14.425911
_cell_angle_alpha                 94.3475
_cell_angle_beta                  108.212155
_cell_angle_gamma                 116.907894
_cell_volume                      1948.46586582

loop_
_atom_site_label
_atom_site_type_symbol
_atom_type_description
_atom_site_fract_x
_atom_site_fract_y
_atom_site_fract_z
_atom_type_partial_charge
C1    C     C_R   0.649831 0.713828 0.506492 0.939404
C2    C     C_R   0.917231 0.573097 0.908639 0.055948
C3    C     C_R   0.936367 0.669098 0.974851 0.010775
C4    C     C_R   0.011484 0.536038 0.935265 0.076067
C5    C     C_R   0.108779 0.579071 0.036037 0.033482
C6    C     C_R   0.121747 0.673423 0.099483 -0.149629
C7    C     C_R   0.050397 0.728410 0.063309 0.407645
C8    C     C_R   0.008094 0.454179 0.865157 -0.129673
C9    C     C_R   0.075963 0.396774 0.896952 -0.092261
C10   C     C_R   0.152418 0.422270 0.998809 0.041530
C11   C     C_R   0.183095 0.521541 0.068952 0.047547
C12   C     C_R   0.621718 0.519803 0.686909 0.817906
C13   C     C_R   0.190389 0.343483 0.031047 -0.228865
C14   C     C_R   0.249139 0.354793 0.133188 0.323875
C15   C     C_R   0.279805 0.550930 0.168475 0.276587
C16   C     C_R   0.182728 0.959510 0.411287 0.693219
C17   C     C_R   0.267061 0.162125 0.486457 -0.376985
C18   C     C_R   0.716391 0.924994 0.544763 0.580219
C19   C     C_R   0.812121 0.041675 0.567405 0.363102
C20   C     C_R   0.929970 0.070102 0.557209 -0.177615
C21   C     C_R   0.951425 0.984578 0.515599 0.022906
C22   C     C_R   0.845758 0.868141 0.479526 -0.193545
C23   C     C_R   0.350657 0.286147 0.492524 0.972058
C24   C     C_R   0.068634 0.013480 0.498749 -0.076638
C25   C     C_R   0.072866 0.925943 0.437663 -0.355239
C26   C     C_R   0.964080 0.810563 0.399693 0.389939
C27   C     C_R   0.849576 0.787782 0.412828 0.586095
C28   C     C_R   0.180524 0.128155 0.536542 0.354968
C29   C     C_R   0.273461 0.076164 0.430199 0.580349
C30   C     C_R   0.735640 0.836542 0.507129 -0.220132
C31   C     C_R   0.244087 0.656493 0.679813 0.558772
C32   C     C_R   0.649423 0.341216 0.362384 0.860643
C33   C     C_R   0.718523 0.294762 0.335669 -0.311602
C34   C     C_R   0.378788 0.480659 0.312705 0.946254
C35   C     C_R   0.852328 0.340834 0.391401 0.430779
C36   C     C_R   0.921714 0.445905 0.470947 0.001488
C37   C     C_R   0.841977 0.485911 0.497839 0.083772
C38   C     C_R   0.062711 0.512121 0.527895 -0.177919
C39   C     C_R   0.111053 0.595157 0.619505 -0.252621
C40   C     C_R   0.028201 0.625114 0.646256 0.669201
C41   C     C_R   0.899679 0.577549 0.582464 -0.220219
C42   C     C_R   0.159324 0.508300 0.495606 0.810614
C43   C     C_R   0.334410 0.645573 0.648162 0.343900
C44   C     C_R   0.711629 0.554040 0.793630 -0.027673
C45   C     C_R   0.303119 0.462145 0.203641 -0.229394
C46   C     C_R   0.839023 0.700870 0.952877 -0.066128
C47   C     C_R   0.725941 0.641092 0.864704 -0.148126
C48   C     C_R   0.803437 0.516406 0.818455 -0.160367
Cu1   Cu    Cu3+1 0.416420 0.526630 0.522910 1.176370
Cu2   Cu    Cu3+1 0.583580 0.473370 0.477090 1.123393
H1    H     H_    0.158455 0.264323 0.976983 0.170815
H2    H     H_    0.000694 0.160623 0.577076 0.267468
H3    H     H_    0.664235 0.216598 0.274187 0.229572
H4    H     H_    0.847006 0.614250 0.602837 0.205447
H5    H     H_    0.061741 0.326643 0.842220 0.192257
H6    H     H_    0.848129 0.770313 0.004451 0.216585
H7    H     H_    0.652796 0.666459 0.850583 0.231272
H8    H     H_    0.783531 0.442587 0.765239 0.150157
H9    H     H_    0.187952 0.708501 0.176826 0.254239
H10   H     H_    0.950159 0.430115 0.785406 0.169787
N1    N     N_R   0.290690 0.566960 0.557640 -0.318447
N2    N     N_R   0.709100 0.433710 0.442970 -0.247135
O1    O     O_R   0.545970 0.684450 0.528810 -0.474330
O2    O     O_R   0.687130 0.639470 0.490120 -0.588376
O3    O     O_R   0.519670 0.535100 0.660030 -0.532423
O4    O     O_R   0.660830 0.490120 0.621340 -0.638210
O5    O     O_R   0.312870 0.360530 0.509880 -0.524832
O6    O     O_R   0.454030 0.315550 0.471190 -0.490661
O7    O     O_R   0.339170 0.509880 0.378660 -0.518794
O8    O     O_R   0.480330 0.464900 0.339970 -0.488630
S1    S     S_3+6 0.122588 0.879485 0.116108 0.131462
O9    O     O_2   0.126013 0.938692 0.031511 -0.246925
O10   O     O_2   0.044429 0.903450 0.166551 -0.207315
O11   O     O_3   0.276911 0.932496 0.200219 -0.407750
H11   H     H_    0.323394 0.016537 0.203071 0.440976
F1    F     F_    0.368058 0.104246 0.392569 -0.525822
S2    S     S_3+6 0.961214 0.690966 0.331093 0.097830
O12   O     O_2   0.843044 0.576740 0.317207 -0.260716
O13   O     O_2   0.955726 0.707111 0.228441 -0.240220
O14   O     O_3   0.096276 0.684110 0.392970 -0.489625
H12   H     H_    0.109109 0.643873 0.340240 0.406817
F2    F     F_    0.199317 0.883066 0.358571 -0.517091
S3    S     S_3+6 0.244563 0.209281 0.664207 0.025138
O15   O     O_2   0.388672 0.249967 0.712044 -0.279641
O16   O     O_2   0.227803 0.314458 0.667530 -0.295276
O17   O     O_3   0.168616 0.125467 0.730834 -0.497191
H13   H     H_    0.198531 0.179993 0.795952 0.374773
F3    F     F_    0.604102 0.898457 0.558359 -0.529677
S4    S     S_3+6 0.785180 0.152819 0.610380 0.062063
O18   O     O_2   0.897964 0.271242 0.624400 -0.354980
O19   O     O_2   0.660868 0.138372 0.534386 -0.179656
O20   O     O_3   0.768811 0.140524 0.720989 -0.475144
H14   H     H_    0.750710 0.202824 0.739599 0.371020
F4    F     F_    0.736701 0.692399 0.348158 -0.566814
S5    S     S_3+6 0.500429 0.758623 0.724328 0.140231
O21   O     O_2   0.508321 0.871510 0.707497 -0.133206
O22   O     O_2   0.520693 0.761770 0.833121 -0.232622
O23   O     O_3   0.628162 0.756873 0.709564 -0.553241
H15   H     H_    0.705643 0.833637 0.750708 0.370970
S6    S     S_3+6 0.399960 0.698759 0.235242 0.036178
O24   O     O_2   0.372736 0.734308 0.323005 -0.232741
O25   O     O_2   0.532759 0.709859 0.274659 -0.249069
O26   O     O_3   0.402865 0.788677 0.158842 -0.472837
H16   H     H_    0.472378 0.867559 0.202382 0.413109
F5    F     F_    0.072673 0.708362 0.731115 -0.576125
F6    F     F_    0.288134 0.734425 0.768356 -0.503310
F7    F     F_    0.125534 0.461028 0.397828 -0.597889
F8    F     F_    0.518502 0.286597 0.311667 -0.545087
S7    S     S_3+6 0.909700 0.244885 0.367092 0.070899
O27   O     O_2   0.937470 0.256845 0.273021 -0.191317
O28   O     O_2   0.030491 0.268053 0.453273 -0.287229
O29   O     O_3   0.790629 0.106805 0.346679 -0.525625
H17   H     H_    0.825059 0.057509 0.328196 0.381140
S8    S     S_3+6 0.234847 0.224925 0.164154 0.113754
O30   O     O_2   0.264489 0.232999 0.274116 -0.229452
O31   O     O_2   0.096062 0.127775 0.105538 -0.208848
O32   O     O_3   0.336509 0.194381 0.129733 -0.433433
H18   H     H_    0.301227 0.177354 0.055075 0.359578

loop_
_geom_bond_atom_site_label_1
_geom_bond_atom_site_label_2
_ccdc_geom_bond_type
Cu1   O1    S    
C17   C29   A    
S5    O21   D    
C15   S6    S    
C4    C8    A    
S8    O30   D    
S5    O23   S    
C29   F1    S    
S2    O12   D    
C26   C27   A    
C17   C23   S    
C31   C43   A    
C36   C37   A    
C38   C42   A    
C3    C7    A    
S7    O28   D    
C7    S1    S    
C38   C39   A    
Cu2   O2    S    
C18   C19   A    
C23   O5    A    
C1    C30   S    
C13   H1    S    
C11   C15   A    
C35   C36   A    
C8    C9    A    
C43   S5    S    
C18   C30   A    
S4    O19   D    
Cu1   O5    S    
C42   F7    S    
C34   O8    A    
C35   S7    S    
C44   C47   A    
Cu1   O7    S    
C13   C14   A    
C28   S3    S    
C37   C41   A    
C1    O1    A    
C16   F2    S    
O29   H17   S    
C37   N2    A    
C14   C45   A    
S2    O13   D    
C33   H3    S    
C26   S2    S    
Cu1   N1    S    
O11   H11   S    
C24   C25   A    
S7    O27   D    
S7    O29   S    
C39   C40   A    
S1    O10   D    
O17   H13   S    
O14   H12   S    
C2    C48   A    
C16   C29   A    
C14   S8    S    
C12   O4    A    
S6    O26   S    
C18   F3    S    
C23   O6    A    
C2    C4    A    
C19   S4    S    
C47   H7    S    
S3    O15   D    
C34   O7    A    
S6    O25   D    
C34   C45   S    
S4    O20   S    
Cu2   O4    S    
C42   N1    A    
Cu1   O3    S    
C9    H5    S    
C40   C41   A    
S3    O16   D    
Cu1   Cu2   S    
C22   C27   A    
C5    C11   A    
Cu2   N2    S    
C31   F6    S    
C15   C45   A    
C1    O2    A    
C43   N1    A    
C9    C10   A    
S2    O14   S    
C16   C25   A    
C46   C47   A    
C22   C30   A    
C17   C28   A    
C6    H9    S    
C24   C28   A    
C4    C5    A    
C10   C13   A    
S1    O11   S    
S8    O31   D    
S5    O22   D    
C48   H8    S    
C6    C7    A    
C12   O3    A    
C3    C46   A    
C32   C33   A    
C19   C20   A    
C36   C38   A    
C2    C3    A    
C25   C26   A    
C32   N2    A    
S1    O9    D    
C20   H2    S    
O32   H18   S    
C8    H10   S    
C5    C6    A    
O20   H14   S    
C33   C35   A    
C31   C39   A    
Cu2   O8    S    
C41   H4    S    
S8    O32   S    
C10   C11   A    
S3    O17   S    
C20   C21   A    
C12   C44   S    
O23   H15   S    
C32   F8    S    
C21   C24   A    
C46   H6    S    
O26   H16   S    
C27   F4    S    
S6    O24   D    
S4    O18   D    
C21   C22   A    
Cu2   O6    S    
C44   C48   A    
C40   F5    S    
