data_mof_unit_7160.cif
_audit_creation_date              2012-12-10T17:48:57-0500
_audit_creation_method            fapswitch 2.2
_symmetry_space_group_name_H-M    P1
_symmetry_Int_Tables_number       1
_space_group_crystal_system       triclinic
_cell_length_a                    10.743471
_cell_length_b                    14.748708
_cell_length_c                    14.599576
_cell_angle_alpha                 64.740409
_cell_angle_beta                  104.167413
_cell_angle_gamma                 102.31799
_cell_volume                      2012.80833536

loop_
_atom_site_label
_atom_site_type_symbol
_atom_type_description
_atom_site_fract_x
_atom_site_fract_y
_atom_site_fract_z
_atom_type_partial_charge
C1    C     C_R   0.478508 0.119837 0.311375 0.805108
C2    C     C_3   0.878212 0.996735 0.502448 0.109605
C3    C     C_3   0.933410 0.901126 0.593816 -0.020155
C4    C     C_3   0.960951 0.091688 0.518048 -0.452365
C5    C     C_R   0.460437 0.188440 0.201579 -0.054827
C6    C     C_R   0.513985 0.815099 0.798549 -0.147408
C7    C     C_R   0.388266 0.220846 0.020916 -0.183030
C8    C     C_R   0.412553 0.152621 0.123303 -0.192959
C9    C     C_R   0.486449 0.292658 0.175638 -0.248455
C10   C     C_R   0.453597 0.362665 0.074111 0.081537
C11   C     C_R   0.406974 0.325560 0.995922 0.132269
C12   C     C_R   0.260543 0.001129 0.499304 0.871255
C13   C     C_R   0.464886 0.468017 0.049018 0.026115
C14   C     C_R   0.444716 0.536967 0.944225 0.062814
C15   C     C_R   0.384340 0.497145 0.867287 0.123486
C16   C     C_R   0.372491 0.392438 0.894520 -0.276701
C17   C     C_R   0.487825 0.505973 0.126201 -0.176427
C18   C     C_R   0.494586 0.607919 0.102443 -0.218403
C19   C     C_R   0.491503 0.678886 0.000814 0.031274
C20   C     C_R   0.477877 0.642459 0.922726 0.073473
C21   C     C_R   0.504053 0.784801 0.976227 0.143266
C22   C     C_R   0.505424 0.852386 0.871840 0.159615
C23   C     C_R   0.517686 0.880698 0.688716 0.813757
C24   C     C_R   0.508334 0.711412 0.827837 -0.286897
C25   C     C_R   0.722108 0.286203 0.665619 -0.327617
C26   C     C_R   0.690114 0.206126 0.634294 0.016206
C27   C     C_R   0.510945 0.282450 0.512673 0.306547
C28   C     C_R   0.548592 0.372344 0.533113 -0.049233
C29   C     C_R   0.650396 0.368410 0.616834 0.149434
C30   C     C_R   0.487620 0.463503 0.477840 0.023163
C31   C     C_R   0.514340 0.540456 0.517459 0.077794
C32   C     C_R   0.606501 0.526560 0.608301 -0.241462
C33   C     C_R   0.677117 0.444757 0.653808 -0.189829
C34   C     C_R   0.740112 0.998339 0.501690 0.767011
C35   C     C_R   0.407160 0.483076 0.381279 -0.243406
C36   C     C_R   0.337731 0.565258 0.331871 0.138633
C37   C     C_R   0.357919 0.639253 0.372310 0.116113
C38   C     C_R   0.450100 0.629609 0.463416 -0.047300
C39   C     C_R   0.291964 0.725043 0.320753 -0.333401
C40   C     C_R   0.322031 0.802290 0.355617 0.078069
C41   C     C_R   0.476460 0.711860 0.494264 -0.003990
C42   C     C_3   0.038022 0.000590 0.397256 -0.049177
C43   C     C_3   0.894877 0.004992 0.396313 -0.404511
C44   C     C_3   0.078028 0.902544 0.590347 -0.071253
C45   C     C_3   0.103544 0.094820 0.515641 -0.390172
C46   C     C_3   0.123359 0.000877 0.500746 0.111651
Cu1   Cu    Cu3+1 0.465900 0.918260 0.475680 0.927079
Cu2   Cu    Cu3+1 0.534100 0.081740 0.524320 0.934212
H1    H     H_    0.043335 0.928235 0.392357 0.145607
H2    H     H_    0.953133 0.091134 0.592970 0.170003
H3    H     H_    0.930823 0.910980 0.664860 0.103935
H4    H     H_    0.329726 0.361722 0.836701 0.139648
H5    H     H_    0.531565 0.684577 0.776732 0.152335
H6    H     H_    0.506484 0.629411 0.166413 0.148131
H7    H     H_    0.351022 0.191602 0.961491 0.129799
H8    H     H_    0.392814 0.072288 0.141134 0.146624
H9    H     H_    0.533497 0.317503 0.236444 0.144691
H10   H     H_    0.493653 0.458112 0.206483 0.130868
H11   H     H_    0.751346 0.439886 0.720584 0.138262
H12   H     H_    0.548241 0.713041 0.559628 0.123422
H13   H     H_    0.274049 0.869603 0.314146 0.125706
H14   H     H_    0.802065 0.283573 0.728234 0.141899
H15   H     H_    0.745712 0.142802 0.671749 0.125160
H16   H     H_    0.862266 0.077118 0.335860 0.155239
H17   H     H_    0.629077 0.579083 0.645124 0.131346
H18   H     H_    0.399007 0.437263 0.339444 0.154798
H19   H     H_    0.219908 0.734699 0.252089 0.135131
H20   H     H_    0.831903 0.945164 0.374125 0.172684
H21   H     H_    0.088368 0.837335 0.574643 0.168558
H22   H     H_    0.164241 0.098812 0.587666 0.182938
H23   H     H_    0.134281 0.165474 0.452224 0.187453
H24   H     H_    0.924824 0.162173 0.456660 0.190345
N1    N     N_R   0.585360 0.204570 0.560800 -0.167178
N2    N     N_R   0.414550 0.795430 0.439160 -0.176224
O1    O     O_R   0.455060 0.022100 0.338110 -0.586043
O2    O     O_R   0.512640 0.160150 0.379180 -0.579669
O3    O     O_R   0.288900 0.930980 0.479450 -0.597862
O4    O     O_R   0.346480 0.069030 0.520520 -0.553714
O5    O     O_R   0.487360 0.839850 0.620820 -0.585100
O6    O     O_R   0.544940 0.977900 0.661890 -0.595203
O7    O     O_R   0.653520 0.930970 0.479480 -0.580241
O8    O     O_R   0.711100 0.069020 0.520550 -0.596482
N3    N     N_3   0.161944 0.891710 0.689635 -0.629848
H25   H     H_    0.136555 0.819952 0.744243 0.218026
H26   H     H_    0.146328 0.943903 0.715223 0.216023
N4    N     N_3   0.494316 0.956949 0.840668 -0.592541
H27   H     H_    0.415439 0.977861 0.780991 0.245285
H28   H     H_    0.580191 0.000966 0.818100 0.233439
N5    N     N_3   0.086022 0.082739 0.307491 -0.610148
H29   H     H_    0.036514 0.070833 0.241555 0.219353
H30   H     H_    0.065030 0.152132 0.299164 0.228772
C47   C     C_3   0.309607 0.557614 0.761647 -0.368440
C48   C     C_3   0.201130 0.604626 0.769914 -0.810703
H31   H     H_    0.135198 0.545195 0.819185 0.244864
H32   H     H_    0.240236 0.662377 0.802639 0.258895
H33   H     H_    0.144349 0.641915 0.692190 0.235430
H34   H     H_    0.371764 0.615123 0.708700 0.199195
H35   H     H_    0.262290 0.507496 0.720415 0.192861
C49   C     C_3   0.514265 0.819430 0.064004 -0.385240
C50   C     C_3   0.531573 0.932057 0.041984 -0.792147
H36   H     H_    0.619334 0.971468 0.007239 0.257678
H37   H     H_    0.443732 0.967101 0.992833 0.265082
H38   H     H_    0.545067 0.941076 0.115706 0.222173
H39   H     H_    0.426201 0.785150 0.099636 0.189470
H40   H     H_    0.599256 0.789188 0.123019 0.191103
N6    N     N_3   0.249028 0.572261 0.238606 -0.600878
H41   H     H_    0.275853 0.639422 0.178737 0.210515
H42   H     H_    0.156252 0.573316 0.248429 0.218826
N7    N     N_3   0.385511 0.262598 0.457803 -0.558394
H43   H     H_    0.315540 0.294535 0.469088 0.193993
H44   H     H_    0.387953 0.282744 0.380488 0.214661
C51   C     C_3   0.854653 0.795111 0.611022 -0.408204
C52   C     C_3   0.831810 0.759661 0.522953 -0.821782
H45   H     H_    0.746019 0.789319 0.465392 0.260889
H46   H     H_    0.916718 0.781051 0.484600 0.231927
H47   H     H_    0.812201 0.676114 0.554082 0.239750
H48   H     H_    0.907690 0.738806 0.680132 0.192884
H49   H     H_    0.760140 0.791261 0.631475 0.199860

loop_
_geom_bond_atom_site_label_1
_geom_bond_atom_site_label_2
_ccdc_geom_bond_type
C48   H31   S    
C45   H23   S    
Cu2   O2    S    
C35   C36   A    
Cu1   O5    S    
C44   N3    S    
C8    H8    S    
C47   H35   S    
C7    C8    A    
C45   C46   S    
C7    C11   A    
C30   C35   A    
N3    H25   S    
C1    C5    S    
C36   C37   A    
C19   C21   A    
N7    H44   S    
C30   C31   A    
C21   C49   S    
N4    H28   S    
N6    H41   S    
C15   C16   A    
C6    C22   A    
C29   C33   A    
C26   N1    A    
C18   C19   A    
C42   C46   S    
Cu2   O4    S    
C20   C24   A    
C47   C48   S    
C13   C14   A    
C15   C47   S    
C19   C20   A    
Cu2   O8    S    
C43   H20   S    
C12   O4    A    
C47   H34   S    
C34   O7    A    
C7    H7    S    
C23   O6    A    
N5    H30   S    
C9    C10   A    
C3    C51   S    
C17   H10   S    
C52   H47   S    
C2    C34   S    
Cu1   O7    S    
C49   H39   S    
C41   N2    A    
C33   H11   S    
C21   C22   A    
C51   C52   S    
C44   C46   S    
C43   H16   S    
C4    C45   S    
C25   C29   A    
C49   H40   S    
C3    C44   S    
C36   N6    S    
C1    O1    A    
Cu1   Cu2   S    
C14   C20   A    
C41   H12   S    
C38   C41   A    
C12   C46   S    
C39   C40   A    
C3    H3    S    
N4    H27   S    
C35   H18   S    
C24   H5    S    
C50   H38   S    
C40   H13   S    
C4    H2    S    
C2    C4    S    
C26   H15   S    
C5    C9    A    
C37   C38   A    
C11   C16   A    
C49   C50   S    
C2    C43   S    
C6    C24   A    
C12   O3    A    
C50   H37   S    
C17   C18   A    
C44   H21   S    
N3    H26   S    
C48   H33   S    
C42   C43   S    
Cu1   O3    S    
C4    H24   S    
C52   H45   S    
C28   C29   A    
C45   H22   S    
C1    O2    A    
C39   H19   S    
Cu2   N1    S    
C31   C32   A    
C16   H4    S    
Cu1   N2    S    
C10   C13   A    
C5    C8    A    
C31   C38   A    
C13   C17   A    
C42   N5    S    
C32   C33   A    
Cu2   O6    S    
C28   C30   A    
C2    C3    S    
C25   C26   A    
Cu1   O1    S    
C37   C39   A    
N7    H43   S    
C51   H49   S    
C51   H48   S    
N6    H42   S    
C6    C23   S    
C50   H36   S    
C40   N2    A    
C9    H9    S    
C25   H14   S    
C22   N4    S    
C10   C11   A    
C18   H6    S    
C42   H1    S    
C27   N7    S    
C48   H32   S    
C27   C28   A    
C14   C15   A    
C34   O8    A    
C23   O5    A    
N5    H29   S    
C27   N1    A    
C32   H17   S    
C52   H46   S    
