data_mof_unit_43587.cif
_audit_creation_date              2013-03-05T15:43:05-0500
_audit_creation_method            fapswitch 2.2
_symmetry_space_group_name_H-M    P1
_symmetry_Int_Tables_number       1
_space_group_crystal_system       triclinic
_cell_length_a                    11.219419
_cell_length_b                    19.571358
_cell_length_c                    18.64498
_cell_angle_alpha                 89.883726
_cell_angle_beta                  89.543263
_cell_angle_gamma                 89.648496
_cell_volume                      4093.83586946

loop_
_atom_site_label
_atom_site_type_symbol
_atom_site_description
_atom_site_fract_x
_atom_site_fract_y
_atom_site_fract_z
_atom_type_partial_charge
O1    O     O_R   0.575450 0.828820 0.667950 -0.463055
O2    O     O_R   0.575450 0.828820 0.832050 -0.464580
O3    O     O_R   0.575450 0.171180 0.332050 -0.468288
O4    O     O_R   0.575450 0.171180 0.167950 -0.475079
O5    O     O_R   0.075450 0.328820 0.667950 -0.484237
O6    O     O_R   0.075450 0.328820 0.832050 -0.461164
O7    O     O_R   0.075450 0.671180 0.332050 -0.478077
O8    O     O_R   0.075450 0.671180 0.167950 -0.474680
O9    O     O_R   0.416860 0.942890 0.674680 -0.534340
O10   O     O_R   0.416860 0.942890 0.825320 -0.530693
O11   O     O_R   0.416860 0.057110 0.325320 -0.531170
O12   O     O_R   0.416860 0.057110 0.174680 -0.529551
O13   O     O_R   0.916860 0.442890 0.674680 -0.531217
O14   O     O_R   0.916860 0.442890 0.825320 -0.527894
O15   O     O_R   0.916860 0.557110 0.325320 -0.530491
O16   O     O_R   0.916860 0.557110 0.174680 -0.533332
C1    C     C_R   0.319344 0.962397 0.644498 0.544292
C2    C     C_R   0.318825 0.965314 0.854306 0.525075
C3    C     C_R   0.319704 0.037308 0.355524 0.563814
C4    C     C_R   0.317296 0.062979 0.138679 0.532003
C5    C     C_R   0.816793 0.440016 0.638539 0.519924
C6    C     C_R   0.818828 0.465309 0.854308 0.529287
C7    C     C_R   0.817679 0.535400 0.354334 0.550380
C8    C     C_R   0.817292 0.562968 0.138678 0.532896
O17   O     O_R   0.213790 0.953680 0.668330 -0.496592
O18   O     O_R   0.213790 0.953680 0.831670 -0.496678
O19   O     O_R   0.213790 0.046320 0.331670 -0.492466
O20   O     O_R   0.213790 0.046320 0.168330 -0.476328
O21   O     O_R   0.713790 0.453680 0.668330 -0.503993
O22   O     O_R   0.713790 0.453680 0.831670 -0.500265
O23   O     O_R   0.713790 0.546320 0.331670 -0.520610
O24   O     O_R   0.713790 0.546320 0.168330 -0.482469
O25   O     O_R   0.121360 0.817890 0.672660 -0.507372
O26   O     O_R   0.121360 0.817890 0.827340 -0.491541
O27   O     O_R   0.121360 0.182110 0.327340 -0.501167
O28   O     O_R   0.121360 0.182110 0.172660 -0.521840
O29   O     O_R   0.621360 0.317890 0.672660 -0.524373
O30   O     O_R   0.621360 0.317890 0.827340 -0.490224
O31   O     O_R   0.621360 0.682110 0.327340 -0.501267
O32   O     O_R   0.621360 0.682110 0.172660 -0.523096
C9    C     C_R   0.132877 0.757701 0.644475 0.551848
C10   C     C_R   0.131942 0.757631 0.854937 0.549032
C11   C     C_R   0.133569 0.241821 0.355805 0.560970
C12   C     C_R   0.138467 0.241124 0.142181 0.546864
C13   C     C_R   0.640531 0.259594 0.641341 0.549003
C14   C     C_R   0.631947 0.257632 0.854938 0.559961
C15   C     C_R   0.641031 0.740363 0.358259 0.567685
C16   C     C_R   0.638402 0.741138 0.142202 0.553779
O33   O     O_R   0.206850 0.711370 0.665820 -0.491328
O34   O     O_R   0.206850 0.711370 0.834180 -0.494635
O35   O     O_R   0.206850 0.288630 0.334180 -0.493425
O36   O     O_R   0.206850 0.288630 0.165820 -0.515507
O37   O     O_R   0.706850 0.211370 0.665820 -0.504980
O38   O     O_R   0.706850 0.211370 0.834180 -0.489669
O39   O     O_R   0.706850 0.788630 0.334180 -0.519866
O40   O     O_R   0.706850 0.788630 0.165820 -0.512451
O41   O     O_R   0.457710 0.733190 0.672630 -0.461189
O42   O     O_R   0.457710 0.733190 0.827370 -0.458508
O43   O     O_R   0.457710 0.266810 0.327370 -0.450826
O44   O     O_R   0.457710 0.266810 0.172630 -0.458637
O45   O     O_R   0.957710 0.233190 0.672630 -0.451432
O46   O     O_R   0.957710 0.233190 0.827370 -0.448830
O47   O     O_R   0.957710 0.766810 0.327370 -0.448466
O48   O     O_R   0.957710 0.766810 0.172630 -0.454261
C17   C     C_R   0.498521 0.786998 0.637682 0.550908
C18   C     C_R   0.493452 0.788543 0.862136 0.548990
C19   C     C_R   0.494951 0.212083 0.362317 0.556984
C20   C     C_R   0.501601 0.214226 0.137043 0.551682
C21   C     C_R   0.998959 0.286731 0.637408 0.549229
C22   C     C_R   0.993454 0.288539 0.862137 0.554514
C23   C     C_R   0.998219 0.713171 0.362918 0.568119
C24   C     C_R   0.001620 0.714233 0.137045 0.554813
Cr1   Cr    Cr6+3 0.488160 0.884660 0.750000 1.078032
Cr2   Cr    Cr6+3 0.488160 0.115340 0.250000 1.044404
Cr3   Cr    Cr6+3 0.988160 0.384660 0.750000 1.045664
Cr4   Cr    Cr6+3 0.988160 0.615340 0.250000 1.031173
Cr5   Cr    Cr6+3 0.173480 0.883120 0.750000 1.084793
Cr6   Cr    Cr6+3 0.173480 0.116880 0.250000 1.062058
Cr7   Cr    Cr6+3 0.673480 0.383120 0.750000 1.056534
Cr8   Cr    Cr6+3 0.673480 0.616880 0.250000 1.043569
Cr9   Cr    Cr6+3 0.333410 0.727260 0.750000 1.101720
Cr10  Cr    Cr6+3 0.333410 0.272740 0.250000 1.088434
Cr11  Cr    Cr6+3 0.833410 0.227260 0.750000 1.116915
Cr12  Cr    Cr6+3 0.833410 0.772740 0.250000 1.088318
O49   O     O_3   0.331690 0.831680 0.750000 -0.354075
O50   O     O_3   0.331690 0.168320 0.250000 -0.365886
O51   O     O_3   0.831690 0.331680 0.750000 -0.364107
O52   O     O_3   0.831690 0.668320 0.250000 -0.361697
C25   C     C_3   0.055096 0.797872 0.470477 0.099310
C26   C     C_3   0.084044 0.795193 0.031327 0.079973
C27   C     C_3   0.061148 0.201198 0.530919 0.097162
C28   C     C_3   0.988208 0.210180 0.982265 0.095376
C29   C     C_3   0.476984 0.287258 0.484770 0.093383
C30   C     C_3   0.583812 0.295240 0.031311 0.081801
C31   C     C_3   0.478285 0.714544 0.514259 0.088715
C32   C     C_3   0.488411 0.710132 0.982182 0.094895
C33   C     C_3   0.160983 0.763406 0.508225 -0.106169
C34   C     C_3   0.169898 0.750286 0.987265 -0.095686
C35   C     C_3   0.163882 0.237174 0.491353 -0.102742
C36   C     C_3   0.118375 0.210579 0.004928 -0.169020
C37   C     C_3   0.607493 0.296946 0.505635 -0.164275
C38   C     C_3   0.669878 0.250423 0.987298 -0.096919
C39   C     C_3   0.607048 0.699209 0.491348 -0.152203
C40   C     C_3   0.618543 0.710653 0.004914 -0.171087
H1    H     H_    0.249943 0.786674 0.514409 0.130117
H2    H     H_    0.263267 0.762500 0.975609 0.132906
H3    H     H_    0.254140 0.215356 0.484001 0.126703
H4    H     H_    0.181741 0.168588 0.996020 0.110922
H5    H     H_    0.665255 0.340955 0.496971 0.112604
H6    H     H_    0.763218 0.262759 0.975687 0.132823
H7    H     H_    0.655644 0.650262 0.490399 0.111949
H8    H     H_    0.681972 0.668677 0.996047 0.110014
C41   C     C_3   0.080659 0.747484 0.572955 0.035014
C42   C     C_3   0.079898 0.748464 0.926376 0.042901
C43   C     C_3   0.081611 0.250237 0.427720 0.034295
C44   C     C_3   0.084638 0.252923 0.071110 0.031596
C45   C     C_3   0.590085 0.248512 0.569495 0.033724
C46   C     C_3   0.579933 0.248475 0.926382 0.042544
C47   C     C_3   0.594099 0.750949 0.430373 0.032199
C48   C     C_3   0.584581 0.752918 0.071119 0.031621
C49   C     C_3   0.973488 0.782637 0.537021 0.042350
C50   C     C_3   0.992096 0.794053 0.968284 0.028701
C51   C     C_3   0.977469 0.213494 0.465154 0.040461
C52   C     C_3   0.953303 0.251581 0.050280 0.087553
C53   C     C_3   0.458719 0.239191 0.550418 0.071456
C54   C     C_3   0.491935 0.293974 0.968244 0.031349
C55   C     C_3   0.464851 0.765805 0.451372 0.064431
C56   C     C_3   0.453293 0.751435 0.050210 0.089167
C57   C     C_3   0.940693 0.711989 0.504197 -0.166505
C58   C     C_3   0.937453 0.728034 0.000161 -0.156607
C59   C     C_3   0.939349 0.283662 0.497160 -0.157373
C60   C     C_3   0.972096 0.319568 0.007480 -0.153726
C61   C     C_3   0.495318 0.176691 0.503609 -0.153960
C62   C     C_3   0.437491 0.227897 0.000120 -0.154459
C63   C     C_3   0.509937 0.824374 0.499922 -0.148733
C64   C     C_3   0.471871 0.819475 0.007481 -0.152462
C65   C     C_3   0.047855 0.678015 0.541806 -0.117146
C66   C     C_3   0.023958 0.683522 0.955495 -0.132274
C67   C     C_3   0.042707 0.318985 0.457452 -0.124228
C68   C     C_3   0.104080 0.319645 0.030146 -0.112113
C69   C     C_3   0.627218 0.187030 0.523759 -0.100884
C70   C     C_3   0.524208 0.183478 0.955506 -0.131540
C71   C     C_3   0.640079 0.808688 0.478011 -0.102673
C72   C     C_3   0.603826 0.819698 0.030215 -0.111403
C73   C     C_3   0.128276 0.693425 0.476601 -0.077637
C74   C     C_3   0.114793 0.684273 0.016897 -0.089343
C75   C     C_3   0.125582 0.307088 0.521593 -0.082033
C76   C     C_3   0.138608 0.276807 0.964095 -0.110324
C77   C     C_3   0.643567 0.236152 0.459932 -0.106770
C78   C     C_3   0.614987 0.184357 0.016942 -0.090486
C79   C     C_3   0.651272 0.756345 0.539609 -0.108155
C80   C     C_3   0.638599 0.776944 0.964146 -0.112095
C81   C     C_3   0.022854 0.727418 0.439430 0.028227
C82   C     C_3   0.029299 0.728912 0.060958 0.038331
C83   C     C_3   0.023735 0.271636 0.561025 0.033236
C84   C     C_3   0.009249 0.276841 0.940634 0.009430
C85   C     C_3   0.514631 0.225386 0.439443 0.021908
C86   C     C_3   0.529276 0.228905 0.060954 0.039774
C87   C     C_3   0.523732 0.772665 0.561600 0.030923
C88   C     C_3   0.509269 0.776844 0.940624 0.011383
H9    H     H_    0.853071 0.687496 0.498250 0.100835
H10   H     H_    0.844571 0.718828 0.013776 0.100221
H11   H     H_    0.849802 0.305722 0.504029 0.096138
H12   H     H_    0.911060 0.364410 0.006847 0.135193
H13   H     H_    0.441667 0.130059 0.500981 0.126688
H14   H     H_    0.344618 0.218515 0.013642 0.100346
H15   H     H_    0.464443 0.873747 0.506192 0.130214
H16   H     H_    0.410681 0.864249 0.006857 0.134054
H17   H     H_    0.045047 0.630392 0.573803 0.149971
H18   H     H_    0.994733 0.644242 0.917572 0.136964
H19   H     H_    0.034372 0.360478 0.418593 0.147849
H20   H     H_    0.150944 0.362816 0.054050 0.172836
H21   H     H_    0.693272 0.147802 0.539334 0.168357
H22   H     H_    0.495169 0.144203 0.917533 0.140651
H23   H     H_    0.709094 0.846479 0.462838 0.197363
H24   H     H_    0.650470 0.862935 0.054164 0.173126
H25   H     H_    0.189398 0.656442 0.449982 0.204982
H26   H     H_    0.165997 0.640063 0.037627 0.188192
H27   H     H_    0.182667 0.346299 0.546622 0.190476
H28   H     H_    0.211428 0.276072 0.925301 0.193579
H29   H     H_    0.711108 0.248601 0.419253 0.185165
H30   H     H_    0.666322 0.140221 0.037736 0.188831
H31   H     H_    0.718547 0.741255 0.579319 0.173371
H32   H     H_    0.711459 0.776371 0.925390 0.190506
C89   C     C_R   0.326703 0.016883 0.428885 0.002480
C90   C     C_R   0.326726 0.047667 0.062487 -0.016291
C91   C     C_R   0.325250 0.983024 0.571453 0.000665
C92   C     C_R   0.323547 0.998724 0.923034 -0.011900
C93   C     C_R   0.817275 0.504826 0.423913 0.003345
C94   C     C_R   0.826704 0.547630 0.062498 -0.014812
C95   C     C_R   0.820782 0.461350 0.564533 -0.010651
C96   C     C_R   0.823549 0.498713 0.923040 -0.014765
C97   C     C_R   0.546519 0.992073 0.427917 -0.107079
C98   C     C_R   0.546469 0.015241 0.061119 -0.074187
C99   C     C_R   0.540115 0.012348 0.575475 -0.059879
C100  C     C_R   0.540041 0.018537 0.913270 -0.056550
C101  C     C_R   0.033285 0.483467 0.416027 -0.136955
C102  C     C_R   0.046372 0.515110 0.061179 -0.075267
C103  C     C_R   0.036901 0.492314 0.563175 -0.141164
C104  C     C_R   0.040064 0.518506 0.913329 -0.057606
C105  C     C_R   0.653394 0.993596 0.466688 0.235970
C106  C     C_R   0.648737 0.000503 0.021793 0.197854
C107  C     C_R   0.649076 0.009404 0.540414 0.286405
C108  C     C_R   0.647180 0.005795 0.946416 0.275183
C109  C     C_R   0.140931 0.493826 0.449578 0.315870
C110  C     C_R   0.148688 0.500442 0.021882 0.199301
C111  C     C_R   0.142269 0.498482 0.524136 0.287904
C112  C     C_R   0.147184 0.505762 0.946503 0.276561
C113  C     C_R   0.434090 0.000489 0.538134 -0.090988
C114  C     C_R   0.432702 0.018673 0.952868 -0.089558
C115  C     C_R   0.436308 0.002334 0.463232 -0.071211
C116  C     C_R   0.436279 0.029221 0.027176 -0.058278
C117  C     C_R   0.928344 0.478830 0.529065 -0.052473
C118  C     C_R   0.932703 0.518633 0.952899 -0.089162
C119  C     C_R   0.925704 0.485938 0.455048 -0.067242
C120  C     C_R   0.936241 0.529148 0.027208 -0.057453
H33   H     H_    0.550685 0.979890 0.371487 0.154693
H34   H     H_    0.557705 0.006804 0.117371 0.208437
H35   H     H_    0.540124 0.025703 0.631692 0.184390
H36   H     H_    0.541971 0.026900 0.855939 0.181429
H37   H     H_    0.035092 0.471856 0.359360 0.139637
H38   H     H_    0.057511 0.506570 0.117424 0.205720
H39   H     H_    0.042618 0.506445 0.618586 0.153930
H40   H     H_    0.042031 0.526867 0.856000 0.176375
C121  C     C_R   0.220319 0.980000 0.530463 0.025043
C122  C     C_R   0.219244 0.000778 0.965759 0.036972
C123  C     C_R   0.220703 0.018418 0.469794 0.022059
C124  C     C_R   0.218687 0.042789 0.024522 -0.006191
C125  C     C_R   0.711128 0.466822 0.527944 -0.008064
C126  C     C_R   0.719219 0.500797 0.965738 0.036092
C127  C     C_R   0.708952 0.502865 0.464651 0.013874
C128  C     C_R   0.718677 0.542789 0.024517 -0.005255
C129  C     C_R   0.111854 0.947841 0.549725 -0.043774
C130  C     C_R   0.121786 0.955771 0.959623 -0.029906
C131  C     C_R   0.113142 0.051490 0.451487 -0.046168
C132  C     C_R   0.106511 0.062445 0.052714 -0.072158
C133  C     C_R   0.601150 0.443549 0.555901 -0.095741
C134  C     C_R   0.621683 0.455854 0.959535 -0.030495
C135  C     C_R   0.597723 0.534164 0.446159 -0.088318
C136  C     C_R   0.606518 0.562482 0.052693 -0.071935
C137  C     C_R   0.004946 0.972786 0.523667 -0.052235
C138  C     C_R   0.020994 0.964476 0.002786 -0.078415
C139  C     C_R   0.006103 0.026454 0.476659 -0.064858
C140  C     C_R   0.010794 0.020078 0.047023 -0.051134
C141  C     C_R   0.495525 0.470205 0.535159 -0.035727
C142  C     C_R   0.520850 0.464613 0.002628 -0.078090
C143  C     C_R   0.493522 0.516051 0.479583 -0.032413
C144  C     C_R   0.510726 0.520177 0.046929 -0.051740
H41   H     H_    0.111111 0.096585 0.419035 0.177646
H42   H     H_    0.095732 0.103747 0.088606 0.172028
H43   H     H_    0.109067 0.903104 0.582647 0.177776
H44   H     H_    0.129651 0.908533 0.930536 0.167214
H45   H     H_    0.585204 0.576260 0.409850 0.173143
H46   H     H_    0.595776 0.603774 0.088595 0.171874
H47   H     H_    0.593559 0.403328 0.593855 0.175613
H48   H     H_    0.629475 0.408605 0.930459 0.168561
H49   H     H_    0.921344 0.950843 0.537326 0.220389
H50   H     H_    0.958130 0.924649 0.008831 0.141186
H51   H     H_    0.924180 0.046832 0.459261 0.199080
H52   H     H_    0.933684 0.028836 0.080634 0.207658
H53   H     H_    0.417347 0.450616 0.561005 0.209807
H54   H     H_    0.457929 0.424813 0.008580 0.142300
H55   H     H_    0.412487 0.538918 0.461983 0.250988
H56   H     H_    0.433582 0.528975 0.080497 0.206121
I1    I     I_    0.083306 0.878599 0.392369 -0.239745
I2    I     I_    0.155865 0.864881 0.109958 -0.258470
I3    I     I_    0.095263 0.121633 0.609063 -0.267511
I4    I     I_    0.893057 0.128163 0.937055 -0.304756
I5    I     I_    0.368425 0.363585 0.437636 -0.327795
I6    I     I_    0.655366 0.365065 0.109862 -0.288383
I7    I     I_    0.370353 0.640484 0.561559 -0.334213
I8    I     I_    0.393232 0.628130 0.936913 -0.317579
I9    I     I_    0.869197 0.840652 0.614567 -0.297774
I10   I     I_    0.890365 0.855546 0.892573 -0.337326
I11   I     I_    0.874640 0.157687 0.386445 -0.356806
I12   I     I_    0.844492 0.215529 0.137248 -0.244196
I13   I     I_    0.342060 0.245774 0.641601 -0.275243
I14   I     I_    0.390163 0.355416 0.892528 -0.345317
I15   I     I_    0.347606 0.768417 0.361351 -0.240873
I16   I     I_    0.344397 0.714883 0.136826 -0.230618
O53   O     O_3   0.760761 0.978048 0.434308 -0.728851
H57   H     H_    0.747700 0.967680 0.382943 0.341104
O54   O     O_3   0.746257 0.979143 0.059307 -0.740582
H58   H     H_    0.779891 0.940315 0.032429 0.317511
O55   O     O_3   0.748798 0.020736 0.580656 -0.670754
H59   H     H_    0.803557 0.047859 0.550649 0.334822
O56   O     O_3   0.745214 0.996431 0.902814 -0.640311
H60   H     H_    0.816405 0.991676 0.932907 0.362382
O57   O     O_3   0.243418 0.502963 0.409935 -0.677873
H61   H     H_    0.225300 0.500880 0.357996 0.328988
O58   O     O_3   0.246210 0.479158 0.059436 -0.742503
H62   H     H_    0.279936 0.440346 0.032587 0.318035
O59   O     O_3   0.247013 0.508957 0.558642 -0.693822
H63   H     H_    0.235180 0.505400 0.611351 0.328283
O60   O     O_3   0.245239 0.496411 0.902918 -0.649963
H64   H     H_    0.316402 0.491631 0.933023 0.362786

loop_
_geom_bond_atom_site_label_1
_geom_bond_atom_site_label_2
_geom_bond_distance
_ccdc_geom_bond_type
O46   Cr11  2.018423 S    
C102  C110  1.385770 A    
C47   C71   1.533155 S    
O58   H62   0.982735 S    
O26   C10   1.290945 A    
C71   H23   1.108733 S    
C102  C120  1.418092 A    
O1    Cr1   2.112721 S    
Cr7   O51   2.035271 S    
O6    Cr3   2.120798 S    
C16   C48   1.477871 S    
O45   C21   1.319774 A    
C54   I14   2.178222 S    
O31   C15   1.299481 A    
C99   C113  1.403868 A    
O12   Cr2   1.986571 S    
C50   I10   2.178478 S    
C34   C42   1.525980 S    
C99   C107  1.382629 A    
C97   C105  1.405551 A    
O46   C22   1.329215 A    
O3    Cr2   2.130169 S    
O48   Cr12  2.001479 S    
C92   C114  1.406857 A    
C51   I11   2.174057 S    
C48   C72   1.527489 S    
C138  C140  1.370476 A    
C67   H19   1.091286 S    
C100  C108  1.377161 A    
C75   C83   1.523780 S    
C100  C114  1.407543 A    
C71   C79   1.542792 S    
C104  C112  1.377213 A    
C138  H50   1.059649 S    
C27   I3    2.164851 S    
C9    O33   1.289943 A    
O38   Cr11  2.131727 S    
C117  C119  1.387295 A    
C24   C82   1.477806 S    
C29   C37   1.531036 S    
C4    O20   1.324460 A    
C5    O21   1.304649 A    
C7    O23   1.259854 A    
C8    O24   1.324371 A    
O24   Cr8   2.102427 S    
C74   C82   1.529135 S    
O12   C4    1.312103 A    
O13   C5    1.315552 A    
C126  C128  1.371137 A    
C131  C139  1.378357 A    
O47   C23   1.320621 A    
C107  O55   1.371503 S    
C32   C40   1.523625 S    
C41   C65   1.527745 S    
O28   C12   1.300805 A    
O29   C13   1.298714 A    
C58   C66   1.540805 S    
O4    C20   1.313542 A    
O32   C16   1.300772 A    
C35   C75   1.538469 S    
C33   C73   1.539830 S    
Cr12  O52   2.043853 S    
C132  H42   1.056193 S    
O11   Cr2   1.974246 S    
C34   C74   1.535616 S    
O27   Cr6   2.008974 S    
C136  H46   1.056131 S    
C34   H2    1.095878 S    
O47   Cr12  2.017102 S    
C1    O17   1.273893 A    
O31   Cr8   2.008974 S    
C40   C80   1.519386 S    
C28   C52   1.552560 S    
C121  C129  1.416867 A    
Cr8   O52   2.046016 S    
O10   C2    1.296151 A    
C110  C112  1.409312 A    
C109  O57   1.374369 S    
C97   C115  1.409728 A    
C4    C90   1.455333 S    
C28   I4    2.113687 S    
C75   H27   1.108671 S    
C57   C65   1.543066 S    
C54   C62   1.549053 S    
C64   C72   1.543228 S    
C134  H48   1.075615 S    
C8    C94   1.455232 S    
C61   C69   1.544305 S    
C3    C89   1.426876 S    
O34   Cr9   2.131727 S    
C144  H56   1.077251 S    
C89   C123  1.407901 A    
C140  H52   1.077281 S    
O43   Cr10  2.017102 S    
C141  H53   1.070133 S    
C99   H35   1.080793 S    
C97   H33   1.079865 S    
C14   C46   1.461171 S    
C53   I13   2.140876 S    
C31   C87   1.533410 S    
C12   C44   1.477770 S    
C39   H7    1.099432 S    
C101  H37   1.081166 S    
C118  C120  1.402016 A    
O8    Cr4   2.115723 S    
C74   H26   1.106410 S    
O43   C19   1.319994 A    
C10   C42   1.461225 S    
C78   C86   1.529145 S    
C91   C113  1.409281 A    
C135  H45   1.074556 S    
O1    C17   1.323520 A    
C89   C115  1.418061 A    
O27   C11   1.292975 A    
C58   H10   1.086616 S    
C63   C71   1.542272 S    
Cr5   O49   2.035271 S    
C27   C51   1.567553 S    
C105  C107  1.410015 A    
C31   C39   1.531314 S    
C49   I9    2.170749 S    
C109  C111  1.393505 A    
C36   H4    1.095405 S    
C43   C51   1.537764 S    
C93   C127  1.428687 A    
C19   C85   1.480428 S    
C40   H8    1.095517 S    
C98   C116  1.418214 A    
C79   C87   1.517647 S    
O36   Cr10  2.145808 S    
O59   H63   0.992990 S    
C95   C125  1.414873 A    
C72   H24   1.095447 S    
O57   H61   0.992067 S    
C57   H9    1.102841 S    
C58   C82   1.538186 S    
C111  O59   1.361066 S    
Cr1   O49   2.044325 S    
O2    Cr1   2.120798 S    
C130  C138  1.392529 A    
O22   Cr7   2.111274 S    
Cr3   O51   2.044325 S    
C62   C86   1.538281 S    
C10   O34   1.289463 A    
C114  C116  1.402106 A    
C13   C45   1.475325 S    
C49   C57   1.560431 S    
C6    O22   1.276851 A    
O16   Cr4   1.986571 S    
C104  C118  1.407496 A    
C29   I5    2.115808 S    
O2    C18   1.334637 A    
C79   H31   1.100191 S    
O7    Cr4   2.130169 S    
C122  C130  1.413779 A    
O14   C6    1.296116 A    
C33   H1    1.106549 S    
C72   C80   1.536995 S    
C57   C81   1.543818 S    
O25   Cr5   2.020195 S    
C77   C85   1.515202 S    
C66   C74   1.538933 S    
C9    C41   1.475257 S    
C121  C123  1.356989 A    
C61   C85   1.542824 S    
C42   C66   1.518449 S    
C60   C84   1.555012 S    
C143  H55   1.064761 S    
O30   C14   1.290924 A    
C59   C67   1.537788 S    
C64   C88   1.554885 S    
C41   C49   1.539090 S    
C76   H28   1.086912 S    
O54   H58   0.982854 S    
C63   H15   1.096065 S    
C55   I15   2.141053 S    
C33   C41   1.533105 S    
C56   I16   2.141743 S    
Cr9   O49   2.043616 S    
C47   C55   1.525387 S    
Cr11  O51   2.043616 S    
C90   C116  1.434284 A    
C101  C109  1.380802 A    
C36   C44   1.531519 S    
O19   Cr6   2.103588 S    
O23   Cr8   2.103588 S    
C78   H30   1.106465 S    
C96   C126  1.410766 A    
O11   C3    1.284540 A    
C106  C108  1.409234 A    
C65   C73   1.538653 S    
C55   C63   1.551726 S    
C56   C64   1.564577 S    
O26   Cr5   2.009814 S    
C35   C43   1.529159 S    
C91   C121  1.410284 A    
O10   Cr1   1.971869 S    
C20   C86   1.477848 S    
C5    C95   1.441242 S    
O30   Cr7   2.009814 S    
C37   H5    1.092039 S    
C30   I6    2.167332 S    
C32   C56   1.552332 S    
C135  C143  1.368705 A    
O33   Cr9   2.149253 S    
O5    C21   1.325765 A    
C93   C119  1.399444 A    
C62   H14   1.086723 S    
C26   C82   1.538401 S    
C142  H54   1.059506 S    
C39   C79   1.524557 S    
O15   Cr4   1.974246 S    
C30   C86   1.538437 S    
C103  C117  1.405159 A    
C77   H29   1.095981 S    
C106  O54   1.366193 S    
O40   Cr12  2.145808 S    
C39   C47   1.528134 S    
O8    C24   1.313487 A    
C63   C87   1.538435 S    
C70   H22   1.098737 S    
O45   Cr11  2.002131 S    
O42   Cr9   2.018423 S    
O60   H64   0.983508 S    
Cr10  O50   2.043853 S    
C51   C59   1.554671 S    
O5    Cr3   2.112721 S    
C45   C69   1.530027 S    
C60   H12   1.109960 S    
O55   H59   0.984662 S    
C61   H13   1.097739 S    
C62   C70   1.540745 S    
O56   H60   0.983587 S    
O21   Cr7   2.102012 S    
C59   H11   1.097729 S    
C67   C75   1.537159 S    
C14   O38   1.289449 A    
C139  H51   1.053013 S    
C38   C78   1.535608 S    
C141  C143  1.369551 A    
C22   C84   1.492698 S    
C38   H6    1.095944 S    
C103  H39   1.072571 S    
C129  H43   1.068754 S    
O6    C22   1.334676 A    
C44   C52   1.527203 S    
C102  H38   1.069782 S    
C133  H47   1.060792 S    
O41   C17   1.319705 A    
C48   C56   1.527151 S    
C31   I7    2.084319 S    
C60   C68   1.543158 S    
C35   H3    1.104208 S    
C92   C122  1.410784 A    
O37   Cr11  2.149253 S    
C37   C45   1.532450 S    
O14   Cr3   1.971869 S    
C70   C78   1.539037 S    
C59   C83   1.543955 S    
C125  C127  1.373930 A    
C95   C117  1.414961 A    
C11   O35   1.296238 A    
C25   C49   1.565338 S    
C1    C91   1.420868 S    
C2    C92   1.441313 S    
C29   C53   1.555278 S    
C31   C55   1.549272 S    
C90   C124  1.412387 A    
O44   C20   1.316507 A    
C136  C144  1.365737 A    
C76   C84   1.519151 S    
O39   Cr12  2.130114 S    
C94   C120  1.434114 A    
C40   C48   1.531636 S    
C80   C88   1.519193 S    
C108  O56   1.374091 S    
C66   H18   1.098844 S    
C17   C87   1.471469 S    
C68   C76   1.536956 S    
C18   C88   1.492582 S    
C69   C77   1.538891 S    
C98   H34   1.069731 S    
O29   Cr7   2.020195 S    
C52   C60   1.564676 S    
C21   C83   1.478902 S    
C137  H49   1.062899 S    
O17   Cr5   2.102012 S    
C26   I2    2.167793 S    
O7    C23   1.320093 A    
C23   C81   1.482597 S    
C127  C135  1.431094 A    
C37   C77   1.516018 S    
C129  C137  1.383549 A    
C11   C43   1.467009 S    
O44   Cr10  2.001479 S    
O42   C18   1.329249 A    
O32   Cr8   2.011946 S    
C80   H32   1.086742 S    
O20   Cr6   2.102427 S    
Cr4   O52   2.033371 S    
C112  O60   1.374052 S    
O4    Cr2   2.115723 S    
C101  C119  1.404962 A    
C73   C81   1.524274 S    
Cr6   O50   2.046016 S    
O15   C7    1.306397 A    
C68   H20   1.095301 S    
C69   H21   1.103874 S    
C26   C50   1.570361 S    
C134  C142  1.392274 A    
O9    Cr1   1.977650 S    
C96   C118  1.406879 A    
C100  H36   1.081124 S    
C30   C54   1.570238 S    
C142  C144  1.370545 A    
O18   Cr5   2.111274 S    
C133  C141  1.350911 A    
C104  H40   1.081094 S    
O13   Cr3   1.977650 S    
O25   C9    1.296173 A    
C105  O53   1.375779 S    
C64   H16   1.109963 S    
O53   H57   0.991583 S    
C25   C33   1.537282 S    
C137  C139  1.366687 A    
C27   C83   1.544013 S    
C25   C81   1.542698 S    
C2    O18   1.276826 A    
C103  C111  1.389098 A    
C28   C84   1.535270 S    
Cr2   O50   2.033371 S    
C29   C85   1.533352 S    
O35   Cr10  2.130114 S    
O9    C1    1.289667 A    
C32   C88   1.535123 S    
C122  C124  1.371108 A    
O41   Cr9   2.002131 S    
C126  C134  1.413790 A    
C131  H41   1.069273 S    
C6    C96   1.441292 S    
C7    C93   1.427520 S    
C3    O19   1.283161 A    
C28   C36   1.523611 S    
C15   O39   1.280926 A    
C53   C61   1.555320 S    
C16   O40   1.289735 A    
C65   H17   1.106103 S    
O3    C19   1.326586 A    
C43   C67   1.516611 S    
C46   C70   1.518372 S    
C38   C46   1.526016 S    
C32   I8    2.114060 S    
C123  C131  1.409912 A    
C27   C35   1.537125 S    
C132  C140  1.365701 A    
C110  O58   1.366156 S    
O28   Cr6   2.011946 S    
C52   I12   2.142852 S    
C12   O36   1.289624 A    
C45   C53   1.530997 S    
C36   C76   1.519226 S    
C15   C47   1.454827 S    
C113  C115  1.396958 A    
C25   I1    2.169511 S    
C26   C34   1.534643 S    
C94   C128  1.412364 A    
O48   C24   1.316467 A    
C124  C132  1.411585 A    
C13   O37   1.283649 A    
C42   C50   1.535190 S    
C130  H44   1.075596 S    
C98   C106  1.385901 A    
O16   C8    1.312128 A    
C73   H25   1.109252 S    
C128  C136  1.411506 A    
C46   C54   1.535142 S    
C125  C133  1.413277 A    
C50   C58   1.549001 S    
C30   C38   1.534627 S    
C44   C68   1.527407 S    
