data_mof_unit_9418.cif
_audit_creation_date              2013-03-05T16:07:04-0500
_audit_creation_method            fapswitch 2.2
_symmetry_space_group_name_H-M    P1
_symmetry_Int_Tables_number       1
_space_group_crystal_system       triclinic
_cell_length_a                    16.934648
_cell_length_b                    7.254976
_cell_length_c                    16.864855
_cell_angle_alpha                 88.613394
_cell_angle_beta                  100.474763
_cell_angle_gamma                 91.509455
_cell_volume                      2036.38970189

loop_
_atom_site_label
_atom_site_type_symbol
_atom_site_description
_atom_site_fract_x
_atom_site_fract_y
_atom_site_fract_z
_atom_type_partial_charge
O1    O     O_R   0.413450 0.494370 0.415710 -0.590508
O2    O     O_R   0.586550 0.994370 0.584290 -0.592905
O3    O     O_R   0.578420 0.819350 0.429360 -0.590963
O4    O     O_R   0.421580 0.319350 0.570640 -0.544978
C1    C     C_R   0.604423 0.658992 0.413111 0.999165
C2    C     C_R   0.395917 0.151765 0.586886 0.995003
O5    O     O_R   0.413570 0.823780 0.406240 -0.600810
O6    O     O_R   0.586430 0.323780 0.593760 -0.598186
O7    O     O_R   0.420530 0.998740 0.561000 -0.597294
O8    O     O_R   0.579470 0.498740 0.439000 -0.550103
C3    C     C_R   0.385929 0.655224 0.383775 0.930548
C4    C     C_R   0.614078 0.155483 0.616117 0.928846
O9    O     O_3   0.502480 0.662320 0.550800 -0.277044
O10   O     O_3   0.497520 0.162320 0.449200 -0.268527
V1    V     V_3+5 0.499540 0.935370 0.490580 1.201039
V2    V     V_3+5 0.500460 0.435370 0.509420 1.228088
C5    C     C_R   0.734396 0.992943 0.694739 0.164404
C6    C     C_R   0.265496 0.487899 0.304928 0.166476
C7    C     C_R   0.685212 0.147440 0.682318 -0.216560
C8    C     C_R   0.314860 0.646611 0.317568 -0.214322
C9    C     C_R   0.708770 0.298681 0.732828 -0.143362
C10   C     C_R   0.291440 0.801370 0.267441 -0.148668
H1    H     H_    0.674045 0.422749 0.725123 0.161545
H2    H     H_    0.326339 0.928573 0.275379 0.160306
C11   C     C_R   0.774544 0.287318 0.797294 -0.142960
C12   C     C_R   0.225568 0.790319 0.203070 -0.133978
H3    H     H_    0.788123 0.403893 0.836645 0.147019
H4    H     H_    0.212083 0.910055 0.163954 0.146820
C13   C     C_R   0.818915 0.124014 0.813576 -0.216403
C14   C     C_R   0.181009 0.623853 0.186527 -0.214667
C15   C     C_R   0.799250 0.981454 0.758445 0.193722
C16   C     C_R   0.200570 0.476714 0.241276 0.185512
C17   C     C_3   0.783810 0.781042 0.772174 -0.485743
C18   C     C_3   0.215792 0.279907 0.226974 -0.486242
C19   C     C_3   0.713035 0.793502 0.702520 -0.459491
C20   C     C_3   0.286658 0.292067 0.296572 -0.456919
H5    H     H_    0.765619 0.751239 0.831388 0.201572
H6    H     H_    0.233866 0.259773 0.167647 0.202278
H7    H     H_    0.833002 0.695244 0.758736 0.203105
H8    H     H_    0.166535 0.186529 0.240243 0.203041
H9    H     H_    0.653884 0.770706 0.721410 0.217269
H10   H     H_    0.345755 0.278811 0.277550 0.221154
H11   H     H_    0.721531 0.714895 0.649032 0.185007
H12   H     H_    0.278157 0.205710 0.349864 0.184190
C21   C     C_R   0.335703 0.127443 0.640860 -0.343053
C22   C     C_R   0.665507 0.666431 0.359424 -0.340753
C23   C     C_R   0.166110 0.141911 0.862119 -0.375114
C24   C     C_R   0.833079 0.602651 0.138058 -0.373352
C25   C     C_R   0.273062 0.336887 0.821561 0.419052
C26   C     C_R   0.723581 0.425011 0.183536 0.412839
C27   C     C_R   0.216715 0.299579 0.871552 -0.316293
C28   C     C_R   0.780174 0.449083 0.132668 -0.318057
C29   C     C_R   0.173407 0.017324 0.801570 0.758978
C30   C     C_R   0.828004 0.736679 0.195497 0.746522
C31   C     C_R   0.228467 0.054234 0.749226 -0.089420
C32   C     C_R   0.773072 0.712615 0.249132 -0.084789
C33   C     C_R   0.277917 0.216919 0.757561 -0.266748
C34   C     C_R   0.721149 0.554089 0.244855 -0.264707
C35   C     C_R   0.329505 0.254916 0.701043 0.770108
C36   C     C_R   0.669490 0.529552 0.302499 0.768882
C37   C     C_R   0.287407 0.966026 0.635272 -0.226135
C38   C     C_R   0.716354 0.823112 0.361062 -0.223680
C39   C     C_R   0.234061 0.930942 0.687902 -0.005845
C40   C     C_R   0.769947 0.844722 0.307697 -0.002340
H13   H     H_    0.290559 0.865736 0.589440 0.168385
H14   H     H_    0.714818 0.930437 0.404291 0.167442
H15   H     H_    0.197540 0.805472 0.680706 0.174846
H16   H     H_    0.808382 0.967176 0.311874 0.172977
H17   H     H_    0.213711 0.394042 0.919686 0.203578
H18   H     H_    0.781648 0.347437 0.086933 0.205352
O11   O     O_R   0.920630 0.775410 0.061150 -0.539885
O12   O     O_R   0.079370 0.275410 0.938850 -0.595662
O13   O     O_R   0.086500 0.441450 0.093690 -0.594721
O14   O     O_R   0.913500 0.941450 0.906310 -0.592619
C41   C     C_R   0.114074 0.610406 0.116218 0.928598
C42   C     C_R   0.885934 0.110166 0.883867 0.926854
O15   O     O_R   0.921670 0.445960 0.070740 -0.594696
O16   O     O_R   0.078330 0.945960 0.929260 -0.536886
O17   O     O_R   0.913380 0.271130 0.915780 -0.598358
O18   O     O_R   0.086620 0.771130 0.084220 -0.596148
C43   C     C_R   0.895951 0.610698 0.086427 1.004230
C44   C     C_R   0.103808 0.117756 0.913725 1.002142
O19   O     O_3   0.997500 0.603030 0.949220 -0.279143
O20   O     O_3   0.002500 0.103030 0.050780 -0.272076
V3    V     V_3+5 0.000470 0.329940 0.009420 1.196873
V4    V     V_3+5 0.999530 0.829940 0.990580 1.232383
F1    F     F_    0.124811 0.864284 0.791276 -0.696836
F2    F     F_    0.878763 0.886069 0.201688 -0.699366
F3    F     F_    0.373548 0.414483 0.703713 -0.661066
F4    F     F_    0.623025 0.374606 0.303943 -0.662759
N1    N     N_R   0.326535 0.493149 0.839335 0.273942
O21   O     O_R   0.298133 0.651132 0.854108 -0.373758
O22   O     O_R   0.403481 0.467857 0.858931 -0.300275
N2    N     N_R   0.667395 0.272725 0.169229 0.273652
O23   O     O_R   0.692608 0.110405 0.156054 -0.379179
O24   O     O_R   0.590915 0.304358 0.150586 -0.299390

loop_
_geom_bond_atom_site_label_1
_geom_bond_atom_site_label_2
_geom_bond_distance
_ccdc_geom_bond_type
C14   C16   1.400543 A    
C2    C21   1.489875 S    
C20   H10   1.112221 S    
O1    C3    1.332710 A    
C42   O17   1.334273 A    
O2    C4    1.335050 A    
C2    O7    1.307994 A    
O12   V3    1.996771 S    
C13   C42   1.488135 S    
C24   C30   1.404118 A    
C17   H7    1.111560 S    
O14   C42   1.342710 A    
C22   C38   1.405576 A    
C18   H8    1.111563 S    
C40   H16   1.083399 S    
C7    C9    1.409733 A    
C33   C35   1.423052 A    
C34   C36   1.426433 A    
C25   C33   1.418030 A    
C24   C43   1.492169 S    
C35   F3    1.357684 S    
C23   C44   1.489313 S    
C37   C39   1.391838 A    
C38   C40   1.393181 A    
C17   C19   1.520948 S    
C25   C27   1.400875 A    
C31   C39   1.401273 A    
C26   C28   1.402794 A    
C32   C40   1.401580 A    
C19   H11   1.111791 S    
C41   O18   1.331884 A    
C18   C20   1.520843 S    
C23   C29   1.404086 A    
O16   V4    1.989775 S    
O5    V1    2.009685 S    
O15   V3    2.040054 S    
O6    V2    2.012852 S    
O13   C41   1.338953 A    
C25   N1    1.434842 S    
C30   C32   1.415551 A    
C29   C31   1.412474 A    
C11   C13   1.414144 A    
C39   H15   1.083634 S    
C3    C8    1.486583 S    
C38   H14   1.083472 S    
C26   C34   1.418626 A    
O20   V3    1.771011 S    
O4    C2    1.319665 A    
N1    O21   1.301359 A    
C26   N2    1.434661 S    
C23   C27   1.405621 A    
C17   H5    1.112131 S    
C16   C18   1.490629 S    
O4    V2    1.989732 S    
O5    C3    1.336354 A    
N1    O22   1.301501 A    
O11   V4    1.971252 S    
O16   C44   1.343589 A    
O15   C43   1.331444 A    
O6    C4    1.340093 A    
C15   C17   1.490553 S    
C29   F1    1.359930 S    
O1    V2    2.001453 S    
O14   V4    2.012564 S    
N2    O24   1.301177 A    
O2    V1    2.001210 S    
O13   V3    2.009357 S    
C8    C10   1.410038 A    
C12   C14   1.413343 A    
C31   C33   1.423810 A    
C5    C15   1.392462 A    
C10   H2    1.080435 S    
C20   H12   1.111783 S    
C6    C16   1.392193 A    
O17   V3    2.000932 S    
O3    V1    2.040007 S    
C9    C11   1.410553 A    
C21   C35   1.409182 A    
C22   C36   1.409118 A    
C18   H6    1.112165 S    
C12   H4    1.081604 S    
O3    C1    1.307206 A    
C36   F4    1.357379 S    
C11   H3    1.081676 S    
C27   H17   1.083975 S    
C1    C22   1.492651 S    
O18   V4    2.001203 S    
C9    H1    1.080441 S    
O7    V1    2.012136 S    
C1    O8    1.318150 A    
C13   C15   1.400319 A    
O8    V2    1.982684 S    
C30   F2    1.359499 S    
C14   C41   1.487101 S    
C4    C7    1.487479 S    
C21   C37   1.405730 A    
C5    C7    1.402982 A    
C32   C34   1.424352 A    
C6    C8    1.402310 A    
N2    O23   1.300823 A    
C19   H9    1.112201 S    
C28   H18   1.083915 S    
C37   H13   1.083504 S    
C24   C28   1.405327 A    
O19   V4    1.800463 S    
C10   C12   1.410155 A    
O9    V2    1.800880 S    
O10   V1    1.771407 S    
C5    C19   1.490715 S    
C6    C20   1.490542 S    
O12   C44   1.330864 A    
O11   C43   1.340965 A    
