data_mof_unit_7751.cif
_audit_creation_date              2012-12-11T14:29:33-0500
_audit_creation_method            fapswitch 2.2
_symmetry_space_group_name_H-M    P1
_symmetry_Int_Tables_number       1
_space_group_crystal_system       triclinic
_cell_length_a                    6.940239
_cell_length_b                    14.742801
_cell_length_c                    16.246794
_cell_angle_alpha                 90.409212
_cell_angle_beta                  90.029448
_cell_angle_gamma                 90.012799
_cell_volume                      1662.30594676

loop_
_atom_site_label
_atom_site_type_symbol
_atom_type_description
_atom_site_fract_x
_atom_site_fract_y
_atom_site_fract_z
_atom_type_partial_charge
O1    O     O_R   0.494400 0.416610 0.413880 -0.508058
O2    O     O_R   0.823920 0.406790 0.585520 -0.541860
O3    O     O_R   0.994250 0.583390 0.586120 -0.538603
C1    C     C_R   0.654700 0.385131 0.613584 0.736323
O4    O     O_R   0.824110 0.405730 0.414490 -0.561047
O5    O     O_R   0.994440 0.582310 0.413870 -0.540935
C2    C     C_R   0.654893 0.385215 0.385296 0.648031
O6    O     O_R   0.494210 0.417690 0.586130 -0.547891
O7    O     O_3   0.660810 0.557940 0.500000 -0.373990
V1    V     V_3+5 0.935650 0.489250 0.500000 1.427024
O8    O     O_R   0.324160 0.593210 0.414480 -0.542512
C3    C     C_R   0.155426 0.614995 0.386353 0.752051
O9    O     O_R   0.323970 0.594270 0.585510 -0.542172
C4    C     C_R   0.155147 0.616190 0.613898 0.685306
V2    V     V_3+5 0.435660 0.510750 0.500000 1.450793
O10   O     O_3   0.160630 0.442060 0.500000 -0.368275
H1    H     H_    0.830427 0.892866 0.520109 0.113501
C5    C     C_R   0.313372 0.578933 0.775463 -0.143953
C6    C     C_R   0.389572 0.558388 0.852427 -0.120450
C7    C     C_R   0.376834 0.620824 0.916608 -0.113410
C8    C     C_R   0.287948 0.704343 0.904327 -0.132385
C9    C     C_R   0.211555 0.727878 0.826513 0.069128
C10   C     C_R   0.224409 0.663713 0.760604 0.070221
C11   C     C_R   0.119623 0.812766 0.814354 -0.185062
C12   C     C_R   0.040400 0.833230 0.736050 0.069267
C13   C     C_R   0.053188 0.769051 0.670145 0.069510
C14   C     C_R   0.145071 0.684141 0.682309 -0.183585
C15   C     C_R   0.951667 0.918066 0.721179 -0.142443
C16   C     C_R   0.875637 0.938660 0.644197 -0.124986
C17   C     C_R   0.888217 0.876193 0.580027 -0.121739
C18   C     C_R   0.976844 0.792609 0.592328 -0.132470
H2    H     H_    0.323872 0.527113 0.728267 0.110489
H3    H     H_    0.457429 0.493276 0.862476 0.120428
H4    H     H_    0.278396 0.749558 0.956858 0.108443
H5    H     H_    0.941267 0.969901 0.768373 0.110560
H6    H     H_    0.808033 0.003831 0.634134 0.118598
H7    H     H_    0.986284 0.747370 0.539807 0.106299
C19   C     C_2   0.985358 0.709761 0.283004 -0.129182
C20   C     C_2   0.150291 0.682733 0.319491 -0.306040
H8    H     H_    0.287894 0.710190 0.300627 0.127690
C21   C     C_2   0.973075 0.777227 0.215012 -0.131274
C22   C     C_2   0.126274 0.814483 0.177103 -0.309068
H9    H     H_    0.829111 0.796217 0.195365 0.134348
H10   H     H_    0.271363 0.796126 0.194916 0.129576
C23   C     C_2   0.779283 0.207654 0.781101 -0.136769
C24   C     C_2   0.614152 0.179545 0.816566 -0.310061
H11   H     H_    0.915308 0.179462 0.801881 0.135536
H12   H     H_    0.476181 0.206088 0.797180 0.127768
C25   C     C_2   0.791339 0.276062 0.714060 -0.133423
C26   C     C_2   0.638252 0.317738 0.680100 -0.311950
H13   H     H_    0.934890 0.292257 0.691984 0.134681
H14   H     H_    0.493468 0.302895 0.700717 0.127362
C27   C     C_2   0.776598 0.211275 0.212526 -0.092081
C28   C     C_2   0.612728 0.175111 0.182067 -0.263517
H15   H     H_    0.913557 0.192335 0.185041 0.144503
H16   H     H_    0.475307 0.188244 0.211144 0.205190
C29   C     C_2   0.785577 0.272873 0.285631 -0.239602
C30   C     C_2   0.637845 0.324162 0.313275 0.452648
H17   H     H_    0.924099 0.277689 0.316500 0.120891
O11   O     O_R   0.770210 0.079270 0.910680 -0.541300
O12   O     O_R   0.440150 0.091160 0.082270 -0.540939
O13   O     O_R   0.269970 0.914530 0.082860 -0.545555
C31   C     C_R   0.608666 0.111947 0.111298 0.717397
O14   O     O_R   0.440480 0.090100 0.911240 -0.544031
O15   O     O_R   0.270310 0.913460 0.910610 -0.537894
C32   C     C_R   0.609145 0.111710 0.883093 0.749297
O16   O     O_R   0.769870 0.080340 0.082930 -0.538446
O17   O     O_3   0.603660 0.938980 0.996790 -0.371377
V3    V     V_3+5 0.328750 0.007610 0.996740 1.416350
O18   O     O_R   0.940600 0.902510 0.911180 -0.539551
C33   C     C_R   0.109452 0.880675 0.882782 0.691930
O19   O     O_R   0.940270 0.903570 0.082200 -0.540650
C34   C     C_R   0.109554 0.881868 0.110349 0.734559
V4    V     V_3+5 0.828770 0.986010 0.996670 1.420523
O20   O     O_3   0.103730 0.054750 0.996710 -0.371801
F1    F     F_    0.466776 0.326011 0.272497 -0.694735
H18   H     H_    0.434725 0.604179 0.976515 0.121509
H19   H     H_    0.849379 0.681730 0.303974 0.137343

loop_
_geom_bond_atom_site_label_1
_geom_bond_atom_site_label_2
_ccdc_geom_bond_type
C21   C22   D    
C6    C7    A    
C1    O6    A    
C30   F1    S    
C23   C24   D    
C12   C15   A    
C16   H6    S    
C13   C14   A    
C7    H18   S    
C15   C16   A    
C24   C32   S    
O5    C3    A    
C17   C18   A    
C29   H17   S    
C28   C31   S    
O17   V4    S    
V2    O10   S    
C5    C6    A    
O12   C31   A    
O8    V2    S    
C15   H5    S    
O17   V3    S    
C25   H13   S    
O18   V4    S    
C26   H14   S    
O13   C34   A    
O18   C33   A    
O1    V2    S    
C10   C14   A    
C4    C14   S    
O7    V1    S    
C2    C30   S    
C23   H11   S    
O11   C32   A    
C13   C18   A    
O9    C4    A    
H1    C17   S    
C21   H9    S    
C22   H10   S    
C31   O16   A    
C27   H15   S    
C28   H16   S    
V4    O20   S    
C5    C10   A    
C11   C12   A    
C19   C21   S    
O19   V4    S    
C6    H3    S    
C20   H8    S    
O4    C2    A    
C27   C29   S    
C8    H4    S    
C19   H19   S    
C12   C13   A    
O15   C33   A    
C18   H7    S    
O13   V3    S    
C1    C26   S    
O14   C32   A    
O2    C1    A    
C16   C17   A    
C23   C25   S    
O16   V4    S    
O14   V3    S    
O3    C4    A    
O6    V2    S    
O9    V2    S    
C9    C11   A    
C5    H2    S    
O2    V1    S    
O12   V3    S    
C22   C34   S    
O1    C2    A    
O19   C34   A    
O5    V1    S    
O8    C3    A    
C27   C28   D    
C3    C20   S    
O7    V2    S    
O4    V1    S    
O3    V1    S    
V1    O10   S    
C29   C30   D    
C19   C20   D    
O15   V3    S    
O11   V4    S    
V3    O20   S    
C24   H12   S    
C7    C8    A    
C25   C26   D    
C9    C10   A    
C8    C9    A    
C11   C33   S    
