data_mof_unit_21108.cif
_audit_creation_date              2012-12-11T16:07:13-0500
_audit_creation_method            fapswitch 2.2
_symmetry_space_group_name_H-M    P1
_symmetry_Int_Tables_number       1
_space_group_crystal_system       triclinic
_cell_length_a                    17.185492
_cell_length_b                    17.155435
_cell_length_c                    17.178476
_cell_angle_alpha                 89.954169
_cell_angle_beta                  89.876891
_cell_angle_gamma                 89.940208
_cell_volume                      5064.62109981

loop_
_atom_site_label
_atom_site_type_symbol
_atom_type_description
_atom_site_fract_x
_atom_site_fract_y
_atom_site_fract_z
_atom_type_partial_charge
C1    C     C_R   0.393013 0.698373 0.605003 0.848592
C2    C     C_R   0.576782 0.668303 0.647376 0.658677
C3    C     C_3   0.727180 0.172734 0.664074 0.601142
C4    C     C_3   0.804853 0.789571 0.375781 0.544367
C5    C     C_3   0.229052 0.302252 0.743552 0.508813
C6    C     C_3   0.702426 0.240932 0.261229 0.464256
C7    C     C_3   0.207026 0.795017 0.629049 0.519872
C8    C     C_3   0.699596 0.708077 0.874428 0.535869
C9    C     C_3   0.250954 0.213328 0.227884 0.484564
C10   C     C_3   0.827414 0.273016 0.732313 0.616298
C11   C     C_3   0.302095 0.709685 0.125865 0.529278
C12   C     C_3   0.324211 0.251862 0.858256 0.558426
C13   C     C_R   0.671633 0.421988 0.354934 0.685696
C14   C     C_3   0.759422 0.775456 0.226712 0.506199
C15   C     C_3   0.233575 0.768871 0.781155 0.447465
C16   C     C_3   0.733331 0.320845 0.130285 0.595970
C17   C     C_3   0.781530 0.552770 0.902787 0.001354
C18   C     C_3   0.306347 0.375355 0.201852 0.021077
C19   C     C_3   0.706761 0.347050 0.845299 0.062297
C20   C     C_3   0.439937 0.827301 0.136681 0.146156
C21   C     C_3   0.344675 0.408355 0.942979 -0.097539
C22   C     C_3   0.845594 0.618689 0.195986 0.211542
C23   C     C_3   0.384296 0.867069 0.794809 0.052194
C24   C     C_R   0.301909 0.607274 0.605450 0.773471
C25   C     C_3   0.573762 0.313842 0.054159 0.012276
C26   C     C_3   0.874826 0.401931 0.256595 0.213987
C27   C     C_3   0.238886 0.596888 0.792508 0.128708
C28   C     C_3   0.620412 0.891973 0.236910 0.130218
C29   C     C_3   0.383819 0.103835 0.776631 0.002605
C30   C     C_3   0.225841 0.552806 0.090145 -0.053842
C31   C     C_3   0.952433 0.274309 0.604055 0.056254
C32   C     C_3   0.373247 0.084304 0.260934 0.159095
C33   C     C_3   0.522092 0.700360 0.852761 0.075168
C34   C     C_3   0.239832 0.061286 0.430594 -0.145039
C35   C     C_R   0.607449 0.699716 0.399243 0.827219
C36   C     C_3   0.645143 0.883963 0.702509 0.213676
C37   C     C_3   0.118222 0.609385 0.268885 0.157295
C38   C     C_3   0.844608 0.091189 0.555626 -0.053922
C39   C     C_3   0.731789 0.949152 0.410524 -0.093105
C40   C     C_3   0.210497 0.149258 0.655258 0.015340
C41   C     C_3   0.849877 0.158237 0.293041 -0.101458
C42   C     C_3   0.055993 0.697302 0.617040 0.106632
C43   C     C_3   0.305035 0.945443 0.614169 -0.080790
C44   C     C_3   0.610240 0.104920 0.214810 0.169160
C45   C     C_3   0.110663 0.400682 0.817377 0.201044
C46   C     C_R   0.418733 0.325638 0.643085 0.729150
C47   C     C_3   0.981536 0.788331 0.347380 0.071729
C48   C     C_3   0.600285 0.171807 0.787478 0.135236
C49   C     C_3   0.229660 0.890765 0.292725 0.034733
C50   C     C_3   0.881825 0.617403 0.724384 0.192461
C51   C     C_3   0.027488 0.264672 0.347436 0.077618
C52   C     C_R   0.334218 0.575189 0.351304 0.693092
C53   C     C_R   0.700315 0.389330 0.593394 0.865112
C54   C     C_R   0.888094 0.199667 0.095353 0.830154
C55   C     C_R   0.075914 0.833445 0.851661 0.736433
C56   C     C_R   0.167159 0.077454 0.148013 0.725104
C57   C     C_R   0.579512 0.331587 0.352350 0.754671
C58   C     C_R   0.801238 0.891508 0.897937 0.863177
C59   C     C_R   0.107098 0.800463 0.101699 0.834284
C60   C     C_R   0.917720 0.175002 0.857186 0.708050
C61   C     C_R   0.833546 0.923936 0.148591 0.733859
C62   C     C_R   0.199952 0.111454 0.906838 0.825544
C63   C     C_R   0.892631 0.800815 0.897748 0.829959
C64   C     C_R   0.076555 0.169526 0.146538 0.714987
C65   C     C_R   0.166024 0.925716 0.851548 0.718742
C66   C     C_R   0.798998 0.107572 0.095409 0.744057
C67   C     C_R   0.108300 0.201056 0.906392 0.779800
C68   C     C_R   0.666736 0.575844 0.648203 0.754290
C69   C     C_R   0.923432 0.831421 0.147196 0.648312
C70   C     C_R   0.826554 0.083079 0.856075 0.769204
C71   C     C_R   0.198655 0.890742 0.101874 0.780175
C72   C     C_3   0.267657 0.259095 0.343980 -0.325567
C73   C     C_3   0.673154 0.673584 0.754672 -0.346693
C74   C     C_3   0.326859 0.672069 0.244364 -0.256186
C75   C     C_3   0.737503 0.260258 0.644832 -0.325810
C76   C     C_3   0.736990 0.739671 0.344823 -0.287914
C77   C     C_3   0.318124 0.313464 0.747572 -0.280600
C78   C     C_3   0.679477 0.326694 0.244967 -0.270339
C79   C     C_R   0.301586 0.389501 0.399517 0.833336
C80   C     C_3   0.265369 0.735993 0.663824 -0.345510
C81   C     C_3   0.763721 0.761820 0.841869 -0.278484
C82   C     C_3   0.173153 0.176405 0.255002 -0.340286
C83   C     C_3   0.817546 0.185292 0.751920 -0.317437
C84   C     C_3   0.234944 0.760238 0.157988 -0.342231
C85   C     C_3   0.235273 0.240855 0.854332 -0.330969
C86   C     C_3   0.827913 0.826411 0.255798 -0.349574
C87   C     C_3   0.174806 0.827965 0.746812 -0.264762
C88   C     C_3   0.756111 0.235622 0.146239 -0.347843
C89   C     C_R   0.317595 0.682978 0.624388 -0.244714
C90   C     C_R   0.609632 0.299170 0.593415 0.781977
C91   C     C_R   0.639586 0.364730 0.309674 -0.200450
C92   C     C_R   0.632333 0.632891 0.693026 -0.217197
C93   C     C_R   0.317867 0.312624 0.384506 -0.274987
C94   C     C_R   0.687715 0.310945 0.600055 -0.211977
C95   C     C_R   0.368659 0.632018 0.306193 -0.214467
C96   C     C_R   0.357114 0.354315 0.684843 -0.224334
C97   C     C_R   0.684297 0.686377 0.384333 -0.233785
C98   C     C_R   0.809956 0.185146 0.105094 -0.228504
C99   C     C_R   0.131542 0.869580 0.806078 -0.192821
C100  C     C_R   0.132999 0.135770 0.192239 -0.235246
C101  C     C_R   0.423724 0.667939 0.352284 0.738128
C102  C     C_R   0.816210 0.814959 0.881368 -0.238639
C103  C     C_R   0.183393 0.813981 0.117932 -0.233872
C104  C     C_R   0.856760 0.145257 0.815086 -0.213949
C105  C     C_R   0.868110 0.866739 0.193213 -0.218206
C106  C     C_R   0.186256 0.189863 0.899525 -0.166034
C107  C     C_3   0.728699 0.642923 0.818652 0.287159
C108  C     C_3   0.228093 0.288477 0.269419 0.365863
C109  C     C_3   0.738840 0.280126 0.732727 0.204475
C110  C     C_3   0.354109 0.740246 0.192468 0.372883
C111  C     C_3   0.311844 0.337903 0.833628 0.349771
C112  C     C_R   0.325875 0.415967 0.643534 0.735242
C113  C     C_3   0.788867 0.709224 0.278106 0.329280
C114  C     C_3   0.294382 0.797838 0.722762 0.288380
C115  C     C_3   0.651142 0.303672 0.163232 0.334302
C116  C     C_3   0.761814 0.343085 0.212211 0.387208
C117  C     C_3   0.204378 0.707759 0.723532 0.329982
C118  C     C_3   0.708987 0.807457 0.292514 0.312386
C119  C     C_3   0.329489 0.227346 0.772261 0.340337
C120  C     C_3   0.273893 0.641737 0.178264 0.332576
C121  C     C_3   0.826713 0.252198 0.645321 0.328330
C122  C     C_3   0.290463 0.182663 0.301777 0.304448
C123  C     C_R   0.699153 0.609608 0.399864 0.868706
C124  C     C_3   0.643897 0.738003 0.810400 0.341336
C125  C     C_3   0.213555 0.146316 0.330091 0.312923
C126  C     C_3   0.707814 0.791966 0.778539 0.342115
C127  C     C_3   0.207155 0.692152 0.210498 0.275761
C128  C     C_3   0.816727 0.164571 0.664461 0.289470
C129  C     C_3   0.776506 0.857660 0.323064 0.297416
C130  C     C_3   0.241431 0.217316 0.767277 0.207348
C131  C     C_3   0.783794 0.257863 0.228799 0.217783
C132  C     C_3   0.146027 0.766092 0.688726 0.380107
C133  C     C_3   0.236503 0.856521 0.687806 0.356298
C134  C     C_R   0.394166 0.300009 0.399520 0.813008
C135  C     C_3   0.674016 0.218317 0.179455 0.320149
C136  C     C_3   0.222882 0.326530 0.829519 0.302706
C137  C     C_3   0.856428 0.759146 0.308439 0.339095
C138  C     C_3   0.727901 0.193806 0.750936 0.287083
C139  C     C_3   0.287060 0.789874 0.224601 0.321675
C140  C     C_3   0.792478 0.696923 0.786408 0.292540
C141  C     C_3   0.151344 0.252904 0.297291 0.425893
C142  C     C_3   0.191073 0.223180 0.372273 0.504028
C143  C     C_3   0.737941 0.728585 0.723898 0.497674
C144  C     C_3   0.259185 0.722719 0.275844 0.473196
F1    F     F_    0.420814 0.770475 0.588499 -0.593689
F2    F     F_    0.540390 0.736121 0.663832 -0.638676
F3    F     F_    0.735785 0.464053 0.339366 -0.608330
F4    F     F_    0.229745 0.579365 0.590330 -0.584561
F5    F     F_    0.577748 0.770370 0.418563 -0.580752
F6    F     F_    0.467055 0.267352 0.663702 -0.626320
F7    F     F_    0.269465 0.535111 0.332213 -0.648855
F8    F     F_    0.770909 0.421772 0.579602 -0.576146
F9    F     F_    0.918287 0.271393 0.081895 -0.577028
F10   F     F_    0.040840 0.764941 0.834998 -0.581399
F11   F     F_    0.233125 0.039023 0.166119 -0.668657
F12   F     F_    0.538124 0.268098 0.331136 -0.617233
F13   F     F_    0.729415 0.920337 0.913720 -0.558334
F14   F     F_    0.078083 0.729561 0.082581 -0.578946
F15   F     F_    0.963122 0.236188 0.837793 -0.620591
F16   F     F_    0.769707 0.965256 0.168756 -0.682235
F17   F     F_    0.270675 0.080135 0.922312 -0.609854
F18   F     F_    0.921888 0.729505 0.915243 -0.587186
F19   F     F_    0.036504 0.235369 0.162226 -0.600062
F20   F     F_    0.230877 0.966260 0.833293 -0.664383
F21   F     F_    0.730089 0.074582 0.076217 -0.579820
F22   F     F_    0.075767 0.269683 0.927868 -0.587044
F23   F     F_    0.730460 0.534108 0.667774 -0.637016
F24   F     F_    0.960290 0.763722 0.163135 -0.637764
F25   F     F_    0.764718 0.039293 0.835212 -0.583142
F26   F     F_    0.270660 0.919956 0.088157 -0.605578
F27   F     F_    0.164649 0.229822 0.448092 -0.683862
F28   F     F_    0.757428 0.739563 0.646414 -0.634988
F29   F     F_    0.238268 0.728907 0.353513 -0.656334
F30   F     F_    0.676581 0.121858 0.627813 -0.632327
F31   F     F_    0.825411 0.793991 0.453424 -0.630640
F32   F     F_    0.181471 0.325412 0.682868 -0.651216
F33   F     F_    0.688172 0.201653 0.330291 -0.670810
F34   F     F_    0.229172 0.418312 0.412279 -0.564430
F35   F     F_    0.195329 0.806299 0.550214 -0.651359
F36   F     F_    0.682558 0.700804 0.952800 -0.627567
F37   F     F_    0.281183 0.209676 0.153174 -0.642523
F38   F     F_    0.875877 0.327680 0.765868 -0.622562
F39   F     F_    0.322657 0.704925 0.048135 -0.647846
F40   F     F_    0.370786 0.226197 0.918621 -0.644597
F41   F     F_    0.736122 0.767608 0.150008 -0.629414
F42   F     F_    0.246052 0.757525 0.859979 -0.659550
F43   F     F_    0.750882 0.360972 0.062648 -0.660126
F44   F     F_    0.577475 0.229400 0.575402 -0.553668
F45   F     F_    0.459575 0.736228 0.336359 -0.582145
F46   F     F_    0.260608 0.455887 0.661851 -0.618504
F47   F     F_    0.770898 0.581354 0.416775 -0.568913
F48   F     F_    0.424780 0.230158 0.420120 -0.565606
H1    H     H_    0.748191 0.568817 0.955844 0.185045
H2    H     H_    0.421446 0.880328 0.168816 0.150388
H3    H     H_    0.406900 0.821890 0.081383 0.163197
H4    H     H_    0.501977 0.834738 0.120544 0.120035
H5    H     H_    0.381432 0.362909 0.970615 0.178383
H6    H     H_    0.283506 0.403373 0.963570 0.167212
H7    H     H_    0.366751 0.465807 0.962569 0.142786
H8    H     H_    0.905754 0.620509 0.219253 0.155321
H9    H     H_    0.838657 0.661249 0.147666 0.154890
H10   H     H_    0.836556 0.560019 0.170667 0.147832
H11   H     H_    0.357195 0.850418 0.851137 0.192800
H12   H     H_    0.836908 0.586212 0.899834 0.176180
H13   H     H_    0.361630 0.924100 0.774578 0.149177
H14   H     H_    0.447469 0.874608 0.805324 0.156721
H15   H     H_    0.590225 0.252811 0.039610 0.168518
H16   H     H_    0.610069 0.355603 0.020633 0.136201
H17   H     H_    0.512586 0.322271 0.035511 0.147836
H18   H     H_    0.913493 0.365286 0.219718 0.180031
H19   H     H_    0.866797 0.376750 0.315728 0.135086
H20   H     H_    0.903861 0.459147 0.263928 0.113522
H21   H     H_    0.224051 0.614751 0.852837 0.170761
H22   H     H_    0.300270 0.612325 0.778471 0.061524
H23   H     H_    0.797225 0.490301 0.907970 0.160567
H24   H     H_    0.234473 0.532544 0.790256 0.168524
H25   H     H_    0.639183 0.878205 0.176551 0.187960
H26   H     H_    0.651627 0.943607 0.259493 0.133605
H27   H     H_    0.557842 0.907561 0.235115 0.096443
H28   H     H_    0.325581 0.076095 0.774059 0.213535
H29   H     H_    0.403998 0.109163 0.837723 0.198807
H30   H     H_    0.425049 0.064406 0.746226 0.114651
H31   H     H_    0.258592 0.573212 0.038222 0.172605
H32   H     H_    0.168540 0.582810 0.094026 0.194732
H33   H     H_    0.214150 0.489763 0.082021 0.152525
H34   H     H_    0.300191 0.362527 0.138824 0.165146
H35   H     H_    0.967152 0.212424 0.616530 0.120497
H36   H     H_    0.969244 0.311989 0.653778 0.192825
H37   H     H_    0.987840 0.292594 0.553180 0.149530
H38   H     H_    0.367426 0.098736 0.198213 0.204488
H39   H     H_    0.331099 0.038722 0.278736 0.156628
H40   H     H_    0.432301 0.059588 0.269297 0.090882
H41   H     H_    0.460441 0.719116 0.856773 0.161014
H42   H     H_    0.541472 0.685435 0.912573 0.162403
H43   H     H_    0.523896 0.647970 0.814779 0.089650
H44   H     H_    0.211237 0.095793 0.477198 0.180837
H45   H     H_    0.354457 0.339636 0.226731 0.090298
H46   H     H_    0.302594 0.076389 0.426374 0.184972
H47   H     H_    0.236112 0.999157 0.447835 0.144921
H48   H     H_    0.585890 0.873548 0.726076 0.161462
H49   H     H_    0.655771 0.847607 0.650024 0.155222
H50   H     H_    0.647637 0.945817 0.683783 0.148078
H51   H     H_    0.139936 0.623315 0.328095 0.183217
H52   H     H_    0.146442 0.555913 0.245842 0.184884
H53   H     H_    0.055146 0.596826 0.274382 0.129671
H54   H     H_    0.850932 0.145835 0.521321 0.131860
H55   H     H_    0.785413 0.066522 0.548163 0.178512
H56   H     H_    0.324424 0.436855 0.208266 0.185195
H57   H     H_    0.886482 0.048301 0.531411 0.147011
H58   H     H_    0.765364 0.929101 0.461949 0.186277
H59   H     H_    0.674023 0.919965 0.408652 0.190659
H60   H     H_    0.721116 0.012535 0.417653 0.162518
H61   H     H_    0.272055 0.156383 0.636449 0.141000
H62   H     H_    0.173011 0.193592 0.626869 0.198740
H63   H     H_    0.190671 0.091382 0.634613 0.153805
H64   H     H_    0.812486 0.118486 0.258280 0.147737
H65   H     H_    0.828363 0.161346 0.353942 0.190023
H66   H     H_    0.908839 0.132002 0.294277 0.120312
H67   H     H_    0.769162 0.353215 0.860735 0.185254
H68   H     H_    0.077010 0.639537 0.637314 0.174840
H69   H     H_    0.084751 0.713646 0.561437 0.161238
H70   H     H_    0.992944 0.691739 0.604661 0.134067
H71   H     H_    0.284327 0.921761 0.557822 0.182615
H72   H     H_    0.361246 0.917955 0.630424 0.196057
H73   H     H_    0.316189 0.008545 0.605741 0.123666
H74   H     H_    0.574116 0.133351 0.260404 0.186255
H75   H     H_    0.664964 0.081014 0.239776 0.138005
H76   H     H_    0.576187 0.055403 0.191353 0.087667
H77   H     H_    0.078524 0.349102 0.794990 0.188942
H78   H     H_    0.681242 0.295864 0.875458 0.117438
H79   H     H_    0.133000 0.436859 0.768567 0.151546
H80   H     H_    0.068678 0.436855 0.850644 0.149810
H81   H     H_    0.966761 0.799107 0.409406 0.155536
H82   H     H_    0.979137 0.843617 0.313643 0.081827
H83   H     H_    0.042560 0.767244 0.345279 0.160112
H84   H     H_    0.585325 0.128483 0.741953 0.187789
H85   H     H_    0.586136 0.231796 0.767336 0.141715
H86   H     H_    0.562962 0.159539 0.838792 0.134166
H87   H     H_    0.242086 0.881035 0.355364 0.192382
H88   H     H_    0.174450 0.860991 0.276354 0.061932
H89   H     H_    0.676088 0.399464 0.867476 0.151125
H90   H     H_    0.219336 0.953377 0.283467 0.198450
H91   H     H_    0.857423 0.630852 0.666057 0.171868
H92   H     H_    0.856264 0.563008 0.748189 0.172758
H93   H     H_    0.944970 0.606428 0.716878 0.117268
H94   H     H_    0.041778 0.285917 0.406683 0.161198
H95   H     H_    0.024299 0.199851 0.346033 0.087196
H96   H     H_    0.969177 0.287621 0.333933 0.148862
N1    N     N_R   0.424590 0.632770 0.578330 -0.208139
N2    N     N_R   0.575410 0.632770 0.578330 -0.160595
N3    N     N_R   0.632770 0.424590 0.421670 -0.185376
N4    N     N_R   0.367230 0.575410 0.578330 -0.200951
N5    N     N_R   0.575410 0.632770 0.421670 -0.213638
N6    N     N_R   0.424590 0.367230 0.578330 -0.178758
N7    N     N_R   0.367230 0.575410 0.421670 -0.153217
N8    N     N_R   0.632770 0.424590 0.578330 -0.202827
N9    N     N_R   0.924590 0.132770 0.078330 -0.205044
N10   N     N_R   0.075410 0.867230 0.921670 -0.165890
N11   N     N_R   0.132770 0.075410 0.078330 -0.162268
N12   N     N_R   0.575410 0.367230 0.421670 -0.175700
N13   N     N_R   0.867230 0.924590 0.921670 -0.207895
N14   N     N_R   0.075410 0.867230 0.078330 -0.213125
N15   N     N_R   0.924590 0.132770 0.921670 -0.181016
N16   N     N_R   0.867230 0.924590 0.078330 -0.156933
N17   N     N_R   0.132770 0.075410 0.921670 -0.190020
N18   N     N_R   0.924590 0.867230 0.921670 -0.210827
N19   N     N_R   0.075410 0.132770 0.078330 -0.171492
N20   N     N_R   0.132770 0.924590 0.921670 -0.159832
N21   N     N_R   0.867230 0.075410 0.078330 -0.203253
N22   N     N_R   0.075410 0.132770 0.921670 -0.189881
N23   N     N_R   0.632770 0.575410 0.578330 -0.167600
N24   N     N_R   0.924590 0.867230 0.078330 -0.159295
N25   N     N_R   0.867230 0.075410 0.921670 -0.188663
N26   N     N_R   0.132770 0.924590 0.078330 -0.205185
N27   N     N_R   0.367230 0.424590 0.421670 -0.208522
N28   N     N_R   0.575410 0.367230 0.578330 -0.191752
N29   N     N_R   0.424590 0.632770 0.421670 -0.166666
N30   N     N_R   0.367230 0.424590 0.578330 -0.177058
N31   N     N_R   0.632770 0.575410 0.421670 -0.208860
N32   N     N_R   0.424590 0.367230 0.421670 -0.211759
Ni1   Ni    Ni4+2 0.500000 0.631570 0.500000 0.295594
Ni2   Ni    Ni4+2 0.500000 0.368430 0.500000 0.295718
Ni3   Ni    Ni4+2 0.631570 0.500000 0.500000 0.290838
Ni4   Ni    Ni4+2 0.368430 0.500000 0.500000 0.299314
Ni5   Ni    Ni4+2 1.000000 0.131570 0.000000 0.295876
Ni6   Ni    Ni4+2 0.000000 0.868430 0.000000 0.294951
Ni7   Ni    Ni4+2 0.131570 0.000000 0.000000 0.300359
Ni8   Ni    Ni4+2 0.868430 0.000000 0.000000 0.292201
O1    O     O_3   0.735537 0.562743 0.835694 -0.575080
O2    O     O_3   0.185248 0.629164 0.739408 -0.564127
O3    O     O_3   0.629517 0.827458 0.286500 -0.531059
O4    O     O_3   0.384649 0.176479 0.738531 -0.550755
O5    O     O_3   0.270462 0.562207 0.158189 -0.600589
O6    O     O_3   0.873211 0.284080 0.585465 -0.565433
O7    O     O_3   0.366256 0.151319 0.307439 -0.548697
O8    O     O_3   0.566170 0.762263 0.821672 -0.567506
O9    O     O_3   0.200950 0.070576 0.359077 -0.617075
O10   O     O_3   0.702025 0.872082 0.760174 -0.556411
O11   O     O_3   0.127605 0.672645 0.217572 -0.567197
O12   O     O_3   0.233936 0.365065 0.239605 -0.531292
O13   O     O_3   0.861640 0.102269 0.635025 -0.577047
O14   O     O_3   0.774828 0.937750 0.341614 -0.594236
O15   O     O_3   0.201811 0.151888 0.736796 -0.608066
O16   O     O_3   0.855491 0.233996 0.261453 -0.626679
O17   O     O_3   0.065943 0.754741 0.674697 -0.547572
O18   O     O_3   0.248433 0.936546 0.672953 -0.572529
O19   O     O_3   0.625932 0.156882 0.153564 -0.548424
O20   O     O_3   0.171442 0.378505 0.867536 -0.597446
O21   O     O_3   0.933131 0.730429 0.315398 -0.558031
O22   O     O_3   0.678758 0.164133 0.809937 -0.572690
O23   O     O_3   0.695545 0.342908 0.764154 -0.604360
O24   O     O_3   0.294639 0.868404 0.247580 -0.577370
O25   O     O_3   0.872358 0.680256 0.776146 -0.548037
O26   O     O_3   0.080626 0.294409 0.292497 -0.518806
O27   O     O_3   0.433222 0.760655 0.184213 -0.540609
O28   O     O_3   0.350641 0.404828 0.861259 -0.599849
O29   O     O_3   0.790844 0.629875 0.256141 -0.558271
O30   O     O_3   0.374385 0.808734 0.738086 -0.564564
O31   O     O_3   0.578617 0.329329 0.134531 -0.574925
O32   O     O_3   0.802701 0.414031 0.220272 -0.554230

loop_
_geom_bond_atom_site_label_1
_geom_bond_atom_site_label_2
_ccdc_geom_bond_type
C55   F10   S    
C81   C126  S    
C5    C136  S    
C78   C115  S    
C83   C128  S    
C57   N12   A    
C9    C108  S    
C72   C142  S    
C41   H64   S    
C44   O19   S    
N8    N28   A    
C36   H49   S    
C7    C133  S    
C101  F45   S    
C42   H69   S    
C19   H67   S    
C43   H72   S    
N26   Ni7   S    
C38   H57   S    
N17   N22   A    
C49   H90   S    
C119  C130  S    
C37   H53   S    
C107  C140  S    
C117  C132  S    
N6    Ni2   S    
C53   F8    S    
C61   C105  A    
C128  O13   S    
C18   H45   S    
C59   N14   A    
C40   H62   S    
N28   Ni2   S    
N2    N23   A    
C37   H52   S    
C13   C91   A    
C82   C141  S    
C19   H89   S    
C127  O11   S    
C66   N21   A    
C29   H30   S    
N31   Ni3   S    
C123  N31   A    
C8    C81   S    
C51   H96   S    
C65   C99   A    
C121  C128  S    
C21   H5    S    
C69   C105  A    
C49   H88   S    
C76   C118  S    
C82   C125  S    
C136  O20   S    
C8    F36   S    
C55   N10   A    
C71   F26   S    
C1    N1    A    
C3    C138  S    
C7    C132  S    
C22   O29   S    
C5    C130  S    
C35   N5    A    
N24   Ni6   S    
C6    F33   S    
C27   H24   S    
C10   F38   S    
C5    F32   S    
C113  C137  S    
C69   N24   A    
C5    C77   S    
C16   C115  S    
C22   H8    S    
N16   N24   A    
C80   C117  S    
C22   H9    S    
C30   O5    S    
C88   C135  S    
C36   O10   S    
C74   C110  S    
N23   Ni3   S    
C62   C106  A    
C11   C84   S    
C27   O2    S    
C74   C120  S    
C69   F24   S    
C130  O15   S    
N20   Ni7   S    
N11   N19   A    
C52   F7    S    
C31   H37   S    
C68   C92   A    
C34   H46   S    
C58   N13   A    
C46   C96   A    
C118  C129  S    
C25   O31   S    
C26   H20   S    
C70   N25   A    
C131  O16   S    
N21   Ni8   S    
C122  O7    S    
C83   C138  S    
C81   C140  S    
C32   H40   S    
C113  O29   S    
C126  C143  S    
C51   H94   S    
C115  O31   S    
C140  C143  S    
C120  C127  S    
N1    Ni1   S    
N27   N32   A    
C70   F25   S    
C143  F28   S    
C59   F14   S    
C111  C136  S    
C6    C78   S    
C62   F17   S    
C120  O5    S    
C112  N30   A    
C31   O6    S    
C41   O16   S    
C50   O25   S    
C42   H68   S    
C4    C137  S    
C39   H60   S    
C72   C108  S    
C4    F31   S    
C139  O24   S    
C27   H22   S    
C68   N23   A    
C25   H16   S    
C3    C75   S    
C118  O3    S    
C42   O17   S    
C62   N17   A    
C31   H36   S    
C23   H13   S    
C11   C110  S    
C63   N18   A    
C21   H7    S    
C63   C102  A    
C11   C120  S    
N2    Ni1   S    
N5    N31   A    
C44   H75   S    
C110  O27   S    
N7    N29   A    
C57   F12   S    
C79   F34   S    
C14   C86   S    
C61   F16   S    
C14   F41   S    
C3    C128  S    
C39   O14   S    
C119  O4    S    
C50   H92   S    
C109  C138  S    
N32   Ni2   S    
C25   H17   S    
C6    C135  S    
C18   H56   S    
N27   Ni4   S    
C12   C119  S    
C3    F30   S    
C76   C113  S    
C26   H18   S    
C41   H65   S    
N3    N12   A    
C90   N28   A    
C48   H84   S    
C40   O15   S    
C50   H93   S    
C27   H21   S    
C23   O30   S    
C13   F3    S    
C85   C106  S    
C8    C107  S    
C33   H41   S    
C124  C126  S    
C126  O10   S    
C71   C103  A    
C53   N8    A    
C66   F21   S    
C26   O32   S    
C53   C94   A    
C78   C116  S    
C73   C92   S    
C58   F13   S    
C18   O12   S    
C30   H31   S    
C34   O9    S    
C35   F5    S    
C77   C96   S    
N30   Ni4   S    
C59   C103  A    
C66   C98   A    
C122  C125  S    
C97   C123  A    
C43   H71   S    
C39   H58   S    
C115  C135  S    
N14   Ni6   S    
C9    F37   S    
C38   O13   S    
C112  F46   S    
N17   Ni7   S    
C55   C99   A    
C129  O14   S    
C21   O28   S    
C56   C100  A    
C46   N6    A    
C88   C131  S    
C60   C104  A    
C88   C98   S    
C95   C101  A    
C142  F27   S    
N6    N30   A    
C45   H80   S    
C36   H48   S    
C28   H25   S    
C37   H51   S    
C60   F15   S    
C47   H82   S    
C48   H85   S    
C124  O8    S    
C29   H29   S    
C51   H95   S    
C110  C139  S    
C43   H73   S    
C70   C104  A    
C73   C107  S    
C49   H87   S    
C38   H54   S    
C10   C83   S    
N1    N4    A    
C52   C95   A    
C80   C89   S    
C77   C111  S    
N15   Ni5   S    
C86   C137  S    
N12   Ni2   S    
C29   H28   S    
C84   C139  S    
N8    Ni3   S    
N5    Ni1   S    
C1    C89   A    
C33   O8    S    
C58   C102  A    
C20   H3    S    
C33   H43   S    
C9    C82   S    
C49   O24   S    
N14   N26   A    
C79   N27   A    
N16   Ni8   S    
C64   F19   S    
C16   C116  S    
C108  C141  S    
C90   C94   A    
C101  N29   A    
C56   N11   A    
C15   F42   S    
C22   H10   S    
C134  N32   A    
C141  O26   S    
C8    C124  S    
C44   H74   S    
C76   C97   S    
C28   O3    S    
C15   C117  S    
C65   N20   A    
C85   C130  S    
N15   N25   A    
C133  O18   S    
C9    C122  S    
C34   H47   S    
N9    N21   A    
C24   N4    A    
C48   O22   S    
C72   C93   S    
C28   H27   S    
C1    F1    S    
C123  F47   S    
C73   C143  S    
C45   O20   S    
C74   C144  S    
N11   Ni7   S    
C57   C91   A    
C6    C131  S    
C16   F43   S    
N4    Ni4   S    
C67   C106  A    
N13   Ni8   S    
C4    C129  S    
C67   N22   A    
C14   C113  S    
C135  O19   S    
N18   Ni6   S    
C36   H50   S    
C17   O1    S    
C2    N2    A    
C12   F40   S    
N13   N18   A    
C111  O28   S    
C127  C144  S    
C52   N7    A    
C32   H38   S    
C71   N26   A    
N29   Ni1   S    
C64   C100  A    
C39   H59   S    
C16   C88   S    
N19   Ni5   S    
C25   H15   S    
C75   C94   S    
N10   N20   A    
C7    C80   S    
C114  O30   S    
C63   F18   S    
C31   H35   S    
N7    Ni4   S    
C87   C133  S    
C17   H1    S    
C21   H6    S    
C42   H70   S    
C10   C121  S    
C34   H44   S    
C24   C89   A    
C54   F9    S    
C47   O21   S    
C44   H76   S    
C116  O32   S    
C45   H77   S    
C96   C112  A    
C61   N16   A    
C12   C85   S    
C10   C109  S    
C108  O12   S    
C79   C93   A    
C47   H83   S    
N10   Ni6   S    
C19   O23   S    
N22   Ni5   S    
C134  F48   S    
C64   N19   A    
C18   H34   S    
C40   H63   S    
C14   C118  S    
C144  F29   S    
C26   H19   S    
C84   C127  S    
C32   H39   S    
C30   H33   S    
C20   O27   S    
C56   F11   S    
C20   H2    S    
C19   H78   S    
C87   C99   S    
C81   C102  S    
C75   C109  S    
C83   C104  S    
C138  O22   S    
C11   F39   S    
C93   C134  A    
C24   F4    S    
C29   O4    S    
C37   O11   S    
C30   H32   S    
C85   C136  S    
C23   H11   S    
C87   C132  S    
C17   H12   S    
C139  C144  S    
C109  O23   S    
N3    Ni3   S    
C125  C142  S    
C73   C124  S    
C15   C114  S    
C7    F35   S    
C2    C92   A    
C54   N9    A    
C121  O6    S    
C67   F22   S    
C46   F6    S    
C80   C114  S    
C13   N3    A    
C23   H14   S    
C86   C105  S    
C40   H61   S    
C15   C87   S    
C45   H79   S    
C60   N15   A    
C125  O9    S    
C28   H26   S    
C72   C122  S    
C75   C121  S    
C82   C100  S    
C74   C95   S    
C77   C119  S    
C47   H81   S    
C86   C129  S    
C48   H86   S    
C78   C91   S    
C2    F2    S    
C50   H91   S    
C51   O26   S    
C17   H23   S    
C141  C142  S    
C140  O25   S    
C116  C131  S    
C90   F44   S    
C38   H55   S    
C65   F20   S    
C114  C133  S    
C107  O1    S    
N9    Ni5   S    
N25   Ni8   S    
C41   H66   S    
C4    C76   S    
C43   O18   S    
C117  O2    S    
C68   F23   S    
C137  O21   S    
C132  O17   S    
C84   C103  S    
C54   C98   A    
C35   C97   A    
C20   H4    S    
C12   C111  S    
C33   H42   S    
C32   O7    S    
