data_mof_unit_59911.cif
_audit_creation_date              2013-03-05T15:55:22-0500
_audit_creation_method            fapswitch 2.2
_symmetry_space_group_name_H-M    P1
_symmetry_Int_Tables_number       1
_space_group_crystal_system       triclinic
_cell_length_a                    27.670343
_cell_length_b                    10.703028
_cell_length_c                    9.893982
_cell_angle_alpha                 90.539361
_cell_angle_beta                  90.036611
_cell_angle_gamma                 93.606351
_cell_volume                      2924.2324199

loop_
_atom_site_label
_atom_site_type_symbol
_atom_site_description
_atom_site_fract_x
_atom_site_fract_y
_atom_site_fract_z
_atom_type_partial_charge
O1    O     O_R   0.500000 0.316780 0.614690 -0.634628
O2    O     O_R   0.500000 0.316750 0.385360 -0.648136
C1    C     C_R   0.498491 0.260405 0.499092 0.923361
O3    O     O_R   0.428760 0.500030 0.614650 -0.643455
O4    O     O_R   0.428750 0.500010 0.385320 -0.644419
C2    C     C_R   0.406012 0.499183 0.499781 0.916218
Zn1   Zn    Zn3+2 0.500000 0.500020 0.653130 0.986495
Zn2   Zn    Zn3+2 0.500000 0.499980 0.346870 0.977707
O5    O     O_R   0.500000 0.683250 0.614640 -0.599755
O6    O     O_R   0.500000 0.683220 0.385310 -0.610279
O7    O     O_R   0.571250 0.499990 0.614680 -0.610346
O8    O     O_R   0.571240 0.499970 0.385350 -0.604831
C3    C     C_R   0.505694 0.739799 0.500583 0.959025
C4    C     C_R   0.593554 0.491546 0.500092 0.997960
C5    C     C_R   0.175156 0.375129 0.457094 0.554158
O9    O     O_2   0.198348 0.268752 0.440461 -0.493690
N1    N     N_R   0.200913 0.484717 0.486325 -0.366748
C6    C     C_R   0.179239 0.594872 0.503034 0.547983
C7    C     C_R   0.278349 0.482261 0.370667 -0.085161
C8    C     C_R   0.328513 0.486755 0.373703 -0.182118
C9    C     C_R   0.326827 0.497226 0.619218 -0.179765
C10   C     C_R   0.276470 0.492976 0.615739 -0.068440
C11   C     C_R   0.252365 0.485735 0.491376 0.292795
C12   C     C_R   0.101260 0.484866 0.461264 -0.080236
C13   C     C_R   0.124845 0.372780 0.445037 -0.077920
C14   C     C_R   0.098221 0.261732 0.411042 -0.136748
C15   C     C_R   0.128794 0.598934 0.485877 -0.140629
C16   C     C_R   0.353148 0.494798 0.497974 -0.017333
H1    H     H_    0.345049 0.502802 0.716208 0.164786
C17   C     C_R   0.645836 0.478083 0.499704 -0.104080
C18   C     C_R   0.972373 0.361934 0.458323 0.063525
C19   C     C_R   0.975304 0.592287 0.456805 0.070444
C20   C     C_R   0.948532 0.475158 0.461435 0.091995
C21   C     C_R   0.945136 0.249099 0.486083 -0.114072
C22   C     C_R   0.895081 0.245736 0.497916 -0.088841
C23   C     C_R   0.870795 0.355780 0.487522 -0.033400
C24   C     C_R   0.897501 0.471195 0.471609 -0.048272
C25   C     C_R   0.873196 0.582735 0.467105 -0.036529
C26   C     C_R   0.822747 0.576711 0.476702 0.637727
N2    N     N_R   0.797599 0.463506 0.489944 -0.332058
C27   C     C_R   0.820293 0.353989 0.495783 0.648738
C28   C     C_R   0.718888 0.437229 0.375370 0.319491
C29   C     C_R   0.668874 0.446111 0.379660 -0.258011
C30   C     C_R   0.672719 0.497247 0.618583 -0.178796
C31   C     C_R   0.722848 0.488748 0.618203 0.313434
C32   C     C_R   0.746051 0.460371 0.495214 0.068345
O10   O     O_2   0.793977 0.244354 0.509687 -0.494694
C33   C     C_R   0.023030 0.365873 0.436318 -0.059563
C34   C     C_R   0.050149 0.482175 0.453948 0.053594
C35   C     C_R   0.026449 0.595410 0.465463 0.010447
C36   C     C_R   0.047958 0.258132 0.399805 0.267617
H2    H     H_    0.647903 0.430121 0.287942 0.207404
H3    H     H_    0.962145 0.162598 0.503363 0.178923
O11   O     O_2   0.206687 0.698911 0.537415 -0.468676
C37   C     C_R   0.104882 0.711612 0.495175 0.345098
H4    H     H_    0.259537 0.476956 0.274559 0.147710
C38   C     C_R   0.949782 0.702260 0.446983 -0.177278
C39   C     C_R   0.899594 0.697269 0.451987 -0.085665
O12   O     O_2   0.798800 0.682670 0.471818 -0.466377
C40   C     C_R   0.054593 0.708165 0.487403 -0.231868
H5    H     H_    0.967521 0.793698 0.432489 0.180633
H6    H     H_    0.654676 0.520199 0.711859 0.212432
H7    H     H_    0.881588 0.784001 0.444987 0.206978
H8    H     H_    0.038445 0.796404 0.500937 0.198129
C41   C     C_R   0.583644 0.157883 0.400531 -0.227338
C42   C     C_R   0.627107 0.111163 0.363398 -0.236053
C43   C     C_R   0.634545 0.985557 0.380718 0.299374
C44   C     C_R   0.596138 0.903949 0.428307 0.216872
C45   C     C_R   0.549942 0.949663 0.459993 -0.064253
C46   C     C_R   0.544868 0.079275 0.451090 0.046572
C47   C     C_R   0.501353 0.128597 0.495240 -0.171723
C48   C     C_R   0.461609 0.052556 0.540454 0.286508
C49   C     C_R   0.465995 0.925294 0.544106 -0.239276
C50   C     C_R   0.508607 0.873760 0.503041 -0.133051
C51   C     C_R   0.435098 0.334994 0.139191 -0.148835
C52   C     C_R   0.402389 0.255109 0.068231 -0.186796
H9    H     H_    0.377247 0.192175 0.122323 0.191192
C53   C     C_R   0.402023 0.255735 0.928241 -0.146180
H10   H     H_    0.376417 0.193648 0.873534 0.219488
C54   C     C_R   0.434578 0.335647 0.858276 -0.140995
H11   H     H_    0.432729 0.329655 0.750877 0.229587
C55   C     C_R   0.467814 0.418851 0.926928 0.149905
C56   C     C_R   0.467933 0.418717 0.071667 0.158008
N3    N     N_R   0.499540 0.498800 0.142780 -0.132674
C57   C     C_R   0.530828 0.577693 0.072419 -0.078630
H12   H     H_    0.556009 0.640911 0.875825 0.179887
C58   C     C_R   0.530844 0.577581 0.929145 -0.081108
N4    N     N_R   0.499520 0.498720 0.857170 -0.131217
N5    N     N_R   0.130701 0.831773 0.506663 0.259260
O13   O     O_R   0.118433 0.910772 0.599356 -0.332753
O14   O     O_R   0.158195 0.872075 0.407581 -0.286008
N6    N     N_R   0.749636 0.511591 0.742093 0.241498
O15   O     O_R   0.731425 0.575931 0.839802 -0.288378
O16   O     O_R   0.790395 0.460555 0.762949 -0.334166
N7    N     N_R   0.416069 0.102078 0.577161 0.192571
O17   O     O_R   0.387152 0.041423 0.660910 -0.384345
O18   O     O_R   0.400064 0.196606 0.512811 -0.441241
H13   H     H_    0.581453 0.257116 0.389725 0.165838
H14   H     H_    0.656105 0.174812 0.327256 0.215481
H15   H     H_    0.256166 0.495703 0.709131 0.150118
N8    N     N_R   0.682100 0.943137 0.355899 0.252213
O19   O     O_R   0.708413 0.991634 0.258328 -0.292704
O20   O     O_R   0.702184 0.871957 0.442881 -0.235476
N9    N     N_R   0.606143 0.777962 0.452782 0.180509
O21   O     O_R   0.613233 0.745858 0.577360 -0.391775
O22   O     O_R   0.624534 0.714298 0.354891 -0.374113
H16   H     H_    0.435094 0.864673 0.574860 0.188392
H17   H     H_    0.555966 0.641154 0.127029 0.185826
H18   H     H_    0.433667 0.328602 0.246529 0.223871
H19   H     H_    0.116682 0.178020 0.386930 0.248202
N10   N     N_R   0.741346 0.406477 0.248756 0.247573
O23   O     O_R   0.716366 0.344349 0.155873 -0.321255
O24   O     O_R   0.785253 0.448539 0.220280 -0.321114
H20   H     H_    0.875563 0.156604 0.516397 0.205742
N11   N     N_R   0.023965 0.150523 0.334886 0.195442
O25   O     O_R   0.992046 0.165382 0.240635 -0.339021
O26   O     O_R   0.038887 0.039274 0.355061 -0.375898
H21   H     H_    0.347889 0.484017 0.278741 0.166110

loop_
_geom_bond_atom_site_label_1
_geom_bond_atom_site_label_2
_geom_bond_distance
_ccdc_geom_bond_type
C7    H4    1.083063 S    
C58   N4    1.366259 A    
N8    O19   1.301640 A    
C49   C50   1.392054 A    
C1    C47   1.418085 S    
N7    O17   1.301491 A    
C12   C15   1.416838 A    
C28   N10   1.443178 S    
N9    O22   1.301208 A    
C31   C32   1.415538 A    
Zn1   O7    2.008138 S    
N1    C11   1.423915 S    
C23   C24   1.409167 A    
C52   C53   1.385169 A    
C41   H13   1.073963 S    
O4    C2    1.295699 A    
O7    C4    1.296288 A    
C53   C54   1.391828 A    
C29   H2    1.083235 S    
C49   H16   1.085773 S    
C5    O9    1.350446 S    
C12   C34   1.414521 A    
C22   H20   1.083416 S    
C5    N1    1.362171 A    
C21   C22   1.388299 A    
C28   C32   1.414968 A    
C31   N6    1.442950 S    
O5    C3    1.290625 A    
C25   C39   1.396282 A    
C48   N7    1.442799 S    
N3    C57   1.366384 A    
C33   C36   1.424298 A    
C2    C16   1.460643 S    
Zn1   N4    2.018992 S    
C44   C45   1.431064 A    
N11   O26   1.301659 A    
C18   C20   1.415830 A    
C46   C47   1.412655 A    
N5    O14   1.301340 A    
C57   H17   1.081798 S    
C14   H19   1.083673 S    
C42   C43   1.384962 A    
N8    O20   1.301868 A    
Zn2   N3    2.019210 S    
C37   C40   1.391738 A    
C17   C30   1.397843 A    
C23   C27   1.398777 A    
C19   C38   1.414298 A    
C4    C17   1.462815 S    
O3    Zn1   2.007435 S    
C8    H21   1.083132 S    
N9    O21   1.300751 A    
C57   C58   1.417536 A    
C51   H18   1.065443 S    
C10   H15   1.082825 S    
C43   C44   1.416194 A    
C52   H9    1.082777 S    
C54   C55   1.408901 A    
C26   N2    1.366191 A    
H12   C58   1.081875 S    
C48   C49   1.375873 A    
C8    C16   1.404767 A    
C30   H6    1.083077 S    
C13   C14   1.396602 A    
C9    H1    1.083124 S    
C36   N11   1.438453 S    
O1    C1    1.287511 A    
C22   C23   1.396830 A    
C42   H14   1.082569 S    
C41   C46   1.415758 A    
C7    C11   1.395808 A    
C51   C52   1.390558 A    
C24   C25   1.407629 A    
C56   N3    1.374097 A    
Zn2   O8    2.007432 S    
C26   O12   1.350216 S    
N6    O16   1.300868 A    
N1    C6    1.364720 A    
C27   O10   1.349740 S    
C18   C21   1.412059 A    
C45   C50   1.428209 A    
N10   O24   1.300787 A    
C12   C13   1.409206 A    
C19   C35   1.416005 A    
O3    C2    1.298511 A    
N2    C27   1.365823 A    
C9    C16   1.404650 A    
O8    C4    1.298538 A    
C55   C56   1.432058 A    
C18   C33   1.416709 A    
C17   C29   1.398176 A    
C28   C29   1.393772 A    
N2    C32   1.425627 S    
C30   C31   1.395772 A    
C43   N8    1.439244 S    
C39   H7    1.083572 S    
Zn1   O5    2.001265 S    
C33   C34   1.421709 A    
N10   O23   1.301673 A    
O1    Zn1   1.994242 S    
O2    Zn2   2.001263 S    
C6    C15   1.409434 A    
C44   N9    1.416547 S    
C54   H11   1.064940 S    
O6    C3    1.291147 A    
O4    Zn2   2.008140 S    
N7    O18   1.301238 A    
C38   H5    1.077769 S    
C40   H8    1.077177 S    
C35   C40   1.409471 A    
C19   C20   1.416615 A    
C7    C8    1.386147 A    
O2    C1    1.281140 A    
C47   C48   1.402430 A    
C37   N5    1.434883 S    
C14   C36   1.393229 A    
C53   H10   1.081696 S    
C51   C56   1.408696 A    
C38   C39   1.387304 A    
C25   C26   1.396714 A    
C55   N4    1.376337 A    
N6    O15   1.301702 A    
C15   C37   1.413874 A    
C41   C42   1.379893 A    
C45   C46   1.406659 A    
C20   C24   1.413691 A    
C5    C13   1.395781 A    
C6    O11   1.348571 S    
C3    C50   1.430951 S    
C21   H3    1.079623 S    
Zn2   O6    1.994241 S    
C34   C35   1.417516 A    
C10   C11   1.398398 A    
N5    O13   1.301192 A    
C9    C10   1.391668 A    
N11   O25   1.301659 A    
