data_mof_unit_46330.cif
_audit_creation_date              2012-12-11T14:43:57-0500
_audit_creation_method            fapswitch 2.2
_symmetry_space_group_name_H-M    P1
_symmetry_Int_Tables_number       1
_space_group_crystal_system       triclinic
_cell_length_a                    18.797502
_cell_length_b                    10.945127
_cell_length_c                    18.800079
_cell_angle_alpha                 89.743489
_cell_angle_beta                  89.829201
_cell_angle_gamma                 90.163686
_cell_volume                      3867.87604975

loop_
_atom_site_label
_atom_site_type_symbol
_atom_type_description
_atom_site_fract_x
_atom_site_fract_y
_atom_site_fract_z
_atom_type_partial_charge
C1    C     C_R   0.731284 0.380183 0.146595 0.544202
C2    C     C_R   0.268789 0.379921 0.853451 0.538806
C3    C     C_R   0.231284 0.880183 0.146595 0.544202
C4    C     C_R   0.768789 0.879921 0.853451 0.538806
C5    C     C_R   0.512268 0.389460 0.925686 -0.076405
C6    C     C_R   0.490616 0.390508 0.072345 -0.075576
C7    C     C_R   0.012268 0.889459 0.925686 -0.076405
C8    C     C_R   0.990616 0.890508 0.072345 -0.075576
C9    C     C_R   0.008352 0.999703 0.962117 -0.136100
C10   C     C_R   0.995820 0.000275 0.034937 -0.136090
C11   C     C_R   0.508352 0.499703 0.962117 -0.136100
C12   C     C_R   0.495820 0.500275 0.034937 -0.136090
C13   C     C_R   0.676075 0.931141 0.029247 -0.136655
C14   C     C_R   0.323718 0.930135 0.970503 -0.137087
C15   C     C_R   0.176075 0.431142 0.029247 -0.136655
C16   C     C_R   0.823718 0.430135 0.970503 -0.137087
C17   C     C_R   0.683434 0.901078 0.957350 -0.028479
C18   C     C_R   0.316477 0.900210 0.042522 -0.028695
C19   C     C_R   0.183434 0.401078 0.957350 -0.028479
C20   C     C_R   0.816477 0.400210 0.042522 -0.028695
C21   C     C_R   0.745945 0.935859 0.920715 0.016374
C22   C     C_R   0.254669 0.936835 0.079421 0.016180
C23   C     C_R   0.245945 0.435859 0.920715 0.016374
C24   C     C_R   0.754669 0.436835 0.079421 0.016180
C25   C     C_R   0.794561 0.014986 0.954004 -0.132803
C26   C     C_R   0.207128 0.018060 0.046309 -0.131963
C27   C     C_R   0.294561 0.514986 0.954004 -0.132803
C28   C     C_R   0.707128 0.518060 0.046309 -0.131963
C29   C     C_R   0.786773 0.044598 0.024671 -0.138090
C30   C     C_R   0.214926 0.047780 0.975453 -0.137278
C31   C     C_R   0.286773 0.544598 0.024671 -0.138090
C32   C     C_R   0.714926 0.547780 0.975453 -0.137278
C33   C     C_R   0.729802 0.997671 0.063897 0.008300
C34   C     C_R   0.270768 0.998556 0.936001 0.009896
C35   C     C_R   0.229802 0.497671 0.063897 0.008300
C36   C     C_R   0.770768 0.498556 0.936001 0.009896
C37   C     C_R   0.518557 0.057876 0.468621 -0.150459
C38   C     C_R   0.514908 0.062137 0.541070 -0.152962
C39   C     C_R   0.018557 0.557876 0.468621 -0.150459
C40   C     C_R   0.014908 0.562137 0.541070 -0.152962
C41   C     C_R   0.497417 0.170852 0.575118 0.002011
C42   C     C_R   0.509040 0.163749 0.427521 0.006504
C43   C     C_R   0.997417 0.670852 0.575118 0.002011
C44   C     C_R   0.009040 0.663749 0.427521 0.006504
C45   C     C_R   0.531003 0.155639 0.146860 0.535479
C46   C     C_R   0.469033 0.155475 0.853082 0.530233
C47   C     C_R   0.031003 0.655640 0.146860 0.535479
C48   C     C_R   0.969033 0.655475 0.853082 0.530233
C49   C     C_R   0.490416 0.280741 0.535142 -0.040413
C50   C     C_R   0.493409 0.275897 0.460649 -0.048153
C51   C     C_R   0.990416 0.780741 0.535142 -0.040413
C52   C     C_R   0.993409 0.775897 0.460649 -0.048153
C53   C     C_R   0.778694 0.060213 0.479671 -0.122078
C54   C     C_R   0.183520 0.932967 0.542931 -0.138571
C55   C     C_R   0.278694 0.560213 0.479671 -0.122078
C56   C     C_R   0.683520 0.432967 0.542931 -0.138571
C57   C     C_R   0.786238 0.030926 0.550988 -0.118224
C58   C     C_R   0.178184 0.923256 0.470373 -0.124884
C59   C     C_R   0.286238 0.530926 0.550988 -0.118224
C60   C     C_R   0.678184 0.423256 0.470373 -0.124884
C61   C     C_R   0.746270 0.934995 0.580939 0.022179
C62   C     C_R   0.238877 0.899781 0.428726 0.030735
C63   C     C_R   0.246271 0.434995 0.580939 0.022179
C64   C     C_R   0.738877 0.399781 0.428726 0.030735
C65   C     C_R   0.693359 0.877613 0.540599 -0.138974
C66   C     C_R   0.304867 0.882178 0.460910 -0.151985
C67   C     C_R   0.193359 0.377613 0.540599 -0.138974
C68   C     C_R   0.804867 0.382178 0.460909 -0.151986
C69   C     C_R   0.685164 0.908278 0.469259 -0.131726
C70   C     C_R   0.310444 0.893436 0.534166 -0.135839
C71   C     C_R   0.185164 0.408278 0.469259 -0.131726
C72   C     C_R   0.810444 0.393436 0.534166 -0.135839
C73   C     C_R   0.730083 0.996111 0.437736 0.025546
C74   C     C_R   0.249897 0.922656 0.574955 0.026448
C75   C     C_R   0.230083 0.496111 0.437736 0.025546
C76   C     C_R   0.749897 0.422656 0.574955 0.026448
C77   C     C_R   0.726884 0.021775 0.140241 0.567705
C78   C     C_R   0.273323 0.021930 0.859506 0.566059
C79   C     C_R   0.226884 0.521775 0.140241 0.567705
C80   C     C_R   0.773323 0.521930 0.859506 0.566059
C81   C     C_R   0.728200 0.375003 0.354099 0.541362
C82   C     C_R   0.269222 0.381364 0.648287 0.547968
C83   C     C_R   0.228200 0.875003 0.354099 0.541362
C84   C     C_R   0.769222 0.881364 0.648287 0.547968
C85   C     C_R   0.532354 0.156744 0.353888 0.542298
C86   C     C_R   0.468649 0.158379 0.646756 0.546154
C87   C     C_R   0.032354 0.656744 0.353888 0.542298
C88   C     C_R   0.968649 0.658379 0.646756 0.546154
C89   C     C_R   0.726958 0.022437 0.361614 0.559662
C90   C     C_R   0.258519 0.970253 0.645899 0.556250
C91   C     C_R   0.226959 0.522437 0.361614 0.559662
C92   C     C_R   0.758519 0.470253 0.645899 0.556250
C93   C     C_R   0.497318 0.163955 0.925431 0.002101
C94   C     C_R   0.502707 0.164528 0.074479 0.001544
C95   C     C_R   0.997318 0.663955 0.925431 0.002101
C96   C     C_R   0.002707 0.664528 0.074479 0.001544
C97   C     C_R   0.502910 0.276994 0.961847 0.029197
C98   C     C_R   0.498577 0.277415 0.037163 0.028372
C99   C     C_R   0.002910 0.776994 0.961847 0.029197
C100  C     C_R   0.998577 0.777415 0.037163 0.028372
C101  C     C_R   0.500158 0.054953 0.036716 -0.158739
C102  C     C_R   0.498315 0.054661 0.964043 -0.158055
C103  C     C_R   0.000158 0.554953 0.036716 -0.158739
C104  C     C_R   0.998315 0.554661 0.964043 -0.158055
Cr1   Cr    Cr6+3 0.772000 0.169640 0.250110 1.051367
Cr2   Cr    Cr6+3 0.228000 0.169640 0.749890 1.044474
Cr3   Cr    Cr6+3 0.272000 0.669640 0.250110 1.051367
Cr4   Cr    Cr6+3 0.728000 0.669640 0.749890 1.044474
Cr5   Cr    Cr6+3 0.614960 0.323350 0.249260 1.031187
Cr6   Cr    Cr6+3 0.385040 0.323350 0.750740 1.037811
Cr7   Cr    Cr6+3 0.114960 0.823350 0.249260 1.031187
Cr8   Cr    Cr6+3 0.885040 0.823350 0.750740 1.037811
Cr9   Cr    Cr6+3 0.616670 0.010620 0.250840 1.030131
Cr10  Cr    Cr6+3 0.383330 0.010620 0.749160 1.029041
Cr11  Cr    Cr6+3 0.116670 0.510620 0.250840 1.030131
Cr12  Cr    Cr6+3 0.883330 0.510620 0.749160 1.029041
H1    H     H_    0.502945 0.967131 0.063121 0.165798
H2    H     H_    0.494359 0.966736 0.938332 0.165672
H3    H     H_    0.002945 0.467131 0.063121 0.165798
H4    H     H_    0.994359 0.466736 0.938332 0.165673
H5    H     H_    0.812833 0.129636 0.456576 0.141362
H6    H     H_    0.136380 0.955090 0.573509 0.144852
H7    H     H_    0.312833 0.629636 0.456576 0.141362
H8    H     H_    0.636380 0.455090 0.573509 0.144852
H9    H     H_    0.826605 0.078166 0.581409 0.155304
H10   H     H_    0.125909 0.932973 0.447125 0.151759
H11   H     H_    0.326605 0.578166 0.581409 0.155304
H12   H     H_    0.625909 0.432973 0.447125 0.151759
H13   H     H_    0.661648 0.803768 0.562667 0.138195
H14   H     H_    0.351623 0.860639 0.429603 0.129507
H15   H     H_    0.161648 0.303769 0.562667 0.138195
H16   H     H_    0.851623 0.360639 0.429603 0.129508
H17   H     H_    0.524298 0.393601 0.869480 0.143367
H18   H     H_    0.478543 0.395608 0.128479 0.149065
H19   H     H_    0.024298 0.893601 0.869480 0.143367
H20   H     H_    0.978543 0.895608 0.128479 0.149065
H21   H     H_    0.013918 0.084947 0.933506 0.151366
H22   H     H_    0.991191 0.086038 0.062746 0.150679
H23   H     H_    0.513918 0.584947 0.933506 0.151366
H24   H     H_    0.491191 0.586038 0.062746 0.150679
H25   H     H_    0.841818 0.048316 0.926998 0.151681
H26   H     H_    0.160613 0.052816 0.073616 0.151335
H27   H     H_    0.341818 0.548316 0.926998 0.151681
H28   H     H_    0.660613 0.552816 0.073616 0.151335
H29   H     H_    0.827445 0.099743 0.049373 0.156950
H30   H     H_    0.175060 0.104691 0.950763 0.155328
H31   H     H_    0.327445 0.599743 0.049373 0.156950
H32   H     H_    0.675060 0.604691 0.950763 0.155328
H33   H     H_    0.531122 0.970361 0.445170 0.143393
H34   H     H_    0.521931 0.977344 0.570211 0.143555
H35   H     H_    0.031122 0.470361 0.445170 0.143393
H36   H     H_    0.021931 0.477344 0.570211 0.143555
O1    O     O_R   0.787540 0.042690 0.170470 -0.497638
O2    O     O_R   0.212460 0.042690 0.829530 -0.509148
O3    O     O_R   0.287540 0.542690 0.170470 -0.497638
O4    O     O_R   0.712460 0.542690 0.829530 -0.509148
O5    O     O_R   0.556540 0.252920 0.323970 -0.492329
O6    O     O_R   0.443460 0.252920 0.676030 -0.485589
O7    O     O_R   0.056540 0.752920 0.323970 -0.492329
O8    O     O_R   0.943460 0.752920 0.676030 -0.485589
O9    O     O_R   0.545870 0.051100 0.330840 -0.530129
O10   O     O_R   0.454130 0.051100 0.669160 -0.521546
O11   O     O_R   0.045870 0.551100 0.330840 -0.530129
O12   O     O_R   0.954130 0.551100 0.669160 -0.521546
O13   O     O_R   0.681340 0.959300 0.325510 -0.496395
O14   O     O_R   0.318660 0.959300 0.674490 -0.501628
O15   O     O_R   0.181340 0.459300 0.325510 -0.496395
O16   O     O_R   0.818660 0.459300 0.674490 -0.501628
O17   O     O_3   0.667880 0.167870 0.250070 -0.298456
O18   O     O_3   0.332120 0.167870 0.749930 -0.272100
O19   O     O_3   0.167880 0.667870 0.250070 -0.298456
O20   O     O_3   0.832120 0.667870 0.749930 -0.272100
O21   O     O_R   0.765660 0.292160 0.175050 -0.500621
O22   O     O_R   0.234340 0.292160 0.824950 -0.503035
O23   O     O_R   0.265660 0.792160 0.175050 -0.500621
O24   O     O_R   0.734340 0.792160 0.824950 -0.503035
O25   O     O_R   0.670190 0.408980 0.168550 -0.518400
O26   O     O_R   0.329810 0.408980 0.831450 -0.523680
O27   O     O_R   0.170190 0.908980 0.168550 -0.518400
O28   O     O_R   0.829810 0.908980 0.831450 -0.523680
O29   O     O_R   0.556580 0.251450 0.175160 -0.507625
O30   O     O_R   0.443420 0.251450 0.824840 -0.512372
O31   O     O_R   0.056580 0.751450 0.175160 -0.507625
O32   O     O_R   0.943420 0.751450 0.824840 -0.512372
O33   O     O_R   0.545920 0.049510 0.170320 -0.520465
O34   O     O_R   0.454080 0.049510 0.829680 -0.521364
O35   O     O_R   0.045920 0.549510 0.170320 -0.520465
O36   O     O_R   0.954080 0.549510 0.829680 -0.521364
O37   O     O_R   0.681390 0.957840 0.176710 -0.492772
O38   O     O_R   0.318610 0.957840 0.823290 -0.501980
O39   O     O_R   0.181390 0.457840 0.176710 -0.492772
O40   O     O_R   0.818610 0.457840 0.823290 -0.501980
O41   O     O_R   0.787500 0.044280 0.330990 -0.485747
O42   O     O_R   0.212500 0.044280 0.669010 -0.512937
O43   O     O_R   0.287500 0.544280 0.330990 -0.485747
O44   O     O_R   0.712500 0.544280 0.669010 -0.512937
O45   O     O_R   0.765610 0.293630 0.323860 -0.521267
O46   O     O_R   0.234390 0.293630 0.676140 -0.502341
O47   O     O_R   0.265610 0.793630 0.323860 -0.521267
O48   O     O_R   0.734390 0.793630 0.676140 -0.502341
O49   O     O_R   0.670140 0.410570 0.329080 -0.512456
O50   O     O_R   0.329860 0.410570 0.670920 -0.501055
O51   O     O_R   0.170140 0.910570 0.329080 -0.512456
O52   O     O_R   0.829860 0.910570 0.670920 -0.501055
H37   H     H_    0.646205 0.858911 0.438220 0.136644
H38   H     H_    0.362590 0.885994 0.558149 0.143828
H39   H     H_    0.146205 0.358911 0.438220 0.136644
H40   H     H_    0.862590 0.385994 0.558149 0.143828
H41   H     H_    0.629630 0.899894 0.058412 0.135391
H42   H     H_    0.369354 0.897022 0.941102 0.135252
H43   H     H_    0.129630 0.399894 0.058412 0.135391
H44   H     H_    0.869354 0.397022 0.941102 0.135252
C105  C     C_1   0.626724 0.835665 0.922646 0.182573
N1    N     N_1   0.581346 0.783770 0.894237 -0.338867
C106  C     C_1   0.372466 0.832376 0.076861 0.183253
N2    N     N_1   0.417299 0.778490 0.104892 -0.335582
C107  C     C_1   0.126724 0.335665 0.922646 0.182573
N3    N     N_1   0.081346 0.283770 0.894237 -0.338867
C108  C     C_1   0.872466 0.332376 0.076861 0.183253
N4    N     N_1   0.917299 0.278490 0.104892 -0.335582
C109  C     C_1   0.480817 0.398413 0.569161 0.219427
N5    N     N_1   0.473530 0.492542 0.595996 -0.304778
C110  C     C_1   0.478253 0.384688 0.418900 0.216480
N6    N     N_1   0.466051 0.471487 0.385777 -0.279006
C111  C     C_1   0.980817 0.898414 0.569161 0.219427
N7    N     N_1   0.973530 0.992542 0.595996 -0.304778
C112  C     C_1   0.978253 0.884688 0.418900 0.216480
N8    N     N_1   0.966051 0.971487 0.385777 -0.279006

loop_
_geom_bond_atom_site_label_1
_geom_bond_atom_site_label_2
_ccdc_geom_bond_type
C38   H34   S    
C58   C62   A    
Cr1   O1    S    
C62   C83   S    
C101  C102  A    
C56   C76   A    
C48   C95   S    
C55   C59   A    
C8    H20   S    
C85   O9    A    
C14   C18   A    
C87   O11   A    
C110  N6    T    
C78   O38   A    
C72   C76   A    
Cr5   O5    S    
Cr3   O43   S    
C97   C98   A    
C45   O29   A    
Cr8   O32   S    
Cr3   O19   S    
C105  N1    T    
C84   O48   A    
C5    H17   S    
C41   C86   S    
Cr12  O36   S    
C28   C32   A    
C1    O21   A    
C37   C38   A    
C57   C61   A    
C7    C99   A    
C96   C100  A    
Cr10  O38   S    
C43   C88   S    
C56   H8    S    
C91   O15   A    
C111  N7    T    
C5    C11   A    
C64   C68   A    
C81   O45   A    
C95   C99   A    
Cr10  O10   S    
Cr6   O26   S    
C59   H11   S    
C29   C33   A    
Cr11  O35   S    
C40   H36   S    
Cr10  O18   S    
C41   C49   A    
C37   C42   A    
C68   H16   S    
C3    O27   A    
C15   H43   S    
C103  C104  A    
C77   O1    A    
C54   C74   A    
C9    H21   S    
C40   C43   A    
C20   C24   A    
C94   C101  A    
Cr2   O2    S    
C90   O42   A    
C70   C74   A    
C27   H27   S    
C47   C96   S    
C12   H24   S    
C80   O4    A    
C19   C107  S    
C23   C27   A    
Cr4   O44   S    
C44   C87   S    
C9    C10   A    
C34   C78   S    
Cr7   O19   S    
Cr6   O6    S    
C75   C91   S    
C28   H28   S    
Cr2   O46   S    
C55   C75   A    
C10   H22   S    
C44   C52   A    
C71   H39   S    
Cr12  O40   S    
Cr9   O33   S    
C79   O39   A    
C90   O14   A    
Cr7   O27   S    
Cr2   O18   S    
C1    O25   A    
C4    O28   A    
C17   C105  S    
C45   C94   S    
C6    C12   A    
C15   C35   A    
Cr5   O17   S    
C60   C64   A    
Cr10  O14   S    
C55   H7    S    
C25   C29   A    
C63   C67   A    
C50   C110  S    
C71   C75   A    
C30   C34   A    
C63   C82   S    
C27   C31   A    
C51   C52   A    
C6    C98   A    
C13   H41   S    
C16   H44   S    
C48   O36   A    
C38   C41   A    
C72   H40   S    
C36   C80   S    
C37   H33   S    
C108  N4    T    
C82   O50   A    
C62   C66   A    
C19   C23   A    
C78   O2    A    
C81   O49   A    
C107  N3    T    
C88   O12   A    
C79   O3    A    
C31   H31   S    
C17   C21   A    
C56   C60   A    
C68   C72   A    
Cr4   O48   S    
C15   C19   A    
C106  N2    T    
C73   C89   S    
C13   C33   A    
C109  N5    T    
C61   C65   A    
Cr12  O20   S    
C91   O43   A    
C92   O16   A    
C52   C112  S    
C65   H13   S    
C112  N8    T    
Cr4   O4    S    
C60   H12   S    
C16   C20   A    
C89   O41   A    
Cr7   O31   S    
Cr2   O42   S    
Cr2   O22   S    
C42   C85   S    
C46   O34   A    
C69   C73   A    
C86   O6    A    
C47   O31   A    
C89   O13   A    
C103  H3    S    
C42   C50   A    
C86   O10   A    
Cr5   O29   S    
Cr6   O18   S    
C83   O51   A    
Cr7   O51   S    
C76   C92   S    
C58   H10   S    
Cr4   O20   S    
C4    O24   A    
Cr1   O17   S    
C20   C108  S    
C31   C35   A    
C59   C63   A    
C35   C79   S    
Cr11  O19   S    
Cr8   O52   S    
C83   O47   A    
C93   C97   A    
C39   C40   A    
C95   C104  A    
C48   O32   A    
C54   C58   A    
C3    O23   A    
C7    C9    A    
C21   C25   A    
C53   C57   A    
Cr8   O8    S    
C49   C109  S    
Cr11  O15   S    
C18   C22   A    
Cr3   O47   S    
C53   C73   A    
Cr12  O12   S    
C25   H25   S    
C24   C28   A    
Cr9   O13   S    
Cr7   O7    S    
C92   O44   A    
C61   C84   S    
C102  H2    S    
C93   C102  A    
C14   C34   A    
Cr9   O17   S    
C11   C12   A    
C32   C36   A    
C82   O46   A    
C39   C44   A    
C32   H32   S    
C70   H38   S    
Cr9   O37   S    
C66   C70   A    
C69   H37   S    
Cr10  O34   S    
C99   C100  A    
C13   C17   A    
C51   C111  S    
Cr6   O50   S    
C30   H30   S    
C77   O37   A    
C101  H1    S    
C46   O30   A    
Cr5   O49   S    
C8    C100  A    
Cr11  O39   S    
C6    H18   S    
C53   H5    S    
C16   C36   A    
C57   H9    S    
C29   H29   S    
C4    C21   S    
Cr1   O41   S    
C45   O33   A    
Cr8   O20   S    
C46   C93   S    
Cr3   O23   S    
C43   C51   A    
C65   C69   A    
C74   C90   S    
Cr4   O24   S    
Cr1   O45   S    
C87   O7    A    
C5    C97   A    
C67   C71   A    
C88   O8    A    
Cr11  O11   S    
Cr8   O28   S    
C67   H15   S    
C39   H35   S    
Cr3   O3    S    
C64   C81   S    
C18   C106  S    
C7    H19   S    
C80   O40   A    
Cr9   O9    S    
C14   H42   S    
Cr5   O25   S    
C54   H6    S    
Cr6   O30   S    
C1    C24   S    
C8    C10   A    
C49   C50   A    
C22   C26   A    
C96   C103  A    
C2    C23   S    
C85   O5    A    
C94   C98   A    
Cr12  O16   S    
C3    C22   S    
Cr1   O21   S    
C2    O26   A    
C66   H14   S    
C84   O52   A    
C26   H26   S    
C47   O35   A    
C33   C77   S    
C2    O22   A    
C11   H23   S    
C104  H4    S    
C26   C30   A    
