data_mof_unit_33672.cif
_audit_creation_date              2012-12-10T20:50:09-0500
_audit_creation_method            fapswitch 2.2
_symmetry_space_group_name_H-M    P1
_symmetry_Int_Tables_number       1
_space_group_crystal_system       triclinic
_cell_length_a                    19.203655
_cell_length_b                    8.90078
_cell_length_c                    8.198619
_cell_angle_alpha                 90.172821
_cell_angle_beta                  91.531416
_cell_angle_gamma                 89.995814
_cell_volume                      1400.86260599

loop_
_atom_site_label
_atom_site_type_symbol
_atom_type_description
_atom_site_fract_x
_atom_site_fract_y
_atom_site_fract_z
_atom_type_partial_charge
C1    C     C_R   0.499830 0.218433 0.499828 0.913956
C2    C     C_R   0.248204 0.555817 0.363277 0.431403
C3    C     C_R   0.188091 0.542374 0.666176 0.043058
C4    C     C_R   0.822761 0.499236 0.375616 0.049626
C5    C     C_R   0.818764 0.458448 0.669982 0.051009
C6    C     C_R   0.175075 0.548705 0.372080 0.040704
C7    C     C_R   0.145164 0.546100 0.526625 -0.109281
C8    C     C_R   0.856940 0.479121 0.528325 -0.066276
C9    C     C_R   0.288836 0.509933 0.501048 -0.365768
C10   C     C_R   0.711735 0.491778 0.510005 -0.353897
C11   C     C_R   0.931894 0.489431 0.541918 0.365266
C12   C     C_R   0.499866 0.781583 0.500139 0.908356
C13   C     C_R   0.070681 0.523493 0.542105 0.315627
C14   C     C_3   0.286837 0.266290 0.761863 0.121005
C15   C     C_3   0.309484 0.185078 0.918686 -0.401420
C16   C     C_3   0.381881 0.233092 0.979030 -0.658799
C17   C     C_3   0.705228 0.299990 0.198522 0.101956
C18   C     C_3   0.661339 0.269946 0.043005 -0.235737
C19   C     C_3   0.618077 0.126607 0.056219 -0.997336
C20   C     C_3   0.703274 0.686372 0.812968 0.181802
C21   C     C_3   0.763179 0.765786 0.905687 -0.377501
C22   C     C_3   0.768419 0.930392 0.856839 -0.994037
C23   C     C_R   0.365061 0.499322 0.498659 0.899010
C24   C     C_3   0.305382 0.756051 0.252838 0.156224
C25   C     C_3   0.248670 0.878139 0.242784 -0.417241
C26   C     C_3   0.273405 0.023851 0.324425 -0.979353
C27   C     C_3   0.165522 0.607698 0.824788 -0.351490
C28   C     C_3   0.162569 0.779288 0.814760 -0.884984
C29   C     C_3   0.862115 0.540338 0.223927 -0.389814
C30   C     C_3   0.893413 0.698286 0.233233 -0.883112
C31   C     C_3   0.852705 0.403204 0.828062 -0.400385
C32   C     C_3   0.887968 0.250306 0.809243 -0.880613
C33   C     C_3   0.129822 0.549281 0.219031 -0.352022
C34   C     C_R   0.635073 0.498627 0.502411 0.908120
C35   C     C_3   0.129922 0.393130 0.140267 -0.850240
C36   C     C_1   0.499685 0.065368 0.499726 -0.221553
C37   C     C_1   0.499700 0.934678 0.500165 -0.206253
C38   C     C_R   0.255792 0.490349 0.651228 0.392051
C39   C     C_R   0.750167 0.480838 0.365928 0.361547
C40   C     C_R   0.747725 0.492953 0.663087 0.374921
H1    H     H_    0.322170 0.232064 0.662825 0.125510
H2    H     H_    0.625468 0.365514 0.018980 0.268230
H3    H     H_    0.696177 0.259560 0.937605 0.220366
H4    H     H_    0.651527 0.030391 0.094065 0.264374
H5    H     H_    0.592537 0.100695 0.936274 0.270985
H6    H     H_    0.577001 0.141827 0.147419 0.290012
H7    H     H_    0.654565 0.706652 0.879841 0.163592
H8    H     H_    0.694272 0.738265 0.690271 0.111035
H9    H     H_    0.754522 0.758270 0.038895 0.238143
H10   H     H_    0.813597 0.711301 0.879538 0.233995
H11   H     H_    0.788421 0.938768 0.731322 0.268788
H12   H     H_    0.233035 0.226978 0.729041 0.090161
H13   H     H_    0.804683 0.989837 0.942669 0.274532
H14   H     H_    0.716732 0.985354 0.859093 0.275438
H15   H     H_    0.344133 0.780105 0.158146 0.165220
H16   H     H_    0.334603 0.764659 0.371658 0.120920
H17   H     H_    0.234864 0.900417 0.112844 0.218193
H18   H     H_    0.200979 0.841464 0.304715 0.228101
H19   H     H_    0.281005 0.006711 0.457901 0.255867
H20   H     H_    0.233763 0.113235 0.304394 0.268590
H21   H     H_    0.323328 0.061172 0.273279 0.270850
H22   H     H_    0.215841 0.825525 0.801049 0.250003
H23   H     H_    0.271549 0.208067 0.015278 0.224289
H24   H     H_    0.129444 0.816999 0.709752 0.278470
H25   H     H_    0.140310 0.825830 0.927691 0.238535
H26   H     H_    0.114001 0.562823 0.857007 0.216210
H27   H     H_    0.204205 0.578678 0.922072 0.278397
H28   H     H_    0.854139 0.780464 0.275202 0.262715
H29   H     H_    0.939944 0.702251 0.315604 0.273808
H30   H     H_    0.910253 0.732376 0.110182 0.246404
H31   H     H_    0.903031 0.455873 0.198924 0.215297
H32   H     H_    0.825858 0.542112 0.118071 0.241523
H33   H     H_    0.855161 0.174403 0.731953 0.268136
H34   H     H_    0.309617 0.061998 0.895212 0.171155
H35   H     H_    0.939847 0.261972 0.754854 0.274145
H36   H     H_    0.896066 0.198322 0.931281 0.244589
H37   H     H_    0.891239 0.486648 0.875343 0.208423
H38   H     H_    0.812285 0.386387 0.919904 0.245335
H39   H     H_    0.119276 0.304876 0.231693 0.267098
H40   H     H_    0.088716 0.385401 0.043226 0.239878
H41   H     H_    0.181274 0.369660 0.087335 0.266849
H42   H     H_    0.075221 0.581866 0.242216 0.206094
H43   H     H_    0.148173 0.637703 0.137522 0.213773
H44   H     H_    0.419976 0.220108 0.880700 0.252608
H45   H     H_    0.399281 0.162273 0.083446 0.207869
H46   H     H_    0.380409 0.351787 0.020376 0.293425
H47   H     H_    0.677153 0.254727 0.305217 0.138765
H48   H     H_    0.755593 0.238668 0.189488 0.106021
N1    N     N_1   0.500000 0.500000 0.073640 -0.050840
N2    N     N_1   0.500000 0.500000 0.926360 -0.049084
N3    N     N_R   0.040561 0.400272 0.473277 -0.181375
N4    N     N_R   0.961939 0.610324 0.615770 -0.191141
N5    N     N_R   0.971981 0.383929 0.471795 -0.191234
N6    N     N_R   0.030542 0.627762 0.614757 -0.186039
O1    O     O_R   0.500000 0.285350 0.636850 -0.629557
O2    O     O_3   0.717281 0.456397 0.215777 -0.614729
O3    O     O_3   0.714561 0.528762 0.806367 -0.637292
O4    O     O_3   0.278120 0.609531 0.222698 -0.622516
O5    O     O_R   0.500000 0.714650 0.363150 -0.620669
O6    O     O_R   0.500000 0.714650 0.636850 -0.622547
O7    O     O_R   0.500000 0.285350 0.363150 -0.632553
O8    O     O_R   0.398140 0.500000 0.636920 -0.564291
O9    O     O_R   0.601860 0.500000 0.363080 -0.571323
O10   O     O_R   0.601860 0.500000 0.636920 -0.595700
O11   O     O_R   0.398140 0.500000 0.363080 -0.597509
O12   O     O_3   0.288960 0.424156 0.784883 -0.583318
Zn1   Zn    Zn3+2 0.500000 0.500000 0.682780 0.977225
Zn2   Zn    Zn3+2 0.500000 0.500000 0.317220 0.973245

loop_
_geom_bond_atom_site_label_1
_geom_bond_atom_site_label_2
_ccdc_geom_bond_type
C17   H48   S    
C4    C8    A    
C32   H35   S    
C21   H9    S    
C35   H41   S    
C19   H6    S    
C22   H14   S    
C24   H15   S    
O5    Zn2   S    
C24   O4    S    
C36   C37   T    
C26   H21   S    
N2    Zn1   S    
C3    C7    A    
C18   H2    S    
C23   O8    A    
C15   C16   S    
C23   O11   A    
C35   H40   S    
C16   H44   S    
C10   C40   A    
C18   C19   S    
C12   C37   S    
C12   O5    A    
C11   N4    A    
C14   H12   S    
C20   O3    S    
C3    C38   A    
O9    Zn2   S    
C33   H42   S    
C4    C29   S    
C29   H32   S    
C11   N5    A    
O7    Zn2   S    
C21   C22   S    
C13   N3    A    
C16   H46   S    
C2    C6    A    
C25   H17   S    
C21   H10   S    
C30   H30   S    
C31   H37   S    
C22   H13   S    
O11   Zn2   S    
C24   C25   S    
C40   O3    S    
C9    C23   S    
C25   C26   S    
C34   O10   A    
C10   C39   A    
C38   O12   S    
C29   C30   S    
N3    N5    A    
C31   C32   S    
C4    C39   A    
C7    C13   S    
C1    O1    A    
N4    N6    A    
C17   C18   S    
O8    Zn1   S    
C10   C34   S    
C17   O2    S    
C33   H43   S    
C20   H8    S    
O1    Zn1   S    
C14   H1    S    
C28   H24   S    
C16   H45   S    
C25   H18   S    
C1    O7    A    
C32   H33   S    
C30   H29   S    
C19   H4    S    
C31   H38   S    
C26   H19   S    
O6    Zn1   S    
C17   H47   S    
C32   H36   S    
C5    C8    A    
C19   H5    S    
C6    C7    A    
C24   H16   S    
C34   O9    A    
C6    C33   S    
C13   N6    A    
C3    C27   S    
C28   H25   S    
C27   H26   S    
C18   H3    S    
C8    C11   S    
N1    Zn2   S    
C35   H39   S    
C9    C38   A    
C33   C35   S    
C39   O2    S    
C12   O6    A    
C20   H7    S    
C27   H27   S    
C14   O12   S    
C15   H34   S    
C20   C21   S    
C2    O4    S    
C5    C40   A    
C27   C28   S    
C15   H23   S    
C14   C15   S    
C5    C31   S    
N1    N2    T    
C2    C9    A    
C26   H20   S    
O10   Zn1   S    
C30   H28   S    
C1    C36   S    
C22   H11   S    
C29   H31   S    
C28   H22   S    
