data_mof_unit_52962.cif
_audit_creation_date              2012-12-10T20:42:40-0500
_audit_creation_method            fapswitch 2.2
_symmetry_space_group_name_H-M    P1
_symmetry_Int_Tables_number       1
_space_group_crystal_system       triclinic
_cell_length_a                    8.915453
_cell_length_b                    10.684994
_cell_length_c                    9.884358
_cell_angle_alpha                 90.167931
_cell_angle_beta                  90.525185
_cell_angle_gamma                 90.359618
_cell_volume                      941.537073444

loop_
_atom_site_label
_atom_site_type_symbol
_atom_type_description
_atom_site_fract_x
_atom_site_fract_y
_atom_site_fract_z
_atom_type_partial_charge
C1    C     C_R   0.497393 0.260121 0.499896 0.870554
C2    C     C_R   0.446506 0.398915 0.927621 0.127029
C3    C     C_3   0.292398 0.345423 0.916476 0.193994
C4    C     C_R   0.218737 0.499609 0.499623 0.932722
C5    C     C_3   0.287345 0.349628 0.071184 0.185223
C6    C     C_R   0.497173 0.739912 0.500193 0.872298
C7    C     C_R   0.781267 0.499838 0.500447 0.927353
C8    C     C_1   0.065400 0.499410 0.499642 -0.204510
C9    C     C_1   0.934628 0.499479 0.500813 -0.224963
C10   C     C_R   0.501973 0.064315 0.621551 0.217782
C11   C     C_R   0.480129 0.128431 0.500909 -0.117740
C12   C     C_R   0.433437 0.934591 0.384190 -0.228293
C13   C     C_R   0.433892 0.064079 0.383858 -0.248581
C14   C     C_3   0.151269 0.172356 0.852509 0.087859
C15   C     C_3   0.152776 0.056118 0.763433 -0.805709
C16   C     C_3   0.042817 0.390172 0.132128 0.098171
C17   C     C_3   0.928580 0.494719 0.128127 -0.771094
C18   C     C_R   0.479018 0.871481 0.501664 -0.103107
C19   C     C_R   0.500653 0.936856 0.622262 0.122579
C20   C     C_3   0.626361 0.930802 0.723257 -0.518794
C21   C     C_3   0.627922 0.072692 0.721945 -0.465407
C22   C     C_R   0.444559 0.399584 0.069987 0.081965
C23   C     C_R   0.564754 0.594853 0.072698 -0.119869
C24   C     C_R   0.565491 0.594483 0.928950 -0.128430
H1    H     H_    0.406312 0.112876 0.291126 0.167155
H2    H     H_    0.111679 0.144111 0.954311 0.126853
H3    H     H_    0.233875 0.987083 0.804370 0.258559
H4    H     H_    0.039260 0.012703 0.760551 0.201166
H5    H     H_    0.184688 0.081772 0.658772 0.249221
H6    H     H_    0.035423 0.340828 0.230749 0.152814
H7    H     H_    0.012376 0.323987 0.049213 0.093101
H8    H     H_    0.932774 0.543191 0.028981 0.236180
H9    H     H_    0.814987 0.454142 0.141284 0.222608
H10   H     H_    0.951981 0.563577 0.210011 0.265717
H11   H     H_    0.279682 0.257374 0.123165 0.070432
H12   H     H_    0.405682 0.884806 0.291556 0.176517
H13   H     H_    0.589294 0.891684 0.821550 0.204743
H14   H     H_    0.729746 0.888565 0.681178 0.200054
H15   H     H_    0.592168 0.114857 0.819325 0.234027
H16   H     H_    0.731951 0.113392 0.678439 0.184203
H17   H     H_    0.615707 0.672215 0.127354 0.146195
H18   H     H_    0.617192 0.671316 0.875594 0.144232
H19   H     H_    0.214193 0.409978 0.862888 0.128966
H20   H     H_    0.070561 0.239601 0.806457 0.131954
N1    N     N_R   0.499010 0.499140 0.142800 -0.079125
N2    N     N_R   0.499010 0.499180 0.857150 -0.118998
O1    O     O_R   0.500020 0.316790 0.614690 -0.588569
O2    O     O_3   0.187519 0.442099 0.117491 -0.577798
O3    O     O_R   0.500000 0.316760 0.385350 -0.635217
O4    O     O_R   0.285350 0.500020 0.614650 -0.625727
O5    O     O_R   0.285340 0.499980 0.385310 -0.561495
O6    O     O_R   0.500000 0.683240 0.614650 -0.621483
O7    O     O_R   0.499980 0.683210 0.385310 -0.626819
O8    O     O_R   0.714660 0.500020 0.614690 -0.617585
O9    O     O_R   0.714650 0.499980 0.385350 -0.629378
O10   O     O_3   0.297845 0.222759 0.862735 -0.613027
Zn1   Zn    Zn3+2 0.500010 0.500020 0.653130 0.956990
Zn2   Zn    Zn3+2 0.499990 0.499980 0.346870 0.962502

loop_
_geom_bond_atom_site_label_1
_geom_bond_atom_site_label_2
_ccdc_geom_bond_type
C2    C22   A    
C14   O10   S    
C23   C24   A    
C23   N1    A    
O1    Zn1   S    
C24   H18   S    
C3    O10   S    
C15   H3    S    
C19   C20   S    
C23   H17   S    
C7    O9    A    
C10   C19   A    
O7    Zn2   S    
C24   N2    A    
C16   O2    S    
C2    C3    S    
C8    C9    T    
C10   C21   S    
O5    Zn2   S    
C2    N2    A    
C16   H7    S    
C20   H13   S    
C11   C13   A    
C13   H1    S    
C15   H4    S    
C21   H16   S    
C17   H9    S    
C3    H19   S    
C15   H5    S    
N2    Zn1   S    
C6    C18   S    
C5    O2    S    
N1    Zn2   S    
C12   H12   S    
C17   H10   S    
O3    Zn2   S    
C6    O7    A    
C16   H6    S    
O6    Zn1   S    
C5    H11   S    
C22   N1    A    
C20   H14   S    
C12   C13   A    
C14   H20   S    
C18   C19   A    
C10   C11   A    
O9    Zn2   S    
C12   C18   A    
C4    C8    S    
C7    C9    S    
C17   H8    S    
C14   C15   S    
C1    O1    A    
C1    C11   S    
C4    O5    A    
C7    O8    A    
C6    O6    A    
C20   C21   S    
O4    Zn1   S    
C1    O3    A    
C14   H2    S    
C5    C22   S    
C4    O4    A    
C16   C17   S    
C3    C5    S    
O8    Zn1   S    
C21   H15   S    
