data_mof_unit_32820.cif
_audit_creation_date              2012-12-11T15:41:13-0500
_audit_creation_method            fapswitch 2.2
_symmetry_space_group_name_H-M    P1
_symmetry_Int_Tables_number       1
_space_group_crystal_system       triclinic
_cell_length_a                    18.830601
_cell_length_b                    11.086535
_cell_length_c                    18.797163
_cell_angle_alpha                 90.20532
_cell_angle_beta                  90.777304
_cell_angle_gamma                 90.253992
_cell_volume                      3923.78500415

loop_
_atom_site_label
_atom_site_type_symbol
_atom_type_description
_atom_site_fract_x
_atom_site_fract_y
_atom_site_fract_z
_atom_type_partial_charge
C1    C     C_R   0.729064 0.951649 0.851815 0.552288
C2    C     C_R   0.271316 0.953654 0.147467 0.528063
C3    C     C_R   0.229060 0.451659 0.851821 0.559364
C4    C     C_R   0.771316 0.453652 0.147468 0.527327
C5    C     C_R   0.698175 0.465643 0.037593 0.013401
C6    C     C_R   0.316698 0.416834 0.953769 0.009813
C7    C     C_R   0.198172 0.965642 0.037591 0.013270
C8    C     C_R   0.816705 0.916818 0.953761 0.010753
C9    C     C_R   0.688815 0.435420 0.965983 0.035735
C10   C     C_R   0.325962 0.388167 0.023951 0.013751
C11   C     C_R   0.188812 0.935415 0.965982 0.036392
C12   C     C_R   0.825966 0.888161 0.023946 0.013682
C13   C     C_R   0.772667 0.273455 0.979643 -0.171802
C14   C     C_R   0.214694 0.285263 0.024015 -0.161205
C15   C     C_R   0.272662 0.773448 0.979643 -0.171790
C16   C     C_R   0.714701 0.785249 0.024009 -0.160764
C17   C     C_R   0.782194 0.302933 0.051104 -0.161412
C18   C     C_R   0.205377 0.313432 0.952024 -0.156473
C19   C     C_R   0.282191 0.802931 0.051104 -0.161490
C20   C     C_R   0.705387 0.813407 0.952014 -0.157602
C21   C     C_3   0.619859 0.477165 0.047885 -0.278157
C22   C     C_3   0.386841 0.479698 0.949904 -0.283007
C23   C     C_3   0.119855 0.977165 0.047882 -0.278085
C24   C     C_3   0.886843 0.979696 0.949896 -0.282992
C25   C     C_3   0.609929 0.445260 0.970184 -0.265114
C26   C     C_3   0.396129 0.450324 0.029519 -0.262111
C27   C     C_3   0.109925 0.945258 0.970181 -0.265085
C28   C     C_3   0.896128 0.950333 0.029513 -0.262185
C29   C     C_R   0.727553 0.341040 0.935824 0.007470
C30   C     C_R   0.273556 0.329541 0.063164 0.006061
C31   C     C_R   0.227548 0.841032 0.935824 0.007609
C32   C     C_R   0.773559 0.829538 0.063160 0.006342
C33   C     C_R   0.499527 0.176447 0.424986 0.012625
C34   C     C_R   0.509881 0.164666 0.571684 0.020057
C35   C     C_R   0.986530 0.672558 0.429976 0.001584
C36   C     C_R   0.996285 0.658587 0.577088 0.039554
C37   C     C_R   0.482284 0.274728 0.467667 0.013028
C38   C     C_R   0.488796 0.270242 0.539366 0.000354
C39   C     C_R   0.951833 0.755168 0.473269 0.014415
C40   C     C_R   0.955951 0.749269 0.545846 0.079245
C41   C     C_R   0.534819 0.068110 0.529631 -0.165279
C42   C     C_R   0.531129 0.075669 0.455633 -0.157715
C43   C     C_R   0.021149 0.562863 0.534337 -0.180119
C44   C     C_R   0.018678 0.572459 0.460689 -0.168756
C45   C     C_R   0.528445 0.177451 0.848319 0.548780
C46   C     C_R   0.471158 0.177387 0.151393 0.534954
C47   C     C_R   0.028441 0.677450 0.848316 0.550554
C48   C     C_R   0.971158 0.677386 0.151393 0.534514
C49   C     C_3   0.413925 0.341505 0.471703 -0.234928
C50   C     C_3   0.422628 0.339519 0.551438 -0.253797
C51   C     C_3   0.956937 0.888805 0.472836 -0.213021
C52   C     C_3   0.957926 0.884045 0.553123 -0.243457
C53   C     C_R   0.749948 0.398625 0.418425 0.003093
C54   C     C_R   0.222844 0.473490 0.565077 0.032533
C55   C     C_R   0.250994 0.898238 0.418720 0.001696
C56   C     C_R   0.724635 0.967678 0.566015 0.046663
C57   C     C_R   0.801813 0.336624 0.457307 0.064809
C58   C     C_R   0.178747 0.391801 0.529833 -0.007329
C59   C     C_R   0.303508 0.837853 0.458218 0.059464
C60   C     C_R   0.684375 0.877995 0.532935 0.000843
C61   C     C_R   0.793265 0.313260 0.527817 -0.034184
C62   C     C_R   0.186126 0.367631 0.458966 -0.014876
C63   C     C_R   0.294640 0.816953 0.528988 -0.039738
C64   C     C_R   0.691312 0.854164 0.461900 -0.000264
C65   C     C_R   0.673391 0.385758 0.521897 -0.118721
C66   C     C_R   0.282043 0.510921 0.452711 -0.155163
C67   C     C_R   0.173282 0.880461 0.520985 -0.103808
C68   C     C_R   0.780597 0.009210 0.453020 -0.163088
C69   C     C_R   0.683184 0.416276 0.449752 -0.160085
C70   C     C_R   0.274445 0.534873 0.525687 -0.158441
C71   C     C_R   0.183587 0.912625 0.449204 -0.153358
C72   C     C_R   0.773640 0.032654 0.525805 -0.161462
C73   C     C_3   0.879748 0.361563 0.467383 0.137593
C74   C     C_3   0.159153 0.264248 0.547219 0.123484
C75   C     C_3   0.381524 0.863823 0.469185 0.165307
C76   C     C_3   0.676821 0.746894 0.551561 0.118933
C77   C     C_3   0.869749 0.335023 0.546108 -0.240175
C78   C     C_3   0.166585 0.237476 0.468320 -0.214398
C79   C     C_3   0.369972 0.845448 0.548448 -0.220377
C80   C     C_3   0.682117 0.721292 0.472450 -0.205498
C81   C     C_R   0.730944 0.341115 0.562971 0.055968
C82   C     C_R   0.241022 0.419998 0.420116 0.002543
C83   C     C_R   0.231167 0.840245 0.563031 0.057530
C84   C     C_R   0.742187 0.914569 0.421525 0.009640
C85   C     C_R   0.723630 0.312844 0.859930 0.562856
C86   C     C_R   0.276675 0.310330 0.140266 0.558301
C87   C     C_R   0.223628 0.812839 0.859929 0.561540
C88   C     C_R   0.776675 0.810331 0.140265 0.557238
C89   C     C_R   0.710785 0.996755 0.639576 0.558906
C90   C     C_R   0.271880 0.954024 0.352023 0.535077
C91   C     C_R   0.210026 0.498969 0.639650 0.565290
C92   C     C_R   0.771592 0.453896 0.351844 0.535432
C93   C     C_R   0.531245 0.175401 0.644239 0.543632
C94   C     C_R   0.471189 0.177368 0.354248 0.536580
C95   C     C_R   0.029070 0.675165 0.645542 0.545311
C96   C     C_R   0.969434 0.677198 0.355765 0.540714
C97   C     C_R   0.725653 0.313901 0.638689 0.566679
C98   C     C_R   0.259416 0.363986 0.352751 0.550572
C99   C     C_R   0.225590 0.813492 0.638746 0.561665
C100  C     C_R   0.759641 0.863067 0.353010 0.558339
C101  C     C_2   0.489671 0.165146 0.913127 -0.095268
C102  C     C_2   0.507154 0.164159 0.085108 -0.093245
C103  C     C_2   0.989657 0.665147 0.913118 -0.094846
C104  C     C_2   0.007144 0.664159 0.085101 -0.093155
C105  C     C_2   0.477472 0.099683 0.031960 -0.031347
C106  C     C_2   0.514793 0.096144 0.966031 -0.036261
C107  C     C_2   0.977450 0.599698 0.031953 -0.031364
C108  C     C_2   0.014768 0.596137 0.966023 -0.036326
C109  C     C_R   0.745881 0.401080 0.080565 0.010176
C110  C     C_R   0.253450 0.390960 0.917022 0.020753
C111  C     C_R   0.245879 0.901080 0.080564 0.010128
C112  C     C_R   0.753458 0.890939 0.917013 0.020085
Cr1   Cr    Cr6+3 0.769260 0.163750 0.750730 1.020822
Cr2   Cr    Cr6+3 0.230740 0.163750 0.249270 1.032157
Cr3   Cr    Cr6+3 0.269260 0.663750 0.750730 1.020380
Cr4   Cr    Cr6+3 0.730740 0.663750 0.249270 1.030490
Cr5   Cr    Cr6+3 0.612640 0.009910 0.748780 0.996489
Cr6   Cr    Cr6+3 0.387360 0.009910 0.251220 1.077367
Cr7   Cr    Cr6+3 0.112640 0.509910 0.748780 0.998417
Cr8   Cr    Cr6+3 0.887360 0.509910 0.251220 1.089329
Cr9   Cr    Cr6+3 0.614190 0.322400 0.747710 1.037004
Cr10  Cr    Cr6+3 0.385810 0.322400 0.252290 1.042864
Cr11  Cr    Cr6+3 0.114190 0.822400 0.747710 1.039781
Cr12  Cr    Cr6+3 0.885810 0.822400 0.252290 1.051766
H1    H     H_    0.908933 0.929726 0.449591 0.203142
H2    H     H_    0.007459 0.922558 0.576221 0.155642
H3    H     H_    0.368001 0.286316 0.452624 0.156071
H4    H     H_    0.433310 0.429870 0.575165 0.176095
H5    H     H_    0.419135 0.431756 0.447630 0.202682
H6    H     H_    0.381731 0.284823 0.578233 0.218368
H7    H     H_    0.007773 0.921272 0.450108 0.168618
H8    H     H_    0.908633 0.920114 0.576851 0.190223
H9    H     H_    0.622794 0.403796 0.546297 0.141817
H10   H     H_    0.323558 0.554896 0.423713 0.210645
H11   H     H_    0.122130 0.894726 0.544607 0.131890
H12   H     H_    0.819371 0.057784 0.423060 0.205730
H13   H     H_    0.640679 0.459873 0.420403 0.129144
H14   H     H_    0.311564 0.594528 0.552283 0.162239
H15   H     H_    0.140804 0.954605 0.419424 0.129730
H16   H     H_    0.809252 0.095120 0.551837 0.145898
H17   H     H_    0.893140 0.457246 0.456662 0.141461
H18   H     H_    0.103617 0.257290 0.565876 0.079002
H19   H     H_    0.396414 0.957814 0.455250 0.127590
H20   H     H_    0.623603 0.725123 0.573092 0.114742
H21   H     H_    0.895807 0.252488 0.566547 0.154401
H22   H     H_    0.210691 0.176495 0.453837 0.184797
H23   H     H_    0.397599 0.767685 0.573057 0.189449
H24   H     H_    0.729629 0.670150 0.455720 0.182732
H25   H     H_    0.878122 0.415681 0.580509 0.183140
H26   H     H_    0.115275 0.214789 0.441658 0.165138
H27   H     H_    0.375055 0.930711 0.579483 0.163359
H28   H     H_    0.631432 0.687894 0.448530 0.142742
H29   H     H_    0.556372 0.213403 0.077303 0.080321
H30   H     H_    0.443334 0.221453 0.920947 0.095603
H31   H     H_    0.056367 0.713387 0.077294 0.080399
H32   H     H_    0.943325 0.721467 0.920935 0.095665
H33   H     H_    0.800561 0.198017 0.958088 0.129618
H34   H     H_    0.173599 0.234051 0.049717 0.139741
H35   H     H_    0.300556 0.698008 0.958089 0.129562
H36   H     H_    0.673606 0.734038 0.049711 0.139666
H37   H     H_    0.820041 0.251756 0.082544 0.143160
H38   H     H_    0.157226 0.281615 0.925870 0.137327
H39   H     H_    0.320039 0.751755 0.082543 0.142710
H40   H     H_    0.657239 0.781584 0.925859 0.136859
H41   H     H_    0.103162 0.070494 0.060513 0.133568
H42   H     H_    0.884318 0.077081 0.938476 0.134622
H43   H     H_    0.603165 0.570494 0.060517 0.133189
H44   H     H_    0.384323 0.577086 0.938489 0.134761
H45   H     H_    0.598529 0.408373 0.084738 0.139663
H46   H     H_    0.424605 0.430635 0.915528 0.143973
H47   H     H_    0.098525 0.908373 0.084735 0.139798
H48   H     H_    0.924612 0.930638 0.915524 0.143934
H49   H     H_    0.582349 0.357518 0.961822 0.143448
H50   H     H_    0.440384 0.386986 0.040532 0.150742
H51   H     H_    0.082344 0.857517 0.961818 0.143155
H52   H     H_    0.940388 0.887006 0.040532 0.150609
H53   H     H_    0.588911 0.521071 0.937713 0.142892
H54   H     H_    0.394441 0.531316 0.064470 0.147475
H55   H     H_    0.088910 0.021069 0.937708 0.142911
H56   H     H_    0.894434 0.031330 0.064461 0.147943
H57   H     H_    0.557663 0.988550 0.553668 0.149679
H58   H     H_    0.550249 0.003321 0.422832 0.191946
H59   H     H_    0.049904 0.487896 0.557144 0.137674
H60   H     H_    0.044475 0.505944 0.428187 0.186587
O1    O     O_R   0.784290 0.290360 0.830540 -0.500591
O2    O     O_R   0.215710 0.290360 0.169460 -0.512835
O3    O     O_R   0.284290 0.790360 0.830540 -0.501882
O4    O     O_R   0.715710 0.790360 0.169460 -0.514276
O5    O     O_R   0.554690 0.080440 0.673480 -0.525792
O6    O     O_R   0.445310 0.080440 0.326520 -0.483470
O7    O     O_R   0.054690 0.580440 0.673480 -0.530883
O8    O     O_R   0.945310 0.580440 0.326520 -0.473115
O9    O     O_R   0.543980 0.282110 0.666770 -0.521473
O10   O     O_R   0.456020 0.282110 0.333230 -0.514105
O11   O     O_R   0.043980 0.782110 0.666770 -0.533065
O12   O     O_R   0.956020 0.782110 0.333230 -0.514540
O13   O     O_R   0.679070 0.374030 0.674430 -0.433389
O14   O     O_R   0.320930 0.374030 0.325570 -0.494198
O15   O     O_R   0.179070 0.874030 0.674430 -0.414500
O16   O     O_R   0.820930 0.874030 0.325570 -0.486714
O17   O     O_3   0.665360 0.165350 0.749070 -0.323506
O18   O     O_3   0.334640 0.165350 0.250930 -0.288305
O19   O     O_3   0.165360 0.665350 0.749070 -0.326795
O20   O     O_3   0.834640 0.665350 0.250930 -0.290322
O21   O     O_R   0.762610 0.041070 0.825230 -0.509150
O22   O     O_R   0.237390 0.041070 0.174770 -0.516995
O23   O     O_R   0.262610 0.541070 0.825230 -0.509682
O24   O     O_R   0.737390 0.541070 0.174770 -0.517851
O25   O     O_R   0.667390 0.924160 0.829970 -0.533779
O26   O     O_R   0.332610 0.924160 0.170030 -0.523654
O27   O     O_R   0.167390 0.424160 0.829970 -0.529544
O28   O     O_R   0.832610 0.424160 0.170030 -0.522839
O29   O     O_R   0.553980 0.081420 0.821780 -0.491144
O30   O     O_R   0.446020 0.081420 0.178220 -0.494136
O31   O     O_R   0.053980 0.581420 0.821780 -0.492404
O32   O     O_R   0.946020 0.581420 0.178220 -0.493474
O33   O     O_R   0.543210 0.283170 0.826740 -0.532473
O34   O     O_R   0.456790 0.283170 0.173260 -0.531549
O35   O     O_R   0.043210 0.783170 0.826740 -0.531301
O36   O     O_R   0.956790 0.783170 0.173260 -0.531682
O37   O     O_R   0.678350 0.375000 0.822720 -0.472267
O38   O     O_R   0.321650 0.375000 0.177280 -0.486288
O39   O     O_R   0.178350 0.875000 0.822720 -0.471684
O40   O     O_R   0.821650 0.875000 0.177280 -0.486726
O41   O     O_R   0.785060 0.289300 0.670580 -0.505734
O42   O     O_R   0.214940 0.289300 0.329420 -0.502050
O43   O     O_R   0.285060 0.789300 0.670580 -0.513562
O44   O     O_R   0.714940 0.789300 0.329420 -0.503158
O45   O     O_R   0.763330 0.040090 0.676940 -0.495506
O46   O     O_R   0.236670 0.040090 0.323060 -0.513084
O47   O     O_R   0.263330 0.540090 0.676940 -0.496603
O48   O     O_R   0.736670 0.540090 0.323060 -0.515887
O49   O     O_R   0.668160 0.923110 0.670000 -0.510249
O50   O     O_R   0.331840 0.923110 0.330000 -0.460497
O51   O     O_R   0.168160 0.423110 0.670000 -0.484094
O52   O     O_R   0.831840 0.423110 0.330000 -0.452627
C113  C     C_3   0.405851 0.038529 0.034671 -0.340438
H61   H     H_    0.387463 0.009831 0.980767 0.137387
H62   H     H_    0.410722 0.956070 0.067317 0.176138
H63   H     H_    0.365393 0.100618 0.056440 0.126165
C114  C     C_3   0.582875 0.025206 0.963765 -0.347587
H64   H     H_    0.596912 0.988364 0.017004 0.132777
H65   H     H_    0.575318 0.947532 0.927242 0.171607
H66   H     H_    0.627530 0.083552 0.946566 0.130254
C115  C     C_3   0.905822 0.538570 0.034669 -0.340584
H67   H     H_    0.887420 0.509903 0.980764 0.137555
H68   H     H_    0.910690 0.456095 0.067302 0.176171
H69   H     H_    0.865376 0.600661 0.056456 0.125665
C116  C     C_3   0.082840 0.525170 0.963758 -0.348100
H70   H     H_    0.096866 0.488311 0.016997 0.133130
H71   H     H_    0.075276 0.447506 0.927230 0.170886
H72   H     H_    0.127506 0.583501 0.946569 0.129528
S1    S     S_3+6 0.934341 0.255229 0.420383 -0.028160
O53   O     O_2   0.892712 0.196472 0.360883 -0.256011
O54   O     O_2   0.996357 0.318909 0.387984 -0.311592
O55   O     O_3   0.965031 0.148332 0.475560 -0.584390
H73   H     H_    0.001379 0.189271 0.505615 0.323742
S2    S     S_3+6 0.221430 0.183808 0.603708 0.005377
O56   O     O_2   0.264911 0.097120 0.561286 -0.317737
O57   O     O_2   0.271791 0.265059 0.643928 -0.269150
O58   O     O_3   0.173398 0.107734 0.663292 -0.475328
H74   H     H_    0.150812 0.170545 0.692868 0.341378
S3    S     S_3+6 0.436711 0.750246 0.429130 -0.035149
O59   O     O_2   0.401178 0.700298 0.363239 -0.268489
O60   O     O_2   0.506252 0.805140 0.408343 -0.328983
O61   O     O_3   0.452904 0.637396 0.486553 -0.607028
H75   H     H_    0.500016 0.605375 0.473487 0.353237
S4    S     S_3+6 0.749477 0.684793 0.603912 0.012891
O62   O     O_2   0.787998 0.590824 0.562033 -0.310610
O63   O     O_2   0.802715 0.778824 0.626930 -0.277353
O64   O     O_3   0.715978 0.620158 0.676929 -0.467060
H76   H     H_    0.696694 0.687670 0.705259 0.351499

loop_
_geom_bond_atom_site_label_1
_geom_bond_atom_site_label_2
_ccdc_geom_bond_type
Cr8   O28   S    
S3    O61   S    
C39   C51   S    
C4    C109  S    
Cr12  O36   S    
C115  H68   S    
C67   C83   A    
O58   H74   S    
C46   O34   A    
Cr3   O23   S    
C16   H36   S    
C45   O33   A    
C41   C42   A    
C14   C18   A    
S2    O57   D    
C36   C95   S    
C34   C93   S    
C53   C69   A    
C33   C94   S    
C49   C50   S    
C75   H19   S    
C48   O32   A    
C9    C25   S    
S3    O59   D    
C63   C79   S    
C35   C96   S    
C42   H58   S    
Cr7   O31   S    
C46   C102  S    
C78   H26   S    
C116  H70   S    
C81   C97   S    
Cr4   O44   S    
C33   C42   A    
C18   H38   S    
C13   C29   A    
C56   C60   A    
C27   H55   S    
C55   C90   S    
C55   C59   A    
Cr8   O8    S    
C1    C112  S    
C48   O36   A    
S1    O53   D    
C25   H53   S    
C66   C82   A    
C26   H50   S    
C3    C110  S    
C57   C73   S    
O64   H76   S    
C20   H40   S    
C91   O51   A    
C65   C69   A    
C37   C49   S    
C90   O50   A    
C102  C105  D    
S3    O60   D    
C114  H64   S    
C21   H45   S    
C89   O49   A    
C57   C61   A    
C100  O44   A    
C10   C30   A    
C16   C32   A    
C64   C84   A    
Cr2   O46   S    
C21   C25   S    
C50   H6    S    
C67   H11   S    
C8    C24   S    
C15   C19   A    
C65   C81   A    
Cr12  O40   S    
C61   C77   S    
C56   C72   A    
Cr3   O19   S    
C45   O29   A    
C107  C108  S    
Cr2   O18   S    
C49   H5    S    
Cr9   O37   S    
C103  C108  D    
C2    O22   A    
Cr1   O17   S    
C8    C12   A    
C30   C86   S    
C1    O21   A    
C44   H60   S    
C29   C85   S    
C105  C113  S    
C68   C72   A    
C17   H37   S    
C22   H44   S    
C19   C111  A    
C10   C26   S    
C26   H54   S    
C74   H18   S    
C11   C31   A    
C20   C112  A    
C115  H67   S    
C12   C32   A    
C3    O27   A    
C65   H9    S    
C64   C80   S    
C48   C104  S    
C41   H57   S    
Cr6   O18   S    
C34   C41   A    
Cr9   O33   S    
Cr10  O10   S    
Cr5   O17   S    
C91   O47   A    
Cr11  O11   S    
C34   C38   A    
Cr4   O20   S    
C107  C115  S    
C11   C27   S    
C7    C11   A    
C74   S2    S    
C69   H13   S    
C49   H3    S    
C75   S3    S    
C2    C111  S    
C2    O26   A    
C47   C103  S    
C98   O14   A    
C1    O25   A    
C51   C52   S    
C52   H8    S    
C66   H10   S    
C36   C40   A    
C31   C87   S    
C53   C57   A    
C27   H51   S    
C39   C40   A    
S1    O54   D    
C85   O37   A    
C52   H2    S    
C28   H52   S    
C4    O24   A    
C73   H17   S    
C7    C111  A    
C87   O3    A    
C46   O30   A    
C51   H7    S    
C14   C30   A    
C51   H1    S    
C47   O35   A    
C92   O52   A    
C33   C37   A    
Cr2   O22   S    
C47   O31   A    
C114  H65   S    
C68   C84   A    
C100  O16   A    
C6    C110  A    
C80   H24   S    
C24   H42   S    
C43   C44   A    
C94   O6    A    
C15   H35   S    
C37   C38   A    
C97   O13   A    
Cr2   O42   S    
Cr3   O3    S    
Cr6   O50   S    
Cr6   O26   S    
Cr1   O41   S    
C54   C70   A    
S4    O64   S    
Cr5   O49   S    
C16   C20   A    
C43   H59   S    
Cr1   O1    S    
O55   H73   S    
Cr12  O12   S    
C53   C92   S    
C88   O40   A    
Cr7   O19   S    
Cr6   O30   S    
C22   H46   S    
Cr10  O14   S    
C68   H12   S    
C15   C31   A    
C35   C44   A    
C28   H56   S    
C102  H29   S    
Cr9   O13   S    
Cr4   O24   S    
Cr5   O5    S    
C58   C62   A    
Cr3   O43   S    
C76   H20   S    
Cr7   O51   S    
C56   C89   S    
S4    O63   D    
Cr4   O48   S    
C86   O2    A    
C116  H71   S    
C23   C27   S    
C113  H62   S    
Cr10  O38   S    
C24   H48   S    
Cr8   O20   S    
C82   C98   S    
C73   S1    S    
C59   C63   A    
C115  H69   S    
C32   C88   S    
C50   H4    S    
C72   H16   S    
C77   H25   S    
Cr9   O9    S    
C59   C75   S    
C45   C101  S    
C58   C74   S    
C24   C28   S    
C79   H27   S    
C54   C58   A    
Cr11  O15   S    
C101  C106  D    
C80   H28   S    
Cr11  O35   S    
C19   H39   S    
C116  H72   S    
C95   O11   A    
C95   O7    A    
Cr10  O34   S    
C85   O1    A    
C94   O10   A    
Cr3   O47   S    
C62   C78   S    
C93   O9    A    
C76   C80   S    
Cr7   O7    S    
C14   H34   S    
C17   C109  A    
C6    C10   A    
S1    O55   S    
C71   H15   S    
Cr1   O45   S    
C38   C50   S    
C93   O5    A    
Cr8   O32   S    
C86   O38   A    
C105  C106  S    
Cr12  O16   S    
Cr7   O27   S    
Cr11  O39   S    
C21   H43   S    
C13   C17   A    
C108  C116  S    
C60   C64   A    
C114  H66   S    
C3    O23   A    
C96   O8    A    
C76   S4    S    
S2    O56   D    
C87   O39   A    
C74   C78   S    
Cr9   O17   S    
C54   C91   S    
C40   C52   S    
Cr8   O52   S    
C9    C29   A    
Cr6   O6    S    
C70   H14   S    
Cr10  O18   S    
C66   C70   A    
C77   H21   S    
C5    C109  A    
C101  H30   S    
C99   O15   A    
C7    C23   S    
C4    O28   A    
Cr5   O25   S    
Cr4   O4    S    
C8    C112  A    
C60   C76   S    
C79   H23   S    
C67   C71   A    
C104  H31   S    
C62   C82   A    
Cr5   O29   S    
C99   O43   A    
C97   O41   A    
C84   C100  S    
O61   H75   S    
C78   H22   S    
C88   O4    A    
S2    O58   S    
C25   H49   S    
C103  H32   S    
C96   O12   A    
C35   C39   A    
C5    C21   S    
S4    O62   D    
C12   C28   S    
C73   C77   S    
C18   C110  A    
Cr12  O20   S    
C22   C26   S    
C113  H63   S    
C63   C83   A    
C23   H41   S    
C92   O48   A    
Cr2   O2    S    
C90   O46   A    
C36   C43   A    
C61   C81   A    
C5    C9    A    
C106  C114  S    
Cr11  O19   S    
C89   O45   A    
C13   H33   S    
C113  H61   S    
C75   C79   S    
C104  C107  D    
C55   C71   A    
Cr1   O21   S    
C83   C99   S    
C98   O42   A    
C23   H47   S    
C6    C22   S    
