data_mof_unit_39768.cif
_audit_creation_date              2012-12-11T15:09:37-0500
_audit_creation_method            fapswitch 2.2
_symmetry_space_group_name_H-M    P1
_symmetry_Int_Tables_number       1
_space_group_crystal_system       triclinic
_cell_length_a                    21.037928
_cell_length_b                    7.127252
_cell_length_c                    14.065356
_cell_angle_alpha                 89.996297
_cell_angle_beta                  98.856071
_cell_angle_gamma                 90.002611
_cell_volume                      2083.85319871

loop_
_atom_site_label
_atom_site_type_symbol
_atom_type_description
_atom_site_fract_x
_atom_site_fract_y
_atom_site_fract_z
_atom_type_partial_charge
O1    O     O_R   0.447130 0.507140 0.597350 -0.535830
O2    O     O_R   0.552870 0.007140 0.402650 -0.535698
O3    O     O_R   0.578910 0.181280 0.586990 -0.540294
O4    O     O_R   0.421090 0.681280 0.413010 -0.540352
C1    C     C_R   0.604614 0.344441 0.607015 0.792418
C2    C     C_R   0.395387 0.844441 0.392983 0.792303
O5    O     O_R   0.449230 0.177860 0.608640 -0.539617
O6    O     O_R   0.550770 0.677860 0.391360 -0.539683
O7    O     O_R   0.422260 0.000770 0.424450 -0.532273
O8    O     O_R   0.577740 0.500770 0.575550 -0.532324
C3    C     C_R   0.433312 0.345570 0.634467 0.803677
C4    C     C_R   0.566690 0.845586 0.365534 0.803688
O9    O     O_3   0.491310 0.336980 0.439550 -0.374698
O10   O     O_3   0.508690 0.836980 0.560450 -0.374768
V1    V     V_3+5 0.501610 0.064760 0.511210 1.619032
V2    V     V_3+5 0.498390 0.564760 0.488790 1.618844
C5    C     C_R   0.614340 0.837023 0.118387 -0.175941
C6    C     C_R   0.385662 0.337276 0.881625 -0.176041
C7    C     C_R   0.606049 0.848618 0.288354 -0.189499
C8    C     C_R   0.393964 0.348562 0.711657 -0.189372
C9    C     C_R   0.915910 0.903684 0.297500 -0.269920
C10   C     C_R   0.084093 0.403729 0.702503 -0.269923
C11   C     C_R   0.879366 0.929156 0.370543 0.516778
C12   C     C_R   0.120638 0.429252 0.629463 0.516806
C13   C     C_R   0.812774 0.909915 0.350772 -0.182658
C14   C     C_R   0.187231 0.410058 0.649239 -0.182640
C15   C     C_R   0.781030 0.853523 0.258926 -0.015579
C16   C     C_R   0.218976 0.353660 0.741086 -0.015619
C17   C     C_R   0.817922 0.848287 0.181646 -0.022460
C18   C     C_R   0.182083 0.348403 0.818366 -0.022491
C19   C     C_R   0.712451 0.827897 0.239373 0.067736
C20   C     C_R   0.287555 0.328050 0.760638 0.067687
C21   C     C_R   0.681961 0.807578 0.142615 -0.043687
C22   C     C_R   0.318045 0.307823 0.857401 -0.043736
C23   C     C_R   0.720854 0.769186 0.072072 -0.137057
C24   C     C_R   0.279161 0.269459 0.927959 -0.136864
C25   C     C_R   0.784532 0.828396 0.086270 0.340095
C26   C     C_R   0.215474 0.328571 0.913748 0.340081
C27   C     C_R   0.672695 0.817017 0.311898 -0.156622
C28   C     C_R   0.327309 0.317120 0.688113 -0.156604
C29   C     C_R   0.576406 0.864343 0.191690 0.365904
C30   C     C_R   0.423620 0.364182 0.808319 0.365225
C31   C     C_R   0.886416 0.868127 0.203255 -0.140940
C32   C     C_R   0.113587 0.368177 0.796751 -0.140915
H1    H     H_    0.967691 0.920260 0.312950 0.179707
H2    H     H_    0.032312 0.420281 0.687051 0.179701
H3    H     H_    0.786668 0.951316 0.407423 0.164535
H4    H     H_    0.213338 0.451515 0.592594 0.164520
C33   C     C_1   0.165943 0.857816 0.169997 -0.028757
C34   C     C_1   0.834056 0.357813 0.830005 -0.028812
C35   C     C_1   0.218336 0.855685 0.221208 0.096077
C36   C     C_1   0.781663 0.355680 0.778793 0.095979
C37   C     C_1   0.280221 0.853815 0.280830 0.083350
C38   C     C_1   0.719779 0.353810 0.719170 0.083375
C39   C     C_1   0.332795 0.851137 0.331550 -0.073283
C40   C     C_1   0.667206 0.351135 0.668449 -0.073174
O11   O     O_R   0.922300 0.202240 0.924350 -0.490012
O12   O     O_R   0.077700 0.702240 0.075650 -0.489970
O13   O     O_R   0.050780 0.535130 0.891350 -0.517712
O14   O     O_R   0.949220 0.035130 0.108650 -0.517729
C41   C     C_R   0.070735 0.369236 0.869843 0.812539
C42   C     C_R   0.929266 0.869224 0.130159 0.812519
O15   O     O_R   0.921100 0.531560 0.912990 -0.537237
O16   O     O_R   0.078900 0.031560 0.087010 -0.537255
O17   O     O_R   0.947120 0.708470 0.097370 -0.552155
O18   O     O_R   0.052880 0.208470 0.902630 -0.552149
C43   C     C_R   0.896322 0.363670 0.892354 0.751212
C44   C     C_R   0.103677 0.863670 0.107647 0.751238
O19   O     O_3   0.008710 0.375800 0.060400 -0.366635
O20   O     O_3   0.991290 0.875800 0.939600 -0.366632
V3    V     V_3+5 0.998380 0.648080 0.988790 1.686934
V4    V     V_3+5 0.001620 0.148080 0.011210 1.686881
S1    S     S_3+6 0.491168 0.902617 0.166007 0.011365
O21   O     O_2   0.457750 0.737890 0.203251 -0.342328
O22   O     O_2   0.474824 0.075234 0.218593 -0.307179
O23   O     O_3   0.462119 0.931486 0.048611 -0.496059
H5    H     H_    0.446005 0.806480 0.025376 0.366516
S2    S     S_3+6 0.508895 0.401764 0.833995 0.011849
O24   O     O_2   0.542160 0.237057 0.796470 -0.342098
O25   O     O_2   0.525362 0.574570 0.781651 -0.307146
O26   O     O_3   0.538034 0.429742 0.951410 -0.495154
H6    H     H_    0.553101 0.303842 0.974754 0.366322
C45   C     C_1   0.697308 0.664654 0.985310 0.412550
N1    N     N_1   0.678809 0.580556 0.916187 -0.236210
C46   C     C_1   0.302734 0.165016 0.014747 0.412058
N2    N     N_1   0.321257 0.080992 0.083890 -0.236966
C47   C     C_1   0.585890 0.864247 0.018827 0.475652
N3    N     N_1   0.563804 0.886681 0.939027 -0.184846
C48   C     C_1   0.414066 0.365128 0.981158 0.474648
N4    N     N_1   0.436110 0.388075 0.060934 -0.184884
C49   C     C_1   0.696892 0.741441 0.406592 0.292270
N5    N     N_1   0.715814 0.680522 0.481950 -0.323363
C50   C     C_1   0.303096 0.241607 0.593414 0.292184
N6    N     N_1   0.284163 0.180735 0.518053 -0.323272
S3    S     S_3+6 0.916400 0.993536 0.486997 0.046887
O27   O     O_2   0.890326 0.180303 0.512262 -0.313569
O28   O     O_2   0.900857 0.848771 0.557643 -0.306044
O29   O     O_3   0.996676 0.008614 0.492309 -0.453328
H7    H     H_    0.012844 0.052713 0.558407 0.387013
S4    S     S_3+6 0.083606 0.493690 0.513014 0.046875
O30   O     O_2   0.109508 0.680809 0.487918 -0.313571
O31   O     O_2   0.099346 0.349352 0.442301 -0.306011
O32   O     O_3   0.003307 0.507988 0.507601 -0.453374
H8    H     H_    0.987145 0.552534 0.441583 0.386993
S5    S     S_3+6 0.804038 0.968981 0.991137 -0.033427
O33   O     O_2   0.829480 0.153097 0.032725 -0.345012
O34   O     O_2   0.853270 0.872569 0.941525 -0.364469
O35   O     O_3   0.738161 0.014135 0.909936 -0.496614
H9    H     H_    0.744078 0.943276 0.851350 0.354084
S6    S     S_3+6 0.195947 0.469136 0.008862 -0.033481
O36   O     O_2   0.170491 0.653220 0.967246 -0.345038
O37   O     O_2   0.146719 0.372674 0.058473 -0.364422
O38   O     O_3   0.261809 0.514375 0.090074 -0.496706
H10   H     H_    0.255952 0.443223 0.148603 0.354080

loop_
_geom_bond_atom_site_label_1
_geom_bond_atom_site_label_2
_ccdc_geom_bond_type
C47   N3    T    
C50   N6    T    
C33   C44   S    
C15   C17   A    
S1    O21   D    
C1    C40   S    
S3    O27   D    
O1    C3    A    
C28   C50   S    
O2    C4    A    
C2    O7    A    
O26   H6    S    
S3    O29   S    
C46   N2    T    
O5    C3    A    
S5    O34   D    
C11   S3    S    
O16   C44   A    
C23   C25   A    
C12   C14   A    
C6    C30   A    
C8    C28   A    
S2    O25   D    
O12   V3    S    
O14   V4    S    
O35   H9    S    
C18   C26   A    
O14   C42   A    
O19   V3    S    
S6    O36   D    
S6    O37   D    
C9    C31   A    
C41   O18   A    
C10   C32   A    
O18   V4    S    
C33   C35   T    
C34   C36   T    
C19   C21   A    
O20   V3    S    
C26   S6    S    
C34   C43   S    
C13   H3    S    
C9    H1    S    
C14   H4    S    
O5    V1    S    
O6    V2    S    
C5    C47   S    
C17   C31   A    
S1    O22   D    
C18   C32   A    
C5    C21   A    
O11   C43   A    
C2    C39   S    
C27   C49   S    
C36   C38   S    
O15   C43   A    
C37   C39   T    
S5    O35   S    
C38   C40   T    
C3    C8    S    
O13   C41   A    
C15   C19   A    
C16   C20   A    
O23   H5    S    
O4    C2    A    
C49   N5    T    
C23   C45   S    
S2    O24   D    
O17   V3    S    
S4    O32   S    
C35   C37   S    
C20   C22   A    
O4    V2    S    
O19   V4    S    
C25   S5    S    
C45   N1    T    
O6    C4    A    
S4    O31   D    
O1    V2    S    
O2    V1    S    
C6    C22   A    
S6    O38   S    
C7    C27   A    
O12   C44   A    
C10   H2    S    
O15   V3    S    
C30   S2    S    
C9    C11   A    
C32   C41   S    
S1    O23   S    
C10   C12   A    
C20   C28   A    
O3    V1    S    
O38   H10   S    
C42   O17   A    
C12   S4    S    
C6    C48   S    
O3    C1    A    
C8    C30   A    
S3    O28   D    
C24   C46   S    
C13   C15   A    
S5    O33   D    
C14   C16   A    
C24   C26   A    
O7    V1    S    
C1    O8    A    
O8    V2    S    
S2    O26   S    
C4    C7    S    
C16   C18   A    
S4    O30   D    
C21   C23   A    
C19   C27   A    
C22   C24   A    
O16   V4    S    
O11   V4    S    
C5    C29   A    
C29   S1    S    
C11   C13   A    
O29   H7    S    
O9    V2    S    
C17   C25   A    
O32   H8    S    
O10   V1    S    
O20   V4    S    
C48   N4    T    
C7    C29   A    
C31   C42   S    
O13   V3    S    
