data_mof_unit_53415.cif
_audit_creation_date              2012-12-11T19:02:43-0500
_audit_creation_method            fapswitch 2.2
_symmetry_space_group_name_H-M    P1
_symmetry_Int_Tables_number       1
_space_group_crystal_system       triclinic
_cell_length_a                    8.366223
_cell_length_b                    15.068243
_cell_length_c                    18.678479
_cell_angle_alpha                 98.443077
_cell_angle_beta                  92.409449
_cell_angle_gamma                 99.18211
_cell_volume                      2294.14996649

loop_
_atom_site_label
_atom_site_type_symbol
_atom_type_description
_atom_site_fract_x
_atom_site_fract_y
_atom_site_fract_z
_atom_type_partial_charge
Ba1   Ba    Ba6+2 0.852310 0.543020 0.467250 1.736770
Ba2   Ba    Ba6+2 0.337530 0.457060 0.532760 1.829484
C1    C     C_3   0.641771 0.866740 0.283724 -0.267164
C2    C     C_3   0.428477 0.534773 0.246006 -0.033139
C3    C     C_2   0.366236 0.550248 0.172639 -0.118044
C4    C     C_3   0.124396 0.739596 0.275348 0.291484
C5    C     C_2   0.206163 0.523910 0.152006 -0.047439
C6    C     C_2   0.094777 0.490395 0.207863 -0.086733
C7    C     C_1   0.152131 0.488286 0.275581 0.068788
C8    C     C_R   0.039695 0.515439 0.932908 0.531555
C9    C     C_R   0.145555 0.524022 0.075025 0.467483
C10   C     C_R   0.091270 0.531410 0.801880 -0.065123
C11   C     C_R   0.035947 0.522193 0.728452 0.042203
C12   C     C_3   0.637779 0.776412 0.311115 0.287174
C13   C     C_R   0.772162 0.450777 0.755771 0.014457
C14   C     C_R   0.820526 0.469282 0.830118 -0.005222
C15   C     C_R   0.983411 0.505081 0.854210 -0.053937
C16   C     C_3   0.096478 0.766940 0.201264 -0.296738
C17   C     C_R   0.880093 0.477258 0.705521 -0.279350
C18   C     C_R   0.347072 0.823379 0.447057 -0.009253
C19   C     C_R   0.582138 0.795289 0.516793 -0.007858
C20   C     C_R   0.770431 0.228742 0.493920 -0.160712
C21   C     C_R   0.865825 0.170132 0.516734 0.096107
C22   C     C_R   0.810640 0.076091 0.504139 0.047026
C23   C     C_3   0.462968 0.345631 0.309941 0.294175
C24   C     C_R   0.645652 0.041462 0.483469 0.101402
C25   C     C_R   0.550989 0.101475 0.456242 0.044677
C26   C     C_R   0.573208 0.949194 0.487060 -0.049794
C27   C     C_R   0.417108 0.915655 0.450573 -0.070260
C28   C     C_3   0.249419 0.732694 0.620842 0.239698
C29   C     C_R   0.332181 0.975481 0.419571 -0.087826
C30   C     C_R   0.396443 0.066486 0.423420 -0.028762
C31   C     C_R   0.641684 0.891028 0.529990 0.328652
C32   C     C_R   0.437524 0.763225 0.473764 -0.354211
C33   C     C_R   0.615870 0.195150 0.461459 0.058287
C34   C     C_3   0.472313 0.336892 0.227638 -0.267678
C35   C     C_3   0.278431 0.835722 0.638393 -0.198344
C36   C     C_3   0.889826 0.244391 0.289972 0.677772
C37   C     C_3   0.855049 0.233632 0.205848 0.661516
C38   C     C_3   0.828238 0.730603 0.695996 0.344419
C39   C     C_3   0.823272 0.783943 0.773399 0.585856
C40   C     C_3   0.031480 0.259382 0.707700 0.351716
C41   C     C_3   0.017284 0.233153 0.782517 -0.214283
C42   C     C_3   0.585160 0.255281 0.789111 0.771503
C43   C     C_3   0.533346 0.153784 0.755162 0.638644
C44   C     C_2   0.297910 0.533210 0.299298 -0.277750
H1    H     H_    0.733242 0.785184 0.356053 0.082192
H2    H     H_    0.344734 0.363564 0.325111 0.037777
H3    H     H_    0.463091 0.265719 0.201876 0.247310
H4    H     H_    0.369845 0.362486 0.202803 0.129871
H5    H     H_    0.588234 0.375545 0.213783 0.073677
H6    H     H_    0.134272 0.716539 0.158583 0.082304
H7    H     H_    0.139881 0.313728 0.711472 0.052059
H8    H     H_    0.920960 0.286780 0.693078 -0.018781
H9    H     H_    0.925663 0.170941 0.781407 0.164129
H10   H     H_    0.136603 0.221999 0.802628 0.196896
H11   H     H_    0.706345 0.276274 0.769671 -0.354031
H12   H     H_    0.337290 0.866434 0.594147 0.072874
H13   H     H_    0.637678 0.118661 0.764264 -0.018133
H14   H     H_    0.050995 0.671459 0.275636 0.086928
H15   H     H_    0.452985 0.572872 0.134758 0.127706
H16   H     H_    0.968689 0.463020 0.191279 0.126488
H17   H     H_    0.214843 0.563957 0.818517 0.168692
H18   H     H_    0.730192 0.456880 0.868676 0.162954
H19   H     H_    0.386437 0.691689 0.467397 0.070832
H20   H     H_    0.213068 0.953674 0.392516 0.124307
H21   H     H_    0.255252 0.736122 0.283764 -0.045224
H22   H     H_    0.817431 0.300950 0.501884 0.020954
H23   H     H_    0.162882 0.860631 0.645881 0.184464
H24   H     H_    0.894079 0.031428 0.515927 0.106572
H25   H     H_    0.965878 0.769504 0.190443 0.167418
H26   H     H_    0.168844 0.834984 0.199302 0.137768
H27   H     H_    0.158016 0.711952 0.574075 0.045737
H28   H     H_    0.354475 0.858492 0.689517 0.214686
H29   H     H_    0.018969 0.018289 0.278799 0.347824
H30   H     H_    0.459167 0.081916 0.206654 0.383709
H31   H     H_    0.000771 0.317350 0.082080 0.365096
H32   H     H_    0.928581 0.766407 0.669323 0.045362
H33   H     H_    0.762863 0.889078 0.264068 0.171189
H34   H     H_    0.787308 0.268805 0.318117 -0.114754
H35   H     H_    0.107263 0.881368 0.929795 0.389906
H36   H     H_    0.459075 0.788225 0.787617 0.373614
H37   H     H_    0.560559 0.401638 0.334958 0.035313
H38   H     H_    0.547308 0.859860 0.238739 0.137191
H39   H     H_    0.984115 0.290332 0.820000 0.100074
H40   H     H_    0.502577 0.332684 0.978275 0.385615
H41   H     H_    0.338950 0.041253 0.589893 0.366069
H42   H     H_    0.211812 0.095424 0.881726 0.393761
H43   H     H_    0.316748 0.577154 0.351442 0.057371
H44   H     H_    0.839002 0.468008 0.648785 0.062022
H45   H     H_    0.818237 0.298173 0.195019 -0.225101
H46   H     H_    0.635840 0.947498 0.717377 0.384149
H47   H     H_    0.323771 0.108572 0.398973 0.144054
H48   H     H_    0.364316 0.709674 0.606654 0.037879
H49   H     H_    0.850558 0.660885 0.699604 -0.060475
H50   H     H_    0.799357 0.852796 0.769305 0.067717
H51   H     H_    0.516628 0.757201 0.331536 -0.050195
H52   H     H_    0.617421 0.918867 0.328375 0.107966
N1    N     N_R   0.200029 0.538666 0.954491 -0.193413
N2    N     N_R   0.251497 0.542896 0.023740 -0.204551
N3    N     N_R   0.984873 0.501873 0.053715 -0.223026
N4    N     N_R   0.933311 0.497839 0.984367 -0.178046
O1    O     O_2   0.865610 0.448460 0.327050 -0.517215
O2    O     O_2   0.193021 0.174980 0.535381 -0.418124
O3    O     O_3   0.049900 0.183485 0.656725 -0.490360
O4    O     O_3   0.118280 0.449990 0.414480 -0.474780
O5    O     O_3   0.581860 0.610690 0.539360 -0.483285
O6    O     O_2   0.335900 0.275750 0.458650 -0.420435
O7    O     O_3   0.478315 0.262553 0.332644 -0.575697
O8    O     O_2   0.465190 0.474067 0.751579 -0.424830
O9    O     O_3   0.471875 0.308879 0.766434 -0.591155
O10   O     O_3   0.656850 0.615600 0.375450 -0.497863
O11   O     O_2   0.767428 0.556869 0.250068 -0.483704
O12   O     O_3   0.676988 0.725306 0.657891 -0.578904
O13   O     O_3   0.036419 0.303437 0.314192 -0.633069
O14   O     O_3   0.666839 0.710695 0.253985 -0.582659
O15   O     O_2   0.853800 0.724280 0.541390 -0.470889
O16   O     O_3   0.080770 0.663020 0.412300 -0.495110
O17   O     O_2   0.017758 0.825322 0.465180 -0.460165
O18   O     O_2   0.026357 0.155343 0.384664 -0.358443
O19   O     O_2   0.752210 0.087792 0.333850 -0.351232
O20   O     O_3   0.992560 0.068595 0.254208 -0.423518
O21   O     O_2   0.609272 0.168492 0.103916 -0.227591
O22   O     O_2   0.743731 0.054160 0.150544 -0.169518
O23   O     O_3   0.075974 0.803929 0.328668 -0.605926
O24   O     O_3   0.547076 0.129616 0.231804 -0.510789
O25   O     O_2   0.168551 0.204467 0.201483 -0.244547
O26   O     O_2   0.993985 0.142570 0.092378 -0.144936
O27   O     O_3   0.089959 0.315379 0.118109 -0.553155
O28   O     O_2   0.058186 0.715429 0.840830 -0.300282
O29   O     O_2   0.142459 0.851992 0.785981 -0.279523
O30   O     O_3   0.996981 0.869576 0.905235 -0.420007
O31   O     O_2   0.690054 0.637395 0.831242 -0.282693
O32   O     O_2   0.664353 0.786406 0.896795 -0.184429
O33   O     O_3   0.483336 0.725509 0.778458 -0.462002
O34   O     O_2   0.324100 0.551570 0.673000 -0.410059
O35   O     O_2   0.605336 0.177972 0.912806 -0.185280
O36   O     O_2   0.781479 0.320690 0.911910 -0.345542
O37   O     O_3   0.475042 0.324939 0.925380 -0.460692
O38   O     O_2   0.376654 0.204819 0.646517 -0.280303
O39   O     O_2   0.656157 0.188176 0.631134 -0.395463
O40   O     O_3   0.439148 0.040272 0.619723 -0.489897
O41   O     O_2   0.217676 0.065944 0.733743 -0.222156
O42   O     O_2   0.408169 0.001041 0.804571 -0.254700
O43   O     O_3   0.297693 0.140847 0.866608 -0.454383
O44   O     O_2   0.912532 0.905650 0.616468 -0.313139
O45   O     O_3   0.071440 0.550090 0.585530 -0.525867
O46   O     O_2   0.778662 0.037173 0.635501 -0.250238
O47   O     O_3   0.640426 0.894757 0.679512 -0.564999
O48   O     O_3   0.532860 0.384470 0.624560 -0.437079
O49   O     O_3   0.195343 0.697234 0.682284 -0.570710
O50   O     O_3   0.607860 0.389390 0.460650 -0.506859
O51   O     O_3   0.108950 0.337050 0.587710 -0.520895
P1    P     P_3+3 0.033450 0.421470 0.337090 0.984436
P2    P     P_3+3 0.679030 0.710970 0.562060 1.083752
P3    P     P_3+3 0.132098 0.779621 0.414117 0.940877
P4    P     P_3+3 0.156260 0.578610 0.662920 1.058338
P5    P     P_3+3 0.054508 0.217867 0.571075 1.133950
P6    P     P_3+3 0.628446 0.603505 0.281332 0.960951
P7    P     P_3+3 0.508510 0.278585 0.427191 1.027348
P8    P     P_3+3 0.563240 0.399942 0.722376 1.103790
S1    S     S_3+6 0.913494 0.136912 0.317648 -0.052933
S2    S     S_3+6 0.686793 0.143693 0.170648 0.026886
S3    S     S_3+6 0.030645 0.220714 0.153937 0.035303
S4    S     S_3+6 0.012785 0.803476 0.825959 -0.003430
S5    S     S_3+6 0.664497 0.731582 0.822759 0.030583
S6    S     S_3+6 0.615726 0.268576 0.887091 -0.021536
S7    S     S_3+6 0.501809 0.148092 0.660107 -0.044390
S8    S     S_3+6 0.359127 0.088464 0.789367 0.022439
S9    S     S_3+6 0.750836 0.935839 0.615471 -0.067243

loop_
_geom_bond_atom_site_label_1
_geom_bond_atom_site_label_2
_ccdc_geom_bond_type
O38   S7    D    
C29   H20   S    
C35   H28   S    
O50   P7    S    
Ba2   O48   S    
O17   P3    D    
O10   P6    S    
C35   H23   S    
H29   O20   S    
H30   O24   S    
O9    P8    S    
C1    H33   S    
C16   H6    S    
C5    C6    S    
C44   H43   S    
C2    C44   S    
C13   C17   A    
C20   C33   A    
C24   C25   A    
O25   S3    D    
O49   P4    S    
C26   C27   A    
C22   C24   A    
Ba1   O10   S    
C36   C37   S    
C2    P6    S    
C19   C31   A    
C8    C15   S    
C13   C14   A    
C21   P5    S    
Ba2   O5    S    
O26   S3    D    
Ba1   O50   S    
Ba1   Ba2   S    
C37   H45   S    
O51   P5    S    
Ba1   P2    S    
C33   P7    S    
C38   O12   S    
C29   C30   A    
C14   C15   A    
O4    P1    S    
C39   S4    S    
C10   C15   A    
O15   P2    D    
O46   S9    D    
C21   C22   A    
O32   S5    D    
O16   P3    S    
Ba1   O1    S    
C35   H12   S    
O23   P3    S    
C23   O7    S    
Ba1   O4    S    
O22   S2    D    
C18   C32   A    
C30   H47   S    
C7    C44   D    
C16   H26   S    
C8    N1    A    
C31   S9    S    
C32   H19   S    
C11   P4    S    
C40   O3    S    
O8    P8    D    
C18   C27   A    
Ba2   O50   S    
C4    C16   S    
O29   S4    D    
O43   S8    S    
C11   C17   A    
C22   H24   S    
O47   S9    S    
C41   H39   S    
N3    N4    A    
C4    H14   S    
C8    N4    A    
O30   S4    S    
O41   S8    D    
O14   P6    S    
C3    C5    D    
C10   H17   S    
C6    C7    D    
H35   O30   S    
H31   O27   S    
C19   C32   A    
C25   C33   A    
Ba2   O45   S    
O42   S8    D    
Ba2   O4    S    
Ba2   O34   S    
C28   C35   S    
O36   S6    D    
C42   S6    S    
C5    C9    S    
O21   S2    D    
O1    P1    D    
O3    P5    S    
C42   H11   S    
H42   O43   S    
C39   S5    S    
C19   P2    S    
C3    H15   S    
C9    N3    A    
Ba1   O15   S    
O11   P6    D    
O37   S6    S    
C34   H5    S    
C23   H2    S    
C20   H22   S    
C1    C12   S    
H40   O37   S    
Ba1   O5    S    
O34   P4    D    
C41   H9    S    
C4    H21   S    
C26   C31   A    
Ba2   O51   S    
O44   S9    D    
O13   P1    S    
C38   H32   S    
Ba1   O45   S    
C40   C41   S    
C38   H49   S    
C37   S2    S    
O24   S2    S    
O45   P4    S    
O12   P2    S    
O35   S6    D    
C34   H4    S    
C42   C43   S    
C12   H51   S    
C16   H25   S    
C28   H27   S    
O48   P8    S    
C43   H13   S    
O39   S7    D    
C18   P3    S    
C25   C30   A    
C27   C29   A    
C13   P8    S    
C4    O23   S    
O2    P5    D    
C2    C3    S    
C43   S8    S    
C7    P1    S    
C12   H1    S    
O6    P7    D    
O18   S1    D    
C24   C26   A    
O20   S1    S    
N1    N2    A    
H36   O33   S    
C40   H7    S    
C17   H44   S    
O31   S5    D    
C40   H8    S    
C36   O13   S    
O28   S4    D    
C28   O49   S    
C36   H34   S    
Ba2   P4    S    
C12   O14   S    
O19   S1    D    
Ba2   O6    S    
O33   S5    S    
Ba1   O16   S    
H41   O40   S    
Ba1   P1    S    
C43   S7    S    
O5    P2    S    
C23   C34   S    
O40   S7    S    
C39   H50   S    
C42   O9    S    
H46   O47   S    
C41   H10   S    
C36   S1    S    
C10   C11   A    
O27   S3    S    
C28   H48   S    
C1    H38   S    
C23   H37   S    
C20   C21   A    
C9    N2    A    
C38   C39   S    
C14   H18   S    
C37   S3    S    
O7    P7    S    
C1    H52   S    
C34   H3    S    
C6    H16   S    
