data_mof_unit_37606.cif
_audit_creation_date              2012-12-11T15:56:00-0500
_audit_creation_method            fapswitch 2.2
_symmetry_space_group_name_H-M    P1
_symmetry_Int_Tables_number       1
_space_group_crystal_system       triclinic
_cell_length_a                    11.04971
_cell_length_b                    11.071608
_cell_length_c                    18.747085
_cell_angle_alpha                 90.443429
_cell_angle_beta                  90.830295
_cell_angle_gamma                 59.054811
_cell_volume                      1966.82020396

loop_
_atom_site_label
_atom_site_type_symbol
_atom_type_description
_atom_site_fract_x
_atom_site_fract_y
_atom_site_fract_z
_atom_type_partial_charge
C1    C     C_R   0.361967 0.764375 0.395025 0.530808
C2    C     C_R   0.241313 0.446591 0.197220 -0.155028
C3    C     C_R   0.242973 0.452836 0.271384 -0.042562
C4    C     C_R   0.388874 0.358621 0.385788 0.544154
C5    C     C_R   0.855277 0.765647 0.369867 -0.128751
C6    C     C_R   0.868882 0.642457 0.342856 -0.099689
C7    C     C_R   0.996707 0.536209 0.313832 -0.098124
C8    C     C_R   0.109286 0.559173 0.306739 0.032936
C9    C     C_R   0.370203 0.357121 0.308253 -0.004097
C10   C     C_R   0.867438 0.329854 0.183683 0.027299
C11   C     C_R   0.951549 0.221547 0.231893 0.002640
C12   C     C_R   0.619495 0.150040 0.159365 0.046437
C13   C     C_R   0.922491 0.236993 0.303768 -0.020796
C14   C     C_R   0.724639 0.469767 0.280260 -0.165188
C15   C     C_R   0.756595 0.457015 0.208401 -0.166254
C16   C     C_R   0.772366 0.381259 0.402087 0.545905
C17   C     C_3   0.983325 0.073160 0.232381 -0.251051
C18   C     C_3   0.949308 0.091833 0.310781 -0.291025
C19   C     C_R   0.808445 0.360438 0.328298 0.022400
C20   C     C_R   0.367367 0.835508 0.173319 0.014156
C21   C     C_R   0.395703 0.912728 0.223221 0.016073
C22   C     C_R   0.396804 0.889424 0.295590 -0.002530
C23   C     C_R   0.359294 0.343806 0.159330 -0.013489
C24   C     C_R   0.377253 0.688290 0.269668 -0.180914
C25   C     C_R   0.369843 0.714690 0.196466 -0.174601
C26   C     C_3   0.327051 0.067373 0.233676 -0.256936
C27   C     C_3   0.329091 0.041880 0.313226 -0.291948
C28   C     C_R   0.342225 0.772286 0.603298 0.546507
C29   C     C_R   0.367195 0.789150 0.319529 0.002599
C30   C     C_R   0.297740 0.305327 0.807648 0.019652
C31   C     C_R   0.404276 0.192073 0.770067 0.041789
C32   C     C_R   0.415297 0.195791 0.697830 0.024249
C33   C     C_R   0.197102 0.419543 0.693915 -0.170295
C34   C     C_R   0.493458 0.271789 0.269136 -0.160976
C35   C     C_R   0.186309 0.414563 0.768397 -0.168371
C36   C     C_3   0.560037 0.112404 0.782802 -0.276313
C37   C     C_3   0.573832 0.114618 0.702970 -0.269408
C38   C     C_R   0.320846 0.317022 0.659695 0.016734
C39   C     C_R   0.809940 0.331610 0.836820 0.013497
C40   C     C_R   0.368911 0.348618 0.594660 0.549467
C41   C     C_R   0.746725 0.463506 0.803605 0.019542
C42   C     C_R   0.738860 0.472823 0.730621 0.044385
C43   C     C_R   0.830804 0.224348 0.719795 -0.173223
C44   C     C_R   0.840630 0.213173 0.794481 -0.165978
C45   C     C_R   0.490722 0.262876 0.195178 -0.038249
C46   C     C_3   0.773101 0.583768 0.809168 -0.271553
C47   C     C_3   0.768900 0.589388 0.728668 -0.267477
C48   C     C_R   0.789268 0.354025 0.687273 0.021999
C49   C     C_R   0.288203 0.871582 0.820149 0.020860
C50   C     C_R   0.179682 0.872175 0.781604 0.024769
C51   C     C_R   0.187565 0.857344 0.708551 0.023540
C52   C     C_R   0.760745 0.378122 0.611287 0.546105
C53   C     C_R   0.395119 0.875716 0.707762 -0.159759
C54   C     C_R   0.390124 0.885254 0.782021 -0.149190
C55   C     C_3   0.118523 0.780811 0.790403 -0.285270
C56   C     C_R   0.085630 0.692321 0.325713 -0.045442
C57   C     C_3   0.128250 0.762587 0.710240 -0.264751
C58   C     C_R   0.303150 0.844979 0.671414 0.019093
C59   C     C_R   0.912424 0.314757 0.111542 0.538520
C60   C     C_R   0.329747 0.297038 0.091106 0.534793
C61   C     C_R   0.310825 0.896200 0.104005 0.537988
C62   C     C_R   0.880012 0.310613 0.905687 0.545503
C63   C     C_R   0.292729 0.285847 0.883804 0.543329
C64   C     C_R   0.842020 0.929662 0.083365 -0.109237
C65   C     C_R   0.271885 0.900794 0.896087 0.544952
C66   C     C_R   0.798518 0.901292 0.147424 -0.124828
C67   C     C_R   0.965308 0.789493 0.362285 -0.107431
C68   C     C_R   0.687752 0.010584 0.185254 -0.105411
C69   C     C_R   0.666957 0.177873 0.095889 -0.061038
C70   C     C_R   0.775826 0.067512 0.057518 -0.080240
Cr1   Cr    Cr6+3 0.601740 0.606840 0.505840 1.004666
Cr2   Cr    Cr6+3 0.291500 0.601560 0.495070 1.014261
Cr3   Cr    Cr6+3 0.606780 0.291630 0.499130 0.998333
Cr4   Cr    Cr6+3 0.062440 0.063060 0.008240 0.983958
Cr5   Cr    Cr6+3 0.062950 0.375000 0.998920 0.998425
Cr6   Cr    Cr6+3 0.374550 0.061770 0.992470 1.016994
H1    H     H_    0.593636 0.207268 0.296462 0.139169
H2    H     H_    0.042205 0.025572 0.345691 0.136898
H3    H     H_    0.384295 0.592619 0.287631 0.133903
H4    H     H_    0.808366 0.088685 0.007422 0.134150
H5    H     H_    0.357887 0.646465 0.159000 0.126294
H6    H     H_    0.220504 0.128146 0.209112 0.145741
H7    H     H_    0.399395 0.101932 0.218281 0.161586
H8    H     H_    0.401642 0.065472 0.343623 0.148906
H9    H     H_    0.222560 0.086639 0.336328 0.140212
H10   H     H_    0.116680 0.510113 0.664776 0.121554
H11   H     H_    0.096461 0.499100 0.795160 0.117415
H12   H     H_    0.758075 0.844154 0.394631 0.111589
H13   H     H_    0.600811 0.004931 0.804238 0.129326
H14   H     H_    0.596785 0.175689 0.812048 0.141380
H15   H     H_    0.621731 0.176795 0.687060 0.174039
H16   H     H_    0.955800 0.884442 0.383550 0.110583
H17   H     H_    0.621162 0.008546 0.678156 0.123646
H18   H     H_    0.885846 0.109719 0.818157 0.139331
H19   H     H_    0.878113 0.556089 0.830505 0.164512
H20   H     H_    0.683588 0.678143 0.834171 0.126611
H21   H     H_    0.680142 0.687885 0.706772 0.142828
H22   H     H_    0.872982 0.556299 0.704817 0.136939
H23   H     H_    0.777702 0.633990 0.344523 0.157746
H24   H     H_    0.477205 0.880680 0.679670 0.118145
H25   H     H_    0.467938 0.900189 0.809498 0.133919
H26   H     H_    0.008082 0.840647 0.809602 0.130206
H27   H     H_    0.926910 0.844875 0.053713 0.106459
H28   H     H_    0.207689 0.653941 0.693931 0.167779
H29   H     H_    0.023658 0.809483 0.682995 0.129819
H30   H     H_    0.653527 0.985499 0.233863 0.106232
H31   H     H_    0.156850 0.724214 0.311326 0.137528
H32   H     H_    0.616028 0.283961 0.074824 0.093931
H33   H     H_    0.142007 0.514333 0.169677 0.143067
H34   H     H_    0.006845 0.439182 0.294776 0.124744
H35   H     H_    0.861346 0.131326 0.687802 0.124077
H36   H     H_    0.189966 0.682165 0.820164 0.139083
H37   H     H_    0.849836 0.794515 0.167537 0.121888
H38   H     H_    0.636923 0.566657 0.299320 0.139561
H39   H     H_    0.693971 0.544074 0.172406 0.131307
H40   H     H_    0.095668 0.995455 0.222334 0.163434
H41   H     H_    0.907898 0.058911 0.199529 0.173214
H42   H     H_    0.851469 0.091326 0.323042 0.143106
O1    O     O_R   0.748670 0.497520 0.427970 -0.534301
O2    O     O_R   0.417470 0.174910 0.067830 -0.502437
O3    O     O_R   0.375160 0.946380 0.070880 -0.493019
O4    O     O_R   0.476470 0.723930 0.429450 -0.503314
O5    O     O_R   0.160500 0.919670 0.926690 -0.521869
O6    O     O_R   0.933140 0.190380 0.936050 -0.525014
O7    O     O_R   0.909010 0.403210 0.925030 -0.524842
O8    O     O_R   0.179590 0.361290 0.918480 -0.509638
O9    O     O_R   0.391360 0.170840 0.907510 -0.525231
O10   O     O_R   0.350950 0.942600 0.922260 -0.514789
O11   O     O_3   0.166650 0.166610 0.999880 -0.246111
O12   O     O_R   0.300170 0.471020 0.567120 -0.506012
O13   O     O_R   0.264730 0.744140 0.416740 -0.538103
O14   O     O_R   0.309440 0.472410 0.418220 -0.491085
O15   O     O_R   0.501630 0.260530 0.414310 -0.536324
O16   O     O_R   0.727920 0.305730 0.428950 -0.506937
O17   O     O_R   0.738670 0.496020 0.588600 -0.514594
O18   O     O_R   0.467190 0.722540 0.578350 -0.504067
O19   O     O_R   0.254720 0.742640 0.577370 -0.522380
O20   O     O_R   0.491630 0.259030 0.574940 -0.523948
O21   O     O_R   0.718640 0.304340 0.577850 -0.510520
O22   O     O_3   0.500010 0.500010 0.500020 -0.253393
O23   O     O_R   0.186620 0.923750 0.087000 -0.524933
O24   O     O_R   0.957350 0.194160 0.084660 -0.508407
O25   O     O_R   0.935120 0.407280 0.085350 -0.522174
O26   O     O_R   0.203800 0.365060 0.067090 -0.510303

loop_
_geom_bond_atom_site_label_1
_geom_bond_atom_site_label_2
_ccdc_geom_bond_type
C36   H13   S    
C64   H27   S    
Cr4   O6    S    
C12   C69   A    
C2    H33   S    
C26   H7    S    
C23   C45   A    
C66   H37   S    
C55   H36   S    
C41   C42   A    
Cr1   O4    S    
C57   H29   S    
C5    C67   A    
C16   O16   A    
C8    C56   A    
C62   O6    A    
C7    C8    A    
C39   C41   A    
C53   C54   A    
C12   C68   A    
C55   H26   S    
C26   C27   S    
Cr6   O2    S    
C47   H22   S    
C49   C65   S    
C13   C18   S    
Cr6   O3    S    
C36   C37   S    
C22   C29   A    
C10   C15   A    
C57   H28   S    
C34   H1    S    
Cr1   O17   S    
C30   C31   A    
Cr3   O20   S    
C49   C54   A    
C52   O21   A    
C61   O3    A    
C20   C61   S    
C27   H9    S    
C1    O4    A    
C54   H25   S    
C24   C29   A    
C5    H12   S    
C35   H11   S    
C46   H19   S    
C59   O24   A    
C40   O20   A    
C41   C46   S    
C51   C57   S    
C64   C70   A    
C43   C48   A    
C18   H42   S    
C31   C36   S    
C17   H41   S    
Cr4   O5    S    
Cr4   O24   S    
C59   O25   A    
C26   H6    S    
C38   C40   S    
C21   C22   A    
C25   H5    S    
C68   H30   S    
C69   H32   S    
Cr2   O14   S    
C53   H24   S    
C23   C60   S    
C66   C68   A    
C13   C19   A    
C70   H4    S    
C65   O10   A    
C24   C25   A    
C4    O14   A    
C3    C8    S    
Cr5   O26   S    
C16   O1    A    
Cr1   O18   S    
C51   C58   A    
C37   H15   S    
Cr3   O21   S    
C50   C51   A    
C14   H38   S    
Cr5   O7    S    
C64   C66   A    
C43   C44   A    
C56   H31   S    
C3    C9    A    
Cr6   O11   S    
C24   H3    S    
C31   C32   A    
Cr2   O22   S    
C18   H2    S    
C1    C29   S    
C17   C18   S    
C37   H17   S    
C34   C45   A    
C42   C48   A    
C32   C37   S    
Cr3   O16   S    
C39   C44   A    
Cr5   O25   S    
C30   C35   A    
C61   O23   A    
Cr2   O19   S    
Cr4   O23   S    
Cr3   O15   S    
C32   C38   A    
C22   C27   S    
C55   C57   S    
C9    C34   A    
Cr6   O10   S    
C15   H39   S    
Cr2   O13   S    
C36   H14   S    
C52   O17   A    
C39   C62   S    
C40   O12   A    
C46   C47   S    
C11   C17   S    
Cr1   O22   S    
C28   O18   A    
C14   C19   A    
C28   O19   A    
C50   C55   S    
C12   C45   S    
C1    O13   A    
C62   O7    A    
C53   C58   A    
Cr2   O12   S    
C6    C7    A    
Cr3   O22   S    
C28   C58   S    
C56   C67   A    
C33   C38   A    
C47   H21   S    
C7    H34   S    
Cr1   O1    S    
Cr5   O8    S    
C6    H23   S    
C2    C3    A    
C60   O26   A    
C27   H8    S    
C11   C13   A    
C5    C6    A    
C16   C19   S    
C21   C26   S    
C67   H16   S    
C33   C35   A    
C60   O2    A    
C42   C47   S    
C65   O5    A    
C69   C70   A    
C63   O8    A    
C44   H18   S    
C10   C11   A    
C43   H35   S    
C48   C52   S    
C46   H20   S    
C20   C21   A    
C49   C50   A    
C20   C25   A    
Cr4   O11   S    
C2    C23   A    
Cr6   O9    S    
C14   C15   A    
C4    C9    S    
C30   C63   S    
C10   C59   S    
C33   H10   S    
C63   O9    A    
Cr5   O11   S    
C17   H40   S    
C4    O15   A    
