data_mof_unit_16440.cif
_audit_creation_date              2013-03-05T15:47:26-0500
_audit_creation_method            fapswitch 2.2
_symmetry_space_group_name_H-M    P1
_symmetry_Int_Tables_number       1
_space_group_crystal_system       triclinic
_cell_length_a                    17.789526
_cell_length_b                    19.382596
_cell_length_c                    11.848814
_cell_angle_alpha                 89.975801
_cell_angle_beta                  80.107993
_cell_angle_gamma                 90.040286
_cell_volume                      4024.81598407

loop_
_atom_site_label
_atom_site_type_symbol
_atom_site_description
_atom_site_fract_x
_atom_site_fract_y
_atom_site_fract_z
_atom_type_partial_charge
O1    O     O_R   0.430030 0.075530 0.417420 -0.602280
O2    O     O_R   0.569970 0.924470 0.582580 -0.618096
O3    O     O_R   0.569970 0.075530 0.582580 -0.571966
O4    O     O_R   0.430030 0.924470 0.417420 -0.619030
O5    O     O_R   0.930030 0.575530 0.417420 -0.600686
O6    O     O_R   0.069970 0.424470 0.582580 -0.618726
O7    O     O_R   0.069970 0.575530 0.582580 -0.599318
O8    O     O_R   0.930030 0.424470 0.417420 -0.617472
O9    O     O_R   0.416860 0.075510 0.614610 -0.527845
O10   O     O_R   0.583140 0.924490 0.385390 -0.518714
O11   O     O_R   0.583140 0.075510 0.385390 -0.539647
O12   O     O_R   0.416860 0.924490 0.614610 -0.520540
O13   O     O_R   0.916860 0.575510 0.614610 -0.525207
O14   O     O_R   0.083140 0.424490 0.385390 -0.518129
O15   O     O_R   0.083140 0.575510 0.385390 -0.526025
O16   O     O_R   0.916860 0.424490 0.614610 -0.519239
C1    C     C_R   0.400399 0.099672 0.518856 0.852737
C2    C     C_R   0.599369 0.900020 0.481125 0.866689
C3    C     C_R   0.599581 0.099530 0.481105 0.904476
C4    C     C_R   0.400703 0.899833 0.518926 0.861277
C5    C     C_R   0.900500 0.599823 0.518881 0.859688
C6    C     C_R   0.099273 0.399836 0.481138 0.862067
C7    C     C_R   0.099569 0.599676 0.481119 0.858158
C8    C     C_R   0.900902 0.399580 0.518996 0.859389
C9    C     C_R   0.409208 0.000266 0.857532 0.551339
C10   C     C_R   0.590849 0.002358 0.142508 0.551629
C11   C     C_R   0.909155 0.501300 0.857504 0.551125
C12   C     C_R   0.090829 0.501747 0.142504 0.551072
Cu1   Cu    Cu3+1 0.507800 0.000000 0.383250 1.052680
Cu2   Cu    Cu3+1 0.492200 0.000000 0.616750 1.063316
Cu3   Cu    Cu3+1 0.007800 0.500000 0.383250 1.053765
Cu4   Cu    Cu3+1 0.992200 0.500000 0.616750 1.053998
C13   C     C_R   0.400151 0.002575 0.976858 -0.282031
C14   C     C_R   0.600049 0.005566 0.023020 -0.285918
C15   C     C_R   0.900016 0.503657 0.976959 -0.282366
C16   C     C_R   0.099937 0.504277 0.023079 -0.283170
C17   C     C_R   0.544144 0.003455 0.845399 0.311806
C18   C     C_R   0.456119 0.001522 0.153955 0.309969
C19   C     C_R   0.043943 0.502044 0.845921 0.311083
C20   C     C_R   0.956014 0.501776 0.154126 0.310406
C21   C     C_R   0.649841 0.159534 0.474739 -0.158242
C22   C     C_R   0.349346 0.839782 0.526577 -0.147469
C23   C     C_R   0.349871 0.159768 0.525719 -0.204968
C24   C     C_R   0.650610 0.840145 0.473835 -0.148717
C25   C     C_R   0.150007 0.659806 0.474301 -0.208169
C26   C     C_R   0.849632 0.339245 0.527091 -0.152107
C27   C     C_R   0.849917 0.660029 0.525952 -0.207731
C28   C     C_R   0.150488 0.339739 0.473716 -0.148389
C29   C     C_R   0.308634 0.729630 0.613621 0.098008
C30   C     C_R   0.684210 0.272823 0.397648 0.106255
C31   C     C_R   0.689340 0.728955 0.389798 0.098881
C32   C     C_R   0.313413 0.271692 0.608000 0.101978
C33   C     C_R   0.809804 0.228474 0.613700 0.073684
C34   C     C_R   0.185515 0.772369 0.393728 0.102595
C35   C     C_R   0.191084 0.229656 0.386650 0.097774
C36   C     C_R   0.813279 0.771959 0.608663 0.101390
C37   C     C_R   0.355774 0.787733 0.606657 0.282750
C38   C     C_R   0.639269 0.214035 0.401684 0.318474
C39   C     C_R   0.642420 0.787063 0.396599 0.279290
C40   C     C_R   0.359216 0.213247 0.601685 0.346573
C41   C     C_R   0.856837 0.286858 0.606207 0.310494
C42   C     C_R   0.139834 0.713805 0.399747 0.346652
C43   C     C_R   0.143906 0.287674 0.393831 0.281304
C44   C     C_R   0.859066 0.713410 0.602264 0.347627
C45   C     C_R   0.293710 0.834802 0.455414 0.088379
C46   C     C_R   0.706730 0.162303 0.543104 0.112169
C47   C     C_R   0.707639 0.836363 0.542698 0.091903
C48   C     C_R   0.292723 0.163789 0.457180 0.111349
C49   C     C_R   0.793183 0.334510 0.457590 0.088210
C50   C     C_R   0.207731 0.663432 0.541814 0.111764
C51   C     C_R   0.206018 0.334677 0.545042 0.089920
C52   C     C_R   0.792498 0.663970 0.457926 0.110615
C53   C     C_R   0.244021 0.777565 0.462597 -0.012977
C54   C     C_R   0.753332 0.222117 0.542049 0.019317
C55   C     C_R   0.755787 0.777985 0.538140 -0.013012
C56   C     C_R   0.246300 0.223112 0.460174 0.055963
C57   C     C_R   0.743246 0.277308 0.465664 0.003903
C58   C     C_R   0.253596 0.723073 0.539840 0.056759
C59   C     C_R   0.255474 0.277296 0.538186 -0.012838
C60   C     C_R   0.745703 0.723145 0.461568 0.055616
N1    N     N_R   0.519530 1.000000 0.207810 -0.259112
N2    N     N_R   0.480470 0.000000 0.792190 -0.261631
N3    N     N_R   0.019530 0.500000 0.207810 -0.258939
N4    N     N_R   0.980470 0.500000 0.792190 -0.258878
H1    H     H_    0.342438 0.004522 0.023843 0.194769
H2    H     H_    0.657707 0.009373 0.976313 0.191249
H3    H     H_    0.842341 0.506213 0.024018 0.195767
H4    H     H_    0.157597 0.507282 0.976058 0.195536
C61   C     C_R   0.536530 0.003575 0.966605 -0.019617
C62   C     C_R   0.463867 0.002266 0.032888 -0.015588
C63   C     C_R   0.036281 0.502823 0.966933 -0.017376
C64   C     C_R   0.963672 0.502591 0.033113 -0.017277
N5    N     N_R   0.657684 0.002763 0.194165 0.132039
O17   O     O_R   0.695040 0.060341 0.196228 -0.328217
O18   O     O_R   0.694071 0.945064 0.200162 -0.322214
N6    N     N_R   0.342320 0.999719 0.805998 0.131521
O19   O     O_R   0.305128 0.057142 0.801623 -0.326981
O20   O     O_R   0.305733 0.941854 0.802492 -0.321810
N7    N     N_R   0.157691 0.502118 0.194098 0.131660
O21   O     O_R   0.194844 0.559766 0.196663 -0.326606
O22   O     O_R   0.194296 0.444482 0.199513 -0.321612
N8    N     N_R   0.842296 0.501269 0.805902 0.131783
O23   O     O_R   0.805796 0.443479 0.801028 -0.322115
O24   O     O_R   0.805033 0.558767 0.802821 -0.326029
N9    N     N_3   0.380632 0.005594 0.217992 -0.599917
H5    H     H_    0.381312 0.999179 0.303721 0.259912
H6    H     H_    0.348892 0.964706 0.193781 0.205377
N10   N     N_3   0.619375 0.010501 0.780492 -0.575240
H7    H     H_    0.619198 0.000963 0.695359 0.276531
H8    H     H_    0.653473 0.971666 0.805638 0.192240
N11   N     N_3   0.880499 0.505524 0.218246 -0.599583
H9    H     H_    0.881121 0.499074 0.303988 0.259960
H10   H     H_    0.849037 0.464455 0.193894 0.205589
N12   N     N_3   0.119407 0.506101 0.781797 -0.600154
H11   H     H_    0.118742 0.499143 0.696179 0.259591
H12   H     H_    0.151214 0.465447 0.806615 0.205160
N13   N     N_3   0.717722 0.101715 0.607838 -0.582819
H13   H     H_    0.773217 0.083064 0.583099 0.254938
H14   H     H_    0.705271 0.112975 0.695216 0.295348
N14   N     N_3   0.290370 0.886373 0.371009 -0.620591
H15   H     H_    0.339023 0.880171 0.308958 0.262300
H16   H     H_    0.286477 0.935103 0.409155 0.215225
N15   N     N_3   0.280723 0.106960 0.385448 -0.522751
H17   H     H_    0.279906 0.060563 0.430592 0.206391
H18   H     H_    0.324328 0.108325 0.314583 0.286612
N16   N     N_3   0.715160 0.891359 0.619841 -0.621923
H19   H     H_    0.668529 0.887932 0.686026 0.251781
H20   H     H_    0.717565 0.938736 0.577128 0.228385
N17   N     N_3   0.221056 0.605821 0.611145 -0.523420
H21   H     H_    0.220972 0.559861 0.565085 0.206031
H22   H     H_    0.178441 0.606583 0.683282 0.285529
N18   N     N_3   0.789334 0.386310 0.373624 -0.621525
H23   H     H_    0.837566 0.380250 0.310761 0.261381
H24   H     H_    0.785897 0.435001 0.411888 0.215621
N19   N     N_3   0.781012 0.607385 0.385360 -0.521886
H25   H     H_    0.780039 0.560840 0.430132 0.207041
H26   H     H_    0.824869 0.608980 0.314814 0.285973
N20   N     N_3   0.209798 0.386576 0.628729 -0.620444
H27   H     H_    0.161239 0.380769 0.691098 0.261224
H28   H     H_    0.213835 0.435160 0.590013 0.215848
N21   N     N_R   0.581148 0.210864 0.331291 0.164727
O25   O     O_R   0.599928 0.213085 0.220273 -0.280736
O26   O     O_R   0.509524 0.213606 0.377873 -0.338303
N22   N     N_R   0.413597 0.791385 0.677426 0.131198
O27   O     O_R   0.394792 0.801125 0.787267 -0.315749
O28   O     O_R   0.485089 0.784001 0.632221 -0.343184
N23   N     N_R   0.417044 0.209538 0.672553 0.166956
O29   O     O_R   0.397888 0.210201 0.783577 -0.280145
O30   O     O_R   0.488779 0.212686 0.626595 -0.336248
N24   N     N_R   0.583607 0.790160 0.327561 0.129542
O31   O     O_R   0.601130 0.800588 0.217721 -0.315424
O32   O     O_R   0.512550 0.781705 0.374333 -0.346041
N25   N     N_R   0.081362 0.710432 0.329999 0.166068
O33   O     O_R   0.099696 0.711809 0.218888 -0.281137
O34   O     O_R   0.009866 0.713525 0.377175 -0.338195
N26   N     N_R   0.915438 0.290485 0.675576 0.130579
O35   O     O_R   0.897641 0.300998 0.785341 -0.314664
O36   O     O_R   0.986634 0.282676 0.629091 -0.347813
N27   N     N_R   0.916877 0.709588 0.673138 0.166306
O37   O     O_R   0.897724 0.709895 0.784167 -0.279376
O38   O     O_R   0.988616 0.712729 0.627181 -0.336685
N28   N     N_R   0.085929 0.291269 0.323344 0.130638
O39   O     O_R   0.104513 0.301517 0.213582 -0.316184
O40   O     O_R   0.014505 0.283590 0.368800 -0.346055
N29   N     N_3   0.820828 0.175775 0.694342 -0.588608
H29   H     H_    0.809778 0.196372 0.777026 0.284207
H30   H     H_    0.877416 0.158790 0.676635 0.265854
N30   N     N_3   0.167077 0.826651 0.320521 -0.492596
H31   H     H_    0.154103 0.872005 0.367524 0.263553
H32   H     H_    0.211182 0.833160 0.250753 0.273620
N31   N     N_3   0.181784 0.177216 0.304462 -0.507587
H33   H     H_    0.193893 0.198336 0.222172 0.276255
H34   H     H_    0.125296 0.159793 0.320024 0.264415
N32   N     N_3   0.829466 0.824733 0.686147 -0.493171
H35   H     H_    0.846312 0.870178 0.641320 0.265310
H36   H     H_    0.782660 0.831782 0.751606 0.268586
N33   N     N_3   0.317534 0.677256 0.696164 -0.508366
H37   H     H_    0.305065 0.698407 0.778359 0.275960
H38   H     H_    0.374020 0.659898 0.681213 0.266147
N34   N     N_3   0.664442 0.328064 0.327315 -0.491330
H39   H     H_    0.652157 0.372877 0.376038 0.263844
H40   H     H_    0.707390 0.335256 0.256197 0.273834
N35   N     N_3   0.678213 0.675475 0.310326 -0.506216
H41   H     H_    0.688941 0.695522 0.227214 0.275955
H42   H     H_    0.621668 0.658351 0.328768 0.264855
N36   N     N_3   0.330924 0.325320 0.683075 -0.491851
H43   H     H_    0.344873 0.370947 0.637153 0.265238
H44   H     H_    0.285976 0.331520 0.751701 0.272720

loop_
_geom_bond_atom_site_label_1
_geom_bond_atom_site_label_2
_geom_bond_distance
_ccdc_geom_bond_type
C43   N28   1.436022 S    
O6    Cu4   2.008002 S    
N31   H33   1.045014 S    
C30   C57   1.432041 A    
N16   H19   1.041121 S    
C7    C25   1.464058 S    
O16   Cu4   1.986950 S    
O2    C2    1.314540 A    
O13   Cu4   1.988320 S    
C49   C57   1.413122 A    
N23   O29   1.301092 A    
O10   Cu1   1.988320 S    
C56   C59   1.427049 A    
O14   Cu3   1.988320 S    
N13   H14   1.044062 S    
C51   C59   1.412266 A    
N12   H11   1.025529 S    
C29   C37   1.397555 A    
N15   H17   1.044963 S    
C29   C58   1.425855 A    
N17   H22   1.040624 S    
N31   H34   1.045783 S    
O11   C3    1.304887 A    
N29   H29   1.045045 S    
C11   N4    1.368132 A    
N23   O30   1.299940 A    
N11   H9    1.025505 S    
C19   N4    1.388827 A    
N28   O39   1.300825 A    
C31   N35   1.436999 S    
N35   H42   1.045808 S    
N15   H18   1.040985 S    
C50   C58   1.412321 A    
C24   C39   1.401327 A    
C46   C54   1.423593 A    
C25   C42   1.401057 A    
Cu3   N3    2.053225 S    
N10   H7    1.026142 S    
C22   C37   1.402785 A    
C14   H2    1.081032 S    
C19   C63   1.416899 A    
C13   H1    1.081266 S    
C31   C60   1.426262 A    
C26   C49   1.406804 A    
C32   C40   1.390398 A    
N32   H35   1.045159 S    
C15   H3    1.081482 S    
N26   O36   1.300397 A    
C10   C14   1.398361 A    
N25   O33   1.301071 A    
N27   O37   1.301087 A    
N14   H16   1.044461 S    
N18   H23   1.041849 S    
N33   H38   1.045786 S    
C54   C57   1.432121 A    
N6    O20   1.300601 A    
C22   C45   1.409457 A    
C53   C58   1.426616 A    
C36   C44   1.391838 A    
O3    C3    1.311914 A    
C40   N23   1.437156 S    
N25   O34   1.299837 A    
C32   C59   1.432297 A    
C55   C60   1.428872 A    
N28   O40   1.300454 A    
O4    Cu1   2.006333 S    
C15   C64   1.408688 A    
C10   N5    1.427709 S    
N30   H32   1.044913 S    
O16   C8    1.306889 A    
C36   C55   1.432343 A    
C12   N3    1.367985 A    
C20   N3    1.389053 A    
C32   N36   1.436771 S    
C48   N15   1.429699 S    
C35   N31   1.436922 S    
N34   H40   1.044880 S    
C20   N11   1.427113 S    
C29   N33   1.436924 S    
Cu4   N4    2.053226 S    
C26   C41   1.402472 A    
C30   C38   1.387585 A    
N19   H25   1.045015 S    
C17   N10   1.430834 S    
N22   O28   1.300436 A    
C45   C53   1.411399 A    
C63   C64   1.391156 A    
C23   C48   1.408148 A    
C28   C43   1.402417 A    
C34   C42   1.390216 A    
C11   C15   1.397449 A    
C46   N13   1.434126 S    
C50   N17   1.429850 S    
C16   H4    1.081435 S    
C35   C43   1.397533 A    
O5    C5    1.314073 A    
Cu2   N2    2.053226 S    
O3    Cu2   2.006332 S    
C30   N34   1.437039 S    
N35   H41   1.045081 S    
C1    C23   1.465536 S    
Cu1   N1    2.053225 S    
Cu1   Cu2   2.732733 S    
C2    C24   1.469611 S    
C34   C53   1.432133 A    
N9    H6    1.041361 S    
C4    C22   1.472283 S    
N7    O21   1.300827 A    
C19   N12   1.426538 S    
N6    O19   1.300767 A    
O12   C4    1.307139 A    
O1    Cu1   2.008000 S    
O13   C5    1.306345 A    
N11   H10   1.041742 S    
N5    O17   1.300861 A    
C51   N20   1.422437 S    
C20   C64   1.416916 A    
N8    O24   1.300798 A    
O11   Cu1   1.986947 S    
N20   H28   1.044321 S    
O9    Cu2   1.988320 S    
C35   C56   1.426178 A    
C23   C40   1.401515 A    
C16   C63   1.408739 A    
N18   H24   1.044446 S    
N30   H31   1.045358 S    
N7    O22   1.300568 A    
C6    C28   1.472651 S    
C10   N1    1.368600 A    
C18   N1    1.388492 A    
C9    N2    1.367233 A    
N24   O32   1.300307 A    
C17   N2    1.389365 A    
C47   N16   1.425604 S    
C47   C55   1.415068 A    
C28   C51   1.409490 A    
C33   C41   1.400569 A    
C41   N26   1.435845 S    
C27   C44   1.402051 A    
N14   H15   1.041975 S    
C12   N7    1.427714 S    
N17   H21   1.045041 S    
C39   N24   1.435795 S    
O9    C1    1.306226 A    
N19   H26   1.041258 S    
N26   O35   1.300817 A    
N16   H20   1.045627 S    
O7    Cu4   2.006332 S    
C37   N22   1.436161 S    
O12   Cu2   1.986950 S    
C25   C50   1.407680 A    
O8    Cu3   2.006333 S    
C13   C62   1.408578 A    
Cu3   Cu4   2.732733 S    
C34   N30   1.436817 S    
N22   O27   1.300815 A    
C52   N19   1.429955 S    
C21   C38   1.398575 A    
C33   N29   1.434802 S    
N12   H12   1.041711 S    
O15   Cu3   1.986947 S    
C21   C46   1.401750 A    
C48   C56   1.413037 A    
N9    H5    1.025446 S    
C18   C62   1.417408 A    
C11   N8    1.427700 S    
O1    C1    1.313210 A    
C42   N25   1.436863 S    
C17   C61   1.419162 A    
O2    Cu2   2.008002 S    
C8    C26   1.475466 S    
O14   C6    1.307448 A    
C18   N9    1.426664 S    
N21   O26   1.299780 A    
N27   O38   1.300004 A    
C61   C62   1.392673 A    
C14   C61   1.408775 A    
C52   C60   1.414008 A    
N13   H13   1.045182 S    
C38   N21   1.436920 S    
N5    O18   1.300572 A    
O10   C2    1.306636 A    
C49   N18   1.423105 S    
O7    C7    1.312724 A    
C44   N27   1.437062 S    
O15   C7    1.305975 A    
O8    C8    1.317071 A    
C45   N14   1.422155 S    
N10   H8    1.042031 S    
N8    O23   1.300597 A    
N32   H36   1.044946 S    
C27   C52   1.407760 A    
N20   H27   1.041864 S    
O4    C4    1.315422 A    
C31   C39   1.396429 A    
C12   C16   1.397198 A    
C9    N6    1.427753 S    
N29   H30   1.045822 S    
N33   H37   1.045002 S    
C36   N32   1.436432 S    
N24   O31   1.300834 A    
C24   C47   1.408854 A    
C5    C27   1.467704 S    
N36   H43   1.045306 S    
N21   O25   1.301056 A    
N36   H44   1.044913 S    
N34   H39   1.045381 S    
C3    C21   1.460486 S    
C9    C13   1.395991 A    
O5    Cu3   2.008000 S    
C33   C54   1.427635 A    
O6    C6    1.315294 A    
