data_mof_unit_46521.cif
_audit_creation_date              2012-12-10T18:57:12-0500
_audit_creation_method            fapswitch 2.2
_symmetry_space_group_name_H-M    P1
_symmetry_Int_Tables_number       1
_space_group_crystal_system       triclinic
_cell_length_a                    10.626329
_cell_length_b                    9.850538
_cell_length_c                    10.671119
_cell_angle_alpha                 89.953998
_cell_angle_beta                  90.033959
_cell_angle_gamma                 90.110222
_cell_volume                      1116.99737407

loop_
_atom_site_label
_atom_site_type_symbol
_atom_type_description
_atom_site_fract_x
_atom_site_fract_y
_atom_site_fract_z
_atom_type_partial_charge
C1    C     C_R   0.260391 0.499759 0.496183 0.847019
C2    C     C_R   0.739675 0.500127 0.496999 0.846710
C3    C     C_R   0.571139 0.071980 0.584294 -0.058111
C4    C     C_R   0.428978 0.071845 0.415596 -0.059510
C5    C     C_R   0.571167 0.928152 0.584273 -0.066457
C6    C     C_R   0.428995 0.928013 0.415584 -0.062862
C7    C     C_R   0.495784 0.500092 0.259940 0.846001
C8    C     C_R   0.496069 0.500025 0.740106 0.886923
C9    C     C_R   0.479003 0.623560 0.063843 0.137195
C10   C     C_R   0.479185 0.623530 0.936071 0.144666
C11   C     C_R   0.475335 0.500980 0.128643 -0.105261
C12   C     C_R   0.475766 0.500881 0.871465 -0.114697
C13   C     C_R   0.447581 0.380066 0.064955 -0.182248
C14   C     C_R   0.447875 0.380000 0.935318 -0.193742
C15   C     C_3   0.572035 0.737561 0.929046 -0.489943
C16   C     C_3   0.571876 0.737518 0.071117 -0.457645
C17   C     C_R   0.065709 0.437754 0.386636 -0.032777
C18   C     C_R   0.933758 0.434515 0.388782 -0.050294
C19   C     C_R   0.872069 0.501058 0.488254 -0.118885
C20   C     C_R   0.128021 0.499270 0.488719 -0.112271
C21   C     C_R   0.936203 0.568400 0.583211 -0.165152
C22   C     C_R   0.064583 0.565830 0.584420 -0.158867
H1    H     H_    0.434510 0.284853 0.114197 0.165142
H2    H     H_    0.435072 0.284724 0.886250 0.172232
H3    H     H_    0.663613 0.706295 0.887791 0.202017
H4    H     H_    0.529983 0.830795 0.112108 0.207224
H5    H     H_    0.530184 0.830875 0.887920 0.206100
H6    H     H_    0.663344 0.706091 0.112668 0.208795
H7    H     H_    0.886471 0.619099 0.658544 0.142252
H8    H     H_    0.114845 0.614765 0.660564 0.151183
H9    H     H_    0.628079 0.126451 0.651696 0.134803
H10   H     H_    0.372154 0.126192 0.348097 0.119955
H11   H     H_    0.628200 0.873777 0.651585 0.126744
H12   H     H_    0.372212 0.873520 0.348054 0.133719
N1    N     N_R   0.500000 0.857200 0.500000 -0.081578
N2    N     N_R   0.500000 0.142810 0.500000 -0.081438
O1    O     O_R   0.316770 0.614620 0.499990 -0.609033
O2    O     O_R   0.683230 0.614620 0.500010 -0.610504
O3    O     O_R   0.316800 0.385290 0.500000 -0.628841
O4    O     O_R   0.683200 0.385290 0.500000 -0.614584
O5    O     O_R   0.500000 0.614690 0.316780 -0.618010
O6    O     O_R   0.500000 0.614690 0.683220 -0.620090
O7    O     O_R   0.500020 0.385360 0.316780 -0.636554
O8    O     O_R   0.499980 0.385360 0.683220 -0.621500
Zn1   Zn    Zn3+2 0.500000 0.653120 0.500000 0.953902
Zn2   Zn    Zn3+2 0.500000 0.346880 0.500000 0.952754
C23   C     C_2   0.138788 0.388675 0.276207 0.437660
H13   H     H_    0.230528 0.342785 0.288157 0.059204
O9    O     O_2   0.099530 0.404814 0.169685 -0.541900
C24   C     C_2   0.859294 0.362953 0.290450 0.516306
H14   H     H_    0.768704 0.402613 0.261281 0.029620
O10   O     O_2   0.895854 0.256342 0.245083 -0.535374

loop_
_geom_bond_atom_site_label_1
_geom_bond_atom_site_label_2
_ccdc_geom_bond_type
C16   H6    S    
C24   O10   D    
C4    N2    A    
N2    Zn2   S    
C7    O7    A    
C11   C13   A    
C9    C10   A    
C2    O2    A    
C15   H5    S    
C23   H13   S    
C8    O6    A    
C1    O1    A    
C8    C12   S    
C24   H14   S    
C23   O9    D    
C13   C14   A    
C3    H9    S    
C9    C11   A    
C18   C24   S    
C4    H10   S    
C10   C12   A    
C3    N2    A    
O3    Zn2   S    
C5    N1    A    
C4    C6    A    
C19   C21   A    
C9    C16   S    
C20   C22   A    
C7    C11   S    
C10   C15   S    
C7    O5    A    
C16   H4    S    
C8    O8    A    
O7    Zn2   S    
C15   H3    S    
O4    Zn2   S    
O1    Zn1   S    
C15   C16   S    
N1    Zn1   S    
C2    O4    A    
C17   C20   A    
C6    N1    A    
C13   H1    S    
C17   C18   A    
C18   C19   A    
C14   H2    S    
C1    O3    A    
C1    C20   S    
O5    Zn1   S    
C22   H8    S    
C3    C5    A    
C2    C19   S    
C21   C22   A    
C21   H7    S    
O8    Zn2   S    
C6    H12   S    
C17   C23   S    
C12   C14   A    
O2    Zn1   S    
O6    Zn1   S    
C5    H11   S    
