data_mof_unit_43111.cif
_audit_creation_date              2012-12-11T14:43:31-0500
_audit_creation_method            fapswitch 2.2
_symmetry_space_group_name_H-M    P1
_symmetry_Int_Tables_number       1
_space_group_crystal_system       triclinic
_cell_length_a                    20.827331
_cell_length_b                    7.103566
_cell_length_c                    16.406947
_cell_angle_alpha                 90.000702
_cell_angle_beta                  92.509008
_cell_angle_gamma                 90.000435
_cell_volume                      2425.05324605

loop_
_atom_site_label
_atom_site_type_symbol
_atom_type_description
_atom_site_fract_x
_atom_site_fract_y
_atom_site_fract_z
_atom_type_partial_charge
O1    O     O_R   0.564840 0.505290 0.579830 -0.537429
O2    O     O_R   0.435160 0.005290 0.420170 -0.537430
O3    O     O_R   0.556720 0.179930 0.409350 -0.537486
O4    O     O_R   0.443280 0.679930 0.590650 -0.537486
C1    C     C_R   0.570302 0.344808 0.380990 0.698912
C2    C     C_R   0.429697 0.844809 0.619009 0.698916
O5    O     O_R   0.572280 0.175810 0.578530 -0.542847
O6    O     O_R   0.427720 0.675810 0.421470 -0.542852
O7    O     O_R   0.450830 0.001920 0.590540 -0.536163
O8    O     O_R   0.549170 0.501920 0.409460 -0.536161
C3    C     C_R   0.590090 0.342723 0.604995 0.692489
C4    C     C_R   0.409909 0.842720 0.395005 0.692488
O9    O     O_3   0.460130 0.338030 0.503750 -0.372116
O10   O     O_3   0.539870 0.838030 0.496250 -0.372114
V1    V     V_3+5 0.507400 0.064560 0.499310 1.411357
V2    V     V_3+5 0.492600 0.564560 0.500690 1.411355
C5    C     C_R   0.144630 0.926966 0.166843 -0.065105
C6    C     C_R   0.855372 0.426955 0.833153 -0.065099
C7    C     C_R   0.355450 0.838948 0.332908 -0.065582
C8    C     C_R   0.644547 0.338959 0.667095 -0.065578
C9    C     C_R   0.290795 0.655695 0.233017 -0.202560
C10   C     C_R   0.709185 0.155736 0.767011 -0.202542
C11   C     C_R   0.345088 0.675000 0.285445 -0.161321
C12   C     C_R   0.654894 0.175040 0.714579 -0.161319
C13   C     C_R   0.310507 0.986073 0.325123 -0.245760
C14   C     C_R   0.689502 0.486060 0.674863 -0.245756
C15   C     C_R   0.255215 0.966608 0.272773 0.159303
C16   C     C_R   0.744792 0.466596 0.727217 0.159294
C17   C     C_R   0.245052 0.799662 0.226604 0.158950
C18   C     C_R   0.754940 0.299675 0.773406 0.158940
C19   C     C_R   0.189710 0.780126 0.174336 -0.246669
C20   C     C_R   0.810281 0.280139 0.825678 -0.246666
C21   C     C_R   0.155046 0.090968 0.214246 -0.159061
C22   C     C_R   0.844971 0.590932 0.785730 -0.159058
C23   C     C_R   0.209456 0.110521 0.266428 -0.202285
C24   C     C_R   0.790563 0.610484 0.733545 -0.202265
H1    H     H_    0.182870 0.653973 0.137791 0.125046
H2    H     H_    0.817110 0.154006 0.862239 0.125042
H3    H     H_    0.284304 0.526997 0.198138 0.122160
H4    H     H_    0.715664 0.027062 0.801907 0.122163
H5    H     H_    0.215964 0.239238 0.301289 0.121302
H6    H     H_    0.784066 0.739179 0.698667 0.121303
H7    H     H_    0.378891 0.559127 0.289578 0.127707
H8    H     H_    0.621081 0.059190 0.710459 0.127697
H9    H     H_    0.317352 0.112297 0.361619 0.123556
H10   H     H_    0.682669 0.612261 0.638350 0.123552
C25   C     C_R   0.380685 0.856958 0.836855 -0.158988
C26   C     C_R   0.619314 0.356942 0.163143 -0.158987
H11   H     H_    0.469940 0.839316 0.776970 0.103078
H12   H     H_    0.530059 0.339296 0.223029 0.103080
H13   H     H_    0.300836 0.873154 0.958002 0.126740
H14   H     H_    0.699164 0.373136 0.041997 0.126738
H15   H     H_    0.404421 0.853058 0.896957 0.112695
H16   H     H_    0.595579 0.353035 0.103042 0.112694
C27   C     C_R   0.389211 0.853663 0.690342 -0.037279
C28   C     C_R   0.610788 0.353659 0.309656 -0.037280
C29   C     C_R   0.077906 0.914336 0.732223 -0.164066
C30   C     C_R   0.922094 0.414347 0.267777 -0.164066
C31   C     C_R   0.112368 0.906913 0.661662 -0.119297
C32   C     C_R   0.887631 0.406927 0.338338 -0.119298
C33   C     C_R   0.179197 0.894036 0.666178 -0.157373
C34   C     C_R   0.820803 0.394047 0.333822 -0.157375
C35   C     C_R   0.213733 0.888084 0.742370 0.076929
C36   C     C_R   0.786266 0.388088 0.257629 0.076930
C37   C     C_R   0.177876 0.895758 0.814851 0.068591
C38   C     C_R   0.822124 0.395758 0.185148 0.068591
C39   C     C_R   0.282512 0.874836 0.749011 0.074284
C40   C     C_R   0.717488 0.374835 0.250988 0.074283
C41   C     C_R   0.313462 0.869678 0.827967 0.138738
C42   C     C_R   0.686537 0.369668 0.172032 0.138739
C43   C     C_R   0.277327 0.877200 0.897752 -0.201295
C44   C     C_R   0.722673 0.377188 0.102247 -0.201296
C45   C     C_R   0.210726 0.890000 0.891453 -0.191564
C46   C     C_R   0.789274 0.389993 0.108546 -0.191565
C47   C     C_R   0.321970 0.866449 0.680386 -0.215354
C48   C     C_R   0.678030 0.366451 0.319613 -0.215352
C49   C     C_R   0.418148 0.849099 0.768658 -0.170003
C50   C     C_R   0.581851 0.349085 0.231341 -0.170004
C51   C     C_R   0.109671 0.909042 0.808984 -0.078459
C52   C     C_R   0.890329 0.409045 0.191016 -0.078458
H17   H     H_    0.302229 0.869481 0.618591 0.092703
H18   H     H_    0.697770 0.369489 0.381409 0.092701
H19   H     H_    0.025960 0.924322 0.726951 0.101370
H20   H     H_    0.974039 0.424335 0.273049 0.101372
H21   H     H_    0.202308 0.889020 0.608790 0.108264
H22   H     H_    0.797691 0.389035 0.391210 0.108263
H23   H     H_    0.086999 0.911213 0.602664 0.118469
H24   H     H_    0.913000 0.411232 0.397335 0.118469
H25   H     H_    0.185088 0.895379 0.947423 0.110655
H26   H     H_    0.814911 0.395370 0.052576 0.110653
O11   O     O_R   0.950790 0.256670 0.090520 -0.533744
O12   O     O_R   0.049210 0.756670 0.909480 -0.533745
O13   O     O_R   0.927720 0.590370 0.921470 -0.542332
O14   O     O_R   0.072280 0.090370 0.078530 -0.542337
C53   C     C_R   0.910022 0.423038 0.894950 0.687778
C54   C     C_R   0.089978 0.923041 0.105049 0.687779
O15   O     O_R   0.943270 0.586180 0.090640 -0.535885
O16   O     O_R   0.056730 0.086180 0.909360 -0.535884
O17   O     O_R   0.064850 0.759970 0.079840 -0.537397
O18   O     O_R   0.935150 0.259970 0.920160 -0.537397
C55   C     C_R   0.930224 0.417672 0.118821 0.681708
C56   C     C_R   0.069775 0.917671 0.881178 0.681710
O19   O     O_3   0.039850 0.428050 0.996240 -0.370438
O20   O     O_3   0.960150 0.928050 0.003760 -0.370436
V3    V     V_3+5 0.992610 0.701540 0.000700 1.417628
V4    V     V_3+5 0.007390 0.201540 0.999300 1.417625
H27   H     H_    0.121175 0.206690 0.210282 0.127444
H28   H     H_    0.878852 0.706634 0.789682 0.127434

loop_
_geom_bond_atom_site_label_1
_geom_bond_atom_site_label_2
_ccdc_geom_bond_type
C35   C37   A    
C28   C48   A    
C15   C17   A    
C29   C51   A    
C1    C28   S    
C24   H6    S    
O1    C3    A    
C2    C27   S    
O2    C4    A    
C2    O7    A    
O20   V4    S    
C32   H24   S    
C37   C45   A    
O5    C3    A    
C34   H22   S    
H13   C43   S    
C37   C51   A    
C36   C40   A    
C27   C49   A    
C29   C31   A    
C30   C32   A    
C38   C46   A    
C54   O17   A    
C28   C50   A    
C32   C34   A    
C26   C50   A    
C41   C43   A    
C25   C41   A    
C34   C36   A    
O13   V3    S    
C8    C12   A    
C21   H27   S    
C29   H19   S    
C51   C56   S    
C20   H2    S    
C30   C52   A    
C25   H15   S    
C27   C47   A    
O5    V1    S    
O6    V2    S    
C6    C53   S    
O11   V4    S    
C5    C21   A    
O11   C55   A    
C7    C13   A    
H12   C50   S    
O20   V3    S    
O17   V3    S    
C35   C39   A    
C3    C8    S    
C31   C33   A    
C44   C46   A    
C48   H18   S    
C5    C54   S    
C53   O18   A    
C47   H17   S    
C15   C23   A    
O16   C56   A    
C9    C17   A    
C19   H1    S    
C39   C41   A    
C36   C38   A    
O4    V2    S    
C26   H16   S    
H14   C44   S    
C30   H20   S    
C9    H3    S    
O6    C4    A    
C10   H4    S    
C33   C35   A    
O19   V3    S    
O1    V2    S    
O14   C54   A    
O2    V1    S    
C6    C22   A    
C33   H21   S    
O4    C2    A    
C9    C11   A    
C13   C15   A    
C12   H8    S    
C10   C12   A    
C6    C20   A    
C25   C49   A    
C13   H9    S    
O3    V1    S    
C7    C11   A    
C43   C45   A    
O14   V4    S    
C10   C18   A    
C11   H7    S    
C14   C16   A    
C26   C42   A    
O3    C1    A    
O12   C56   A    
C40   C48   A    
C38   C52   A    
O18   V4    S    
O16   V4    S    
C52   C55   S    
C22   H28   S    
C46   H26   S    
C16   C18   A    
O7    V1    S    
O15   V3    S    
C1    O8    A    
C17   C19   A    
O8    V2    S    
C18   C20   A    
O13   C53   A    
C8    C14   A    
C5    C19   A    
C4    C7    S    
C21   C23   A    
H11   C49   S    
O19   V4    S    
C22   C24   A    
C23   H5    S    
C31   H23   S    
C14   H10   S    
C45   H25   S    
O12   V3    S    
C39   C47   A    
C16   C24   A    
C40   C42   A    
O9    V2    S    
O10   V1    S    
C42   C44   A    
O15   C55   A    
