data_mof_unit_55943.cif
_audit_creation_date              2012-10-26T20:11:36-0400
_audit_creation_method            fapswitch 2.2
_symmetry_space_group_name_H-M    P1
_symmetry_Int_Tables_number       1
_space_group_crystal_system       triclinic
_cell_length_a                    11.043025
_cell_length_b                    15.131271
_cell_length_c                    13.90246
_cell_angle_alpha                 89.655567
_cell_angle_beta                  102.637745
_cell_angle_gamma                 91.036223
_cell_volume                      2266.37542951

loop_
_atom_site_label
_atom_site_type_symbol
_atom_type_description
_atom_site_fract_x
_atom_site_fract_y
_atom_site_fract_z
_atom_type_partial_charge
C1    C     C_R   0.502457 0.329637 0.500840 0.551979
C2    C     C_R   0.570730 0.561007 0.802253 0.381128
C3    C     C_R   0.406329 0.456576 0.091842 -0.155114
C4    C     C_R   0.565834 0.564713 0.902994 -0.149252
C5    C     C_R   0.499822 0.500422 0.054678 -0.047161
C6    C     C_R   0.499592 0.500445 0.945182 -0.052804
C7    C     C_R   0.262771 0.500729 0.460057 0.563956
C8    C     C_R   0.737277 0.500961 0.539895 0.538115
C9    C     C_2   0.127855 0.502163 0.437341 -0.119180
C10   C     C_2   0.872278 0.503890 0.562305 -0.141523
C11   C     C_2   0.067346 0.508852 0.510172 -0.177461
C12   C     C_R   0.499012 0.669670 0.499520 0.573674
C13   C     C_2   0.932704 0.506364 0.488952 -0.160845
C14   C     C_R   0.503202 0.091682 0.585801 -0.119646
C15   C     C_R   0.424102 0.904236 0.424625 -0.118693
C16   C     C_R   0.509665 0.183842 0.589916 0.233116
C17   C     C_R   0.422926 0.811900 0.421867 0.225881
C18   C     C_R   0.507659 0.232481 0.502473 -0.032737
C19   C     C_R   0.499868 0.765572 0.498757 -0.021409
C20   C     C_R   0.512744 0.187388 0.415423 -0.175066
C21   C     C_R   0.581198 0.810822 0.574227 -0.166279
C22   C     C_R   0.516258 0.095402 0.413733 0.236907
C23   C     C_R   0.508434 0.047074 0.499078 0.011650
C24   C     C_R   0.588672 0.902876 0.573266 0.235375
C25   C     C_3   0.628189 0.209842 0.743616 0.005387
C26   C     C_3   0.645385 0.272090 0.831160 -0.349360
C27   C     C_3   0.366246 0.781393 0.257107 0.001832
C28   C     C_3   0.300403 0.711426 0.185300 -0.355133
C29   C     C_3   0.644562 0.038756 0.323525 -0.008644
C30   C     C_3   0.648740 0.983086 0.233644 -0.380685
C31   C     C_3   0.791369 0.941431 0.632432 -0.011661
C32   C     C_3   0.877671 0.999838 0.706992 -0.378453
C33   C     C_3   0.713124 0.676361 0.255845 -0.026613
C34   C     C_R   0.507305 0.949994 0.499120 0.008523
C35   C     C_3   0.762786 0.739065 0.341077 -0.369681
C36   C     C_3   0.241043 0.360889 0.727040 -0.006974
C37   C     C_3   0.226522 0.266341 0.761703 -0.374783
C38   C     C_3   0.303748 0.319862 0.200294 -0.009719
C39   C     C_3   0.173230 0.303232 0.138900 -0.397934
C40   C     C_3   0.765938 0.623020 0.809310 -0.019505
C41   C     C_3   0.806392 0.713632 0.853206 -0.397704
C42   C     C_R   0.593099 0.544623 0.123781 -0.161609
C43   C     C_R   0.433275 0.436042 0.880942 -0.166971
C44   C     C_R   0.588304 0.548587 0.225052 0.372933
C45   C     C_R   0.428424 0.439272 0.778116 0.382672
C46   C     C_R   0.410921 0.452774 0.194336 0.372443
Cu1   Cu    Cu3+1 0.500000 0.499990 0.596430 1.056286
Cu2   Cu    Cu3+1 0.500000 0.500010 0.403570 1.051085
H1    H     H_    0.882800 0.505332 0.412278 0.187222
H2    H     H_    0.640890 0.774561 0.632857 0.158511
H3    H     H_    0.670372 0.575348 0.099878 0.085927
H4    H     H_    0.386629 0.382246 0.909927 0.097650
H5    H     H_    0.707672 0.221241 0.707115 0.112522
H6    H     H_    0.630503 0.140848 0.771984 0.133921
H7    H     H_    0.566090 0.264629 0.867985 0.160415
H8    H     H_    0.732492 0.256444 0.885021 0.075718
H9    H     H_    0.651699 0.341462 0.806062 0.164919
H10   H     H_    0.467669 0.777174 0.260204 0.124643
H11   H     H_    0.333183 0.847465 0.228406 0.130869
H12   H     H_    0.117263 0.514976 0.586526 0.150315
H13   H     H_    0.198371 0.715731 0.177167 0.150027
H14   H     H_    0.323345 0.721680 0.112104 0.083843
H15   H     H_    0.330610 0.644593 0.212831 0.186396
H16   H     H_    0.693986 0.002253 0.389969 0.120791
H17   H     H_    0.693728 0.102838 0.317736 0.128557
H18   H     H_    0.601660 0.017783 0.165429 0.157067
H19   H     H_    0.746705 0.971486 0.230202 0.090719
H20   H     H_    0.601472 0.918287 0.238404 0.139668
H21   H     H_    0.796136 0.964980 0.557241 0.116992
H22   H     H_    0.824785 0.872309 0.642578 0.121377
H23   H     H_    0.328545 0.425677 0.042175 0.102508
H24   H     H_    0.973827 0.996198 0.695444 0.095962
H25   H     H_    0.847103 0.069526 0.697987 0.141372
H26   H     H_    0.876780 0.977360 0.783042 0.152992
H27   H     H_    0.634907 0.709331 0.204740 0.102376
H28   H     H_    0.789293 0.664225 0.217135 0.122728
H29   H     H_    0.841032 0.708310 0.393824 0.163354
H30   H     H_    0.796228 0.801566 0.312715 0.087902
H31   H     H_    0.688287 0.754562 0.380155 0.150706
H32   H     H_    0.177191 0.368330 0.653916 0.148753
H33   H     H_    0.209541 0.408531 0.777000 0.083163
H34   H     H_    0.613894 0.618434 0.946948 0.103887
H35   H     H_    0.290075 0.254574 0.834087 0.139130
H36   H     H_    0.129491 0.254193 0.769069 0.082149
H37   H     H_    0.248228 0.219107 0.707224 0.184362
H38   H     H_    0.314480 0.278524 0.267719 0.159393
H39   H     H_    0.373588 0.296418 0.159493 0.101411
H40   H     H_    0.157455 0.343060 0.070177 0.133529
H41   H     H_    0.160687 0.232167 0.119053 0.102390
H42   H     H_    0.103535 0.321268 0.181843 0.158588
H43   H     H_    0.819960 0.609375 0.752592 0.149754
H44   H     H_    0.791921 0.571408 0.867571 0.095398
H45   H     H_    0.922531 0.504245 0.638861 0.079169
H46   H     H_    0.754112 0.730205 0.910172 0.142392
H47   H     H_    0.907054 0.713598 0.887795 0.095496
H48   H     H_    0.789414 0.764951 0.794616 0.161898
H49   H     H_    0.077728 0.496949 0.360961 0.112116
H50   H     H_    0.494691 0.054812 0.651090 0.158669
H51   H     H_    0.358802 0.940263 0.369449 0.155184
H52   H     H_    0.515641 0.223242 0.348315 0.138752
N1    N     N_R   0.500000 0.500020 0.258690 -0.208499
N2    N     N_R   0.500000 0.499980 0.741310 -0.213272
O1    O     O_R   0.500010 0.371450 0.581440 -0.406395
O2    O     O_3   0.338390 0.766097 0.350332 -0.547597
O3    O     O_3   0.519573 0.053132 0.326516 -0.574359
O4    O     O_3   0.669795 0.947082 0.648190 -0.571949
O5    O     O_3   0.675801 0.595855 0.293685 -0.524752
O6    O     O_3   0.363732 0.375633 0.714593 -0.478391
O7    O     O_3   0.317950 0.409573 0.229932 -0.525476
O8    O     O_3   0.638335 0.623799 0.762277 -0.525825
O9    O     O_R   0.499990 0.628550 0.418560 -0.456228
O10   O     O_R   0.500010 0.371460 0.418560 -0.517030
O11   O     O_R   0.499990 0.628540 0.581440 -0.468230
O12   O     O_R   0.320690 0.500000 0.551510 -0.493698
O13   O     O_R   0.679310 0.500000 0.448490 -0.459796
O14   O     O_R   0.320690 0.500010 0.388630 -0.448913
O15   O     O_R   0.679310 0.499990 0.611370 -0.505482
O16   O     O_3   0.513081 0.226223 0.678499 -0.508001

loop_
_geom_bond_atom_site_label_1
_geom_bond_atom_site_label_2
_ccdc_geom_bond_type
C7    O14   A    
Cu1   O12   S    
C5    C42   A    
C36   O6    S    
C2    C4    A    
C33   O5    S    
C25   O16   S    
C32   H24   S    
C41   H47   S    
C3    C46   A    
C1    C18   S    
C38   H38   S    
C7    O12   A    
C37   H37   S    
C36   C37   S    
C19   C21   A    
C17   O2    S    
C25   H5    S    
C1    O10   A    
C32   H26   S    
C38   C39   S    
C43   H4    S    
C41   H48   S    
C2    N2    A    
C27   O2    S    
C15   C17   A    
C8    O13   A    
C17   C19   A    
C33   H27   S    
C31   H22   S    
Cu1   Cu2   S    
C37   H36   S    
C1    O1    A    
C15   C34   A    
C18   C20   A    
C30   H19   S    
C45   O6    S    
C42   H3    S    
Cu2   O14   S    
C28   H13   S    
C29   H16   S    
Cu1   N2    S    
C26   H7    S    
C29   O3    S    
C42   C44   A    
C39   H40   S    
C21   H2    S    
C8    O15   A    
C14   H50   S    
C46   N1    A    
Cu1   O1    S    
C25   H6    S    
C4    C6    A    
C36   H32   S    
C32   H25   S    
C40   O8    S    
C10   H45   S    
C25   C26   S    
C35   H29   S    
C24   C34   A    
C14   C23   A    
C3    H23   S    
C29   C30   S    
C16   O16   S    
C43   C45   A    
C33   H28   S    
C41   H46   S    
C20   H52   S    
C31   H21   S    
C36   H33   S    
C23   C34   S    
C40   H44   S    
C38   O7    S    
C9    C11   D    
C30   H18   S    
Cu2   O13   S    
C13   H1    S    
C16   C18   A    
C40   C41   S    
Cu2   O10   S    
C20   C22   A    
C6    C43   A    
C31   O4    S    
C29   H17   S    
C46   O7    S    
C24   O4    S    
C11   H12   S    
C12   O11   A    
C44   O5    S    
Cu1   O11   S    
C2    O8    S    
C9    H49   S    
C39   H42   S    
C31   C32   S    
C15   H51   S    
C3    C5    A    
C10   C13   D    
C26   H8    S    
C44   N1    A    
C22   O3    S    
C35   H30   S    
C38   H39   S    
C27   H11   S    
C11   C13   S    
C5    C6    S    
C27   H10   S    
Cu2   N1    S    
C12   C19   S    
C35   H31   S    
C33   C35   S    
C14   C16   A    
C40   H43   S    
C26   H9    S    
C45   N2    A    
C28   H15   S    
C7    C9    S    
Cu1   O15   S    
Cu2   O9    S    
C4    H34   S    
C8    C10   S    
C21   C24   A    
C27   C28   S    
C22   C23   A    
C37   H35   S    
C39   H41   S    
C12   O9    A    
C30   H20   S    
C28   H14   S    
