data_mof_unit_10986.cif
_audit_creation_date              2012-12-10T19:09:07-0500
_audit_creation_method            fapswitch 2.2
_symmetry_space_group_name_H-M    P1
_symmetry_Int_Tables_number       1
_space_group_crystal_system       triclinic
_cell_length_a                    17.728297
_cell_length_b                    10.802231
_cell_length_c                    9.566621
_cell_angle_alpha                 89.982116
_cell_angle_beta                  89.180965
_cell_angle_gamma                 90.593642
_cell_volume                      1831.77157977

loop_
_atom_site_label
_atom_site_type_symbol
_atom_type_description
_atom_site_fract_x
_atom_site_fract_y
_atom_site_fract_z
_atom_type_partial_charge
C1    C     C_R   0.497928 0.262344 0.500111 0.796293
C2    C     C_R   0.114589 0.487646 0.509908 0.152947
C3    C     C_R   0.496861 0.063761 0.625888 0.133876
C4    C     C_R   0.355549 0.499337 0.501041 0.776405
C5    C     C_R   0.488882 0.129159 0.501431 -0.096790
C6    C     C_R   0.468117 0.064101 0.380341 -0.229722
C7    C     C_R   0.467062 0.934717 0.381039 -0.215929
C8    C     C_R   0.488011 0.870449 0.502085 -0.110762
C9    C     C_R   0.496405 0.936534 0.626351 0.137672
C10   C     C_3   0.556497 0.930974 0.734056 -0.485610
C11   C     C_3   0.557193 0.071521 0.732958 -0.469268
C12   C     C_R   0.885672 0.485473 0.504224 0.108739
C13   C     C_R   0.565957 0.510925 0.070806 0.189526
C14   C     C_R   0.435684 0.477081 0.075800 -0.072969
C15   C     C_R   0.435684 0.477203 0.927451 -0.071077
C16   C     C_R   0.497658 0.737599 0.500215 0.809532
C17   C     C_R   0.565745 0.510462 0.923890 0.178932
C18   C     C_3   0.621476 0.613255 0.911746 -0.552390
C19   C     C_3   0.623607 0.613617 0.070384 0.261972
C20   C     C_R   0.644514 0.498322 0.499619 0.789418
C21   C     C_R   0.843604 0.454852 0.624246 -0.190288
C22   C     C_R   0.765163 0.457975 0.622432 -0.208975
C23   C     C_1   0.966380 0.483890 0.510863 -0.079171
C24   C     C_R   0.727685 0.493133 0.500727 -0.066375
C25   C     C_R   0.770130 0.523144 0.380722 -0.207186
C26   C     C_R   0.849409 0.518749 0.379416 0.119323
C27   C     C_3   0.656368 0.812258 0.131481 0.070151
C28   C     C_3   0.628548 0.934441 0.190139 -0.780718
C29   C     C_3   0.896641 0.548785 0.248798 -0.402405
C30   C     C_3   0.852211 0.577533 0.115938 -0.376922
C31   C     C_3   0.905053 0.600561 0.991059 -0.851782
C32   C     C_1   0.034012 0.484729 0.512255 -0.070829
C33   C     C_R   0.154143 0.489583 0.635123 -0.159818
C34   C     C_R   0.232778 0.493947 0.632297 -0.194805
C35   C     C_R   0.272500 0.496440 0.503905 -0.028007
C36   C     C_R   0.232064 0.494753 0.378571 -0.195561
C37   C     C_R   0.153434 0.490412 0.381744 -0.163593
Cu1   Cu    Cu3+1 0.500000 0.499980 0.640670 0.942601
Cu2   Cu    Cu3+1 0.500000 0.500020 0.359330 0.971329
H1    H     H_    0.871574 0.428308 0.719521 0.142191
H2    H     H_    0.596883 0.697538 0.865257 0.221583
H3    H     H_    0.678210 0.581512 0.109707 0.033442
H4    H     H_    0.733928 0.431962 0.716108 0.147703
H5    H     H_    0.740801 0.551640 0.289945 0.132341
H6    H     H_    0.124246 0.487881 0.734719 0.127352
H7    H     H_    0.262315 0.495206 0.730562 0.140225
H8    H     H_    0.261029 0.496661 0.278183 0.139399
H9    H     H_    0.122927 0.489373 0.284367 0.125578
H10   H     H_    0.456438 0.112404 0.283940 0.165928
H11   H     H_    0.678882 0.829767 0.023867 0.141037
H12   H     H_    0.454821 0.885808 0.285043 0.188866
H13   H     H_    0.702821 0.779734 0.199024 0.126354
H14   H     H_    0.615186 0.923819 0.303112 0.251188
H15   H     H_    0.673351 0.006395 0.178007 0.195175
H16   H     H_    0.577696 0.964790 0.133497 0.248174
H17   H     H_    0.943553 0.679904 0.012339 0.255912
H18   H     H_    0.938978 0.516829 0.968502 0.249068
H19   H     H_    0.871327 0.622538 0.897479 0.242945
H20   H     H_    0.814363 0.498199 0.090610 0.214253
H21   H     H_    0.817907 0.661843 0.132742 0.206383
H22   H     H_    0.933705 0.629587 0.272311 0.200366
H23   H     H_    0.534929 0.891716 0.834507 0.212652
H24   H     H_    0.933444 0.468229 0.226267 0.200661
H25   H     H_    0.609742 0.889923 0.693408 0.190785
H26   H     H_    0.536427 0.112534 0.832709 0.200849
H27   H     H_    0.610704 0.112416 0.690908 0.194086
H28   H     H_    0.383236 0.459397 0.131199 0.131791
H29   H     H_    0.383301 0.459915 0.874345 0.131506
H30   H     H_    0.675590 0.583710 0.863230 0.157761
N1    N     N_R   0.500470 0.500930 0.147930 -0.163884
N2    N     N_R   0.500480 0.500890 0.852020 -0.167432
O1    O     O_R   0.500000 0.319640 0.618810 -0.576659
O2    O     O_R   0.500010 0.319680 0.381230 -0.586816
O3    O     O_R   0.391250 0.499990 0.618840 -0.592339
O4    O     O_R   0.391260 0.500020 0.381250 -0.595918
O5    O     O_R   0.499990 0.680320 0.618770 -0.577022
O6    O     O_R   0.500000 0.680360 0.381190 -0.528884
O7    O     O_R   0.608740 0.499980 0.618750 -0.580282
O8    O     O_R   0.608750 0.500010 0.381160 -0.577957
O9    O     O_3   0.596495 0.724665 0.129824 -0.526130

loop_
_geom_bond_atom_site_label_1
_geom_bond_atom_site_label_2
_ccdc_geom_bond_type
C29   H24   S    
C33   H6    S    
C35   C36   A    
C7    C8    A    
Cu1   O5    S    
C12   C23   S    
C1    C5    S    
Cu2   O6    S    
C31   H19   S    
C36   C37   A    
C16   O6    A    
C5    C6    A    
C13   N1    A    
C36   H8    S    
C2    C32   S    
C34   C35   A    
C4    O4    A    
C20   C24   S    
C8    C9    A    
C30   H21   S    
C14   H28   S    
C34   H7    S    
Cu2   O4    S    
C31   H17   S    
C9    C10   S    
C4    O3    A    
C19   H3    S    
C18   H30   S    
C4    C35   S    
C8    C16   S    
C21   C22   A    
C14   N1    A    
C10   H23   S    
C25   H5    S    
C28   H16   S    
C33   C34   A    
Cu1   O1    S    
Cu1   Cu2   S    
C29   H22   S    
C1    O1    A    
C13   C19   S    
C24   C25   A    
C27   O9    S    
C18   H2    S    
C28   H15   S    
C18   C19   S    
Cu1   O7    S    
C25   C26   A    
C12   C21   A    
C12   C26   A    
Cu2   O8    S    
C29   C30   S    
C3    C9    A    
C22   H4    S    
C30   H20   S    
C17   C18   S    
C37   H9    S    
C2    C33   A    
C17   N2    A    
C22   C24   A    
C27   H13   S    
Cu1   O3    S    
Cu1   N2    S    
C20   O8    A    
C16   O5    A    
C10   H25   S    
C3    C5    A    
C28   H14   S    
C27   H11   S    
C6    C7    A    
C20   O7    A    
C15   N2    A    
C13   C17   A    
C1    O2    A    
C23   C32   T    
C31   H18   S    
C7    H12   S    
C2    C37   A    
C30   C31   S    
C21   H1    S    
C15   H29   S    
Cu2   N1    S    
Cu2   O2    S    
C6    H10   S    
C19   O9    S    
C3    C11   S    
C10   C11   S    
C26   C29   S    
C27   C28   S    
C14   C15   A    
C11   H26   S    
C11   H27   S    
