data_mof_unit_67392.cif
_audit_creation_date              2012-12-11T19:52:00-0500
_audit_creation_method            fapswitch 2.2
_symmetry_space_group_name_H-M    P1
_symmetry_Int_Tables_number       1
_space_group_crystal_system       triclinic
_cell_length_a                    17.05239
_cell_length_b                    27.778403
_cell_length_c                    8.666685
_cell_angle_alpha                 90.000057
_cell_angle_beta                  105.00521
_cell_angle_gamma                 90.01619
_cell_volume                      3965.32436746

loop_
_atom_site_label
_atom_site_type_symbol
_atom_type_description
_atom_site_fract_x
_atom_site_fract_y
_atom_site_fract_z
_atom_type_partial_charge
Ba1   Ba    Ba6+2 0.000400 0.534870 0.845190 1.685538
Ba2   Ba    Ba6+2 0.000400 0.465130 0.345190 1.685604
Ba3   Ba    Ba6+2 0.500400 0.034870 0.845190 1.685665
Ba4   Ba    Ba6+2 0.500400 0.965130 0.345190 1.685666
Br1   Br    Br    0.901765 0.702701 0.614390 -0.561264
Br2   Br    Br    0.901735 0.297234 0.114396 -0.561274
Br3   Br    Br    0.401809 0.202738 0.614400 -0.561411
Br4   Br    Br    0.401745 0.797206 0.114253 -0.561521
Br5   Br    Br    0.694894 0.300951 0.368672 -0.703031
Br6   Br    Br    0.694960 0.699022 0.868544 -0.702865
Br7   Br    Br    0.194809 0.801009 0.368721 -0.703220
Br8   Br    Br    0.194860 0.198994 0.868952 -0.703165
C1    C     C_3   0.001624 0.778918 0.536628 -0.041630
C2    C     C_2   0.742413 0.638247 0.391712 -0.006391
C3    C     C_3   0.526788 0.689393 0.186039 -0.355185
C4    C     C_3   0.000578 0.827718 0.106732 -0.494052
C5    C     C_3   0.000792 0.172345 0.606794 -0.494436
C6    C     C_3   0.500628 0.327699 0.106855 -0.494134
C7    C     C_3   0.500507 0.672286 0.606693 -0.494389
C8    C     C_3   0.690941 0.361113 0.006840 -0.331311
C9    C     C_3   0.690946 0.638870 0.506837 -0.331211
C10   C     C_3   0.190928 0.861096 0.006839 -0.331000
C11   C     C_3   0.190971 0.138864 0.506931 -0.331301
C12   C     C_3   0.053174 0.726754 0.071918 -0.277543
C13   C     C_2   0.242441 0.861714 0.891803 -0.006363
C14   C     C_3   0.053184 0.273370 0.572411 -0.278126
C15   C     C_3   0.553196 0.226715 0.072254 -0.277249
C16   C     C_3   0.553119 0.773253 0.572120 -0.277491
C17   C     C_3   0.682571 0.552941 0.869014 -0.272201
C18   C     C_3   0.682534 0.447007 0.369162 -0.272475
C19   C     C_3   0.182332 0.052885 0.869155 -0.272830
C20   C     C_3   0.182353 0.947102 0.368739 -0.272592
C21   C     C_2   0.242504 0.138299 0.391935 -0.006163
C22   C     C_2   0.810397 0.391824 0.905571 0.081538
C23   C     C_2   0.810395 0.608174 0.405576 0.081578
C24   C     C_2   0.310407 0.891816 0.905608 0.081631
C25   C     C_2   0.310394 0.108171 0.405568 0.081411
C26   C     C_2   0.843178 0.346801 0.687851 -0.013979
C27   C     C_2   0.843198 0.653212 0.187883 -0.013834
C28   C     C_2   0.343173 0.846797 0.687850 -0.013927
C29   C     C_3   0.001634 0.221043 0.036763 -0.041670
C30   C     C_2   0.343195 0.153208 0.187867 -0.013761
C31   C     C_3   0.784261 0.310885 0.707967 -0.028798
C32   C     C_3   0.784223 0.689093 0.207895 -0.028774
C33   C     C_3   0.284244 0.810887 0.707959 -0.028797
C34   C     C_3   0.284365 0.189151 0.208113 -0.028931
C35   C     C_3   0.716626 0.332967 0.752309 0.019918
C36   C     C_3   0.716586 0.666958 0.252159 0.019772
C37   C     C_3   0.216618 0.832977 0.752309 0.019975
C38   C     C_3   0.216724 0.167100 0.252599 0.020231
C39   C     C_2   0.751053 0.276118 0.573114 0.250335
C40   C     C_3   0.501722 0.278959 0.536844 -0.041534
C41   C     C_2   0.751025 0.723865 0.073053 0.250305
C42   C     C_2   0.251004 0.776139 0.573078 0.250329
C43   C     C_2   0.251109 0.223896 0.073238 0.250294
C44   C     C_2   0.241057 0.729617 0.607736 -0.113704
C45   C     C_2   0.241115 0.270417 0.107871 -0.113689
C46   C     C_2   0.741123 0.229598 0.607815 -0.113787
C47   C     C_2   0.741028 0.770378 0.107769 -0.113897
C48   C     C_R   0.246025 0.687707 0.348216 0.101319
C49   C     C_R   0.246103 0.312336 0.848364 0.101114
C50   C     C_R   0.746174 0.187661 0.348397 0.101446
C51   C     C_3   0.501713 0.721025 0.036791 -0.041647
C52   C     C_R   0.746081 0.812332 0.848334 0.101411
C53   C     C_R   0.210654 0.692042 0.485585 -0.022808
C54   C     C_R   0.210697 0.307978 0.985689 -0.022649
C55   C     C_R   0.710747 0.192015 0.485687 -0.022788
C56   C     C_R   0.710670 0.807969 0.985651 -0.022763
C57   C     C_3   0.965076 0.736017 0.074599 0.394157
C58   C     C_3   0.965067 0.264010 0.574806 0.394117
C59   C     C_3   0.465067 0.236005 0.074696 0.394151
C60   C     C_3   0.464999 0.763982 0.574668 0.394049
C61   C     C_R   0.232012 0.644029 0.249215 -0.173785
C62   C     C_R   0.142527 0.613377 0.407360 -0.271546
C63   C     C_R   0.232065 0.356002 0.749311 -0.173641
C64   C     C_R   0.732111 0.143996 0.249335 -0.173714
C65   C     C_R   0.732050 0.856000 0.749293 -0.173695
C66   C     C_R   0.183838 0.608782 0.277170 0.045413
C67   C     C_R   0.183837 0.391218 0.777170 0.045403
C68   C     C_R   0.683853 0.108779 0.277174 0.045449
C69   C     C_R   0.683827 0.891216 0.777160 0.045409
C70   C     C_R   0.157265 0.652591 0.512018 -0.024522
C71   C     C_R   0.157257 0.347403 0.012026 -0.024516
C72   C     C_R   0.657275 0.152592 0.512011 -0.024566
C73   C     C_R   0.142498 0.386599 0.907311 -0.271614
C74   C     C_R   0.657244 0.847400 0.012008 -0.024526
C75   C     C_3   0.937402 0.789022 0.042803 -0.181149
C76   C     C_3   0.937526 0.210976 0.542887 -0.181244
C77   C     C_3   0.437440 0.289016 0.042856 -0.181093
C78   C     C_3   0.437318 0.710967 0.542881 -0.181197
C79   C     C_3   0.716156 0.502348 0.859462 0.307447
C80   C     C_3   0.716169 0.497592 0.359480 0.307393
C81   C     C_3   0.216101 0.002344 0.859506 0.307340
C82   C     C_3   0.216032 0.997694 0.359413 0.307455
C83   C     C_3   0.646749 0.469747 0.769681 -0.393549
C84   C     C_R   0.642498 0.113393 0.407294 -0.271572
C85   C     C_3   0.646809 0.530168 0.269487 -0.393312
C86   C     C_3   0.146807 0.969678 0.769650 -0.393346
C87   C     C_3   0.146653 0.030353 0.270010 -0.393715
C88   C     C_3   0.279975 0.496417 0.078427 0.386387
C89   C     C_3   0.279970 0.503628 0.578428 0.386433
C90   C     C_3   0.779955 0.996393 0.078450 0.386376
C91   C     C_3   0.779964 0.003640 0.578457 0.386380
C92   C     C_3   0.343909 0.531530 0.048270 -0.335958
C93   C     C_3   0.343894 0.468548 0.548165 -0.335859
C94   C     C_3   0.843913 0.031482 0.048258 -0.335927
C95   C     C_R   0.642490 0.886598 0.907303 -0.271562
C96   C     C_3   0.843913 0.968575 0.548202 -0.335882
C97   C     C_3   0.002089 0.723897 0.570549 0.651959
C98   C     C_3   0.002069 0.276068 0.070608 0.651909
C99   C     C_3   0.502152 0.223931 0.570649 0.651948
C100  C     C_3   0.502118 0.776053 0.070575 0.651925
C101  C     C_2   0.859699 0.384324 0.789837 -0.246258
C102  C     C_2   0.859725 0.615701 0.289899 -0.246095
C103  C     C_2   0.359708 0.884315 0.789860 -0.246107
C104  C     C_2   0.359666 0.115671 0.289778 -0.246243
C105  C     C_3   0.317857 0.446411 0.115765 -0.397361
C106  C     C_2   0.742442 0.361716 0.891783 -0.006303
C107  C     C_3   0.317855 0.553642 0.615828 -0.397416
C108  C     C_3   0.817801 0.946380 0.115842 -0.397338
C109  C     C_3   0.817818 0.053665 0.615878 -0.397309
C110  C     C_3   0.919439 0.796773 0.433829 -0.434150
C111  C     C_3   0.919459 0.203135 0.934010 -0.434186
C112  C     C_3   0.419562 0.296841 0.434015 -0.434177
C113  C     C_3   0.419553 0.703106 0.933967 -0.434052
C114  C     C_3   0.026740 0.810617 0.685747 -0.354966
C115  C     C_3   0.026799 0.189366 0.185919 -0.354829
C116  C     C_3   0.526835 0.310636 0.686030 -0.354940
H1    H     H_    0.606090 0.460555 0.846878 0.114929
H2    H     H_    0.671073 0.563424 0.229496 0.072918
H3    H     H_    0.477048 0.313776 0.744315 0.125151
H4    H     H_    0.580872 0.296250 0.772750 0.144009
H5    H     H_    0.540882 0.652463 0.151922 0.110137
H6    H     H_    0.581010 0.703712 0.272521 0.143898
H7    H     H_    0.477064 0.686454 0.244578 0.125465
H8    H     H_    0.027511 0.823214 0.235865 0.186582
H9    H     H_    0.048356 0.826231 0.042596 0.154244
H10   H     H_    0.971552 0.863785 0.086209 0.128572
H11   H     H_    0.027372 0.176668 0.736027 0.186433
H12   H     H_    0.971992 0.136257 0.585411 0.128612
H13   H     H_    0.171145 0.936483 0.729472 0.072884
H14   H     H_    0.048794 0.174084 0.543426 0.154710
H15   H     H_    0.527610 0.323151 0.235930 0.186604
H16   H     H_    0.548352 0.326251 0.042622 0.154213
H17   H     H_    0.471610 0.363762 0.086528 0.128589
H18   H     H_    0.527677 0.676879 0.735662 0.186683
H19   H     H_    0.471438 0.636236 0.586707 0.128684
H20   H     H_    0.548084 0.673671 0.542125 0.154073
H21   H     H_    0.680350 0.323065 0.034443 0.171010
H22   H     H_    0.720400 0.378896 0.119877 0.194351
H23   H     H_    0.632216 0.379084 0.952695 0.063630
H24   H     H_    0.170904 0.063573 0.229749 0.072882
H25   H     H_    0.680121 0.676922 0.533901 0.170582
H26   H     H_    0.632333 0.620719 0.453064 0.063761
H27   H     H_    0.720574 0.621285 0.620141 0.194872
H28   H     H_    0.180549 0.823020 0.034759 0.171351
H29   H     H_    0.220256 0.879032 0.119787 0.194050
H30   H     H_    0.132064 0.878928 0.952375 0.063531
H31   H     H_    0.180959 0.176873 0.535585 0.171943
H32   H     H_    0.132009 0.121269 0.452194 0.063422
H33   H     H_    0.220017 0.120708 0.619373 0.193318
H34   H     H_    0.063862 0.687868 0.057049 0.127832
H35   H     H_    0.228397 0.492345 0.971524 0.084170
H36   H     H_    0.069056 0.746419 0.973628 0.143823
H37   H     H_    0.093858 0.737597 0.186906 0.111179
H38   H     H_    0.063920 0.312288 0.558455 0.127113
H39   H     H_    0.093845 0.262323 0.687135 0.111435
H40   H     H_    0.069047 0.253929 0.473708 0.144401
H41   H     H_    0.563832 0.187838 0.057126 0.127868
H42   H     H_    0.569227 0.246435 0.974227 0.143661
H43   H     H_    0.593811 0.237457 0.187444 0.110989
H44   H     H_    0.563865 0.812150 0.557507 0.127563
H45   H     H_    0.593767 0.762350 0.687070 0.111218
H46   H     H_    0.228377 0.507694 0.471559 0.084107
H47   H     H_    0.568983 0.753636 0.473715 0.144079
H48   H     H_    0.630772 0.551992 0.924488 0.087752
H49   H     H_    0.730224 0.576352 0.943266 0.135129
H50   H     H_    0.660543 0.568495 0.747872 0.090048
H51   H     H_    0.630805 0.447978 0.424825 0.087895
H52   H     H_    0.660373 0.431444 0.248053 0.089941
H53   H     H_    0.730196 0.423590 0.443290 0.135046
H54   H     H_    0.130723 0.051852 0.925134 0.088068
H55   H     H_    0.229976 0.076390 0.942967 0.135303
H56   H     H_    0.159954 0.068387 0.748026 0.089641
H57   H     H_    0.728372 0.992326 0.971554 0.084120
H58   H     H_    0.130709 0.948024 0.424650 0.087975
H59   H     H_    0.160060 0.931647 0.247490 0.089677
H60   H     H_    0.230036 0.923618 0.442471 0.135503
H61   H     H_    0.728372 0.007699 0.471581 0.084090
H62   H     H_    0.315578 0.566164 0.000001 0.111878
H63   H     H_    0.315555 0.433912 0.499831 0.111943
H64   H     H_    0.815600 0.066117 0.999941 0.111892
H65   H     H_    0.606078 0.539366 0.346521 0.114859
H66   H     H_    0.815591 0.933934 0.499863 0.111933
H67   H     H_    0.374527 0.516057 0.961216 0.095021
H68   H     H_    0.374503 0.484052 0.461128 0.095013
H69   H     H_    0.874525 0.015984 0.961230 0.095031
H70   H     H_    0.874522 0.984090 0.461175 0.095006
H71   H     H_    0.390706 0.538856 0.161459 0.085881
H72   H     H_    0.390700 0.461218 0.661324 0.085872
H73   H     H_    0.890713 0.038812 0.161442 0.085885
H74   H     H_    0.890722 0.961251 0.661365 0.085879
H75   H     H_    0.005813 0.705271 0.458995 -0.145451
H76   H     H_    0.106200 0.960380 0.846852 0.114934
H77   H     H_    0.005797 0.294686 0.959040 -0.145412
H78   H     H_    0.505882 0.205325 0.459062 -0.145450
H79   H     H_    0.505874 0.794660 0.959011 -0.145479
H80   H     H_    0.262580 0.640527 0.154858 0.093797
H81   H     H_    0.262660 0.359523 0.654998 0.093704
H82   H     H_    0.762714 0.140477 0.155037 0.093650
H83   H     H_    0.762646 0.859521 0.654981 0.093715
H84   H     H_    0.904197 0.411220 0.779108 0.055534
H85   H     H_    0.904245 0.588828 0.279226 0.055454
H86   H     H_    0.404213 0.911208 0.779141 0.055538
H87   H     H_    0.106209 0.039612 0.347555 0.115093
H88   H     H_    0.404101 0.088763 0.278951 0.055482
H89   H     H_    0.102915 0.584727 0.425859 0.072910
H90   H     H_    0.102854 0.415226 0.925745 0.072872
H91   H     H_    0.602833 0.084763 0.425715 0.072918
H92   H     H_    0.602856 0.915228 0.925753 0.072858
H93   H     H_    0.256636 0.718377 0.731807 0.079016
H94   H     H_    0.256684 0.281668 0.231934 0.078994
H95   H     H_    0.756655 0.218371 0.731896 0.079089
H96   H     H_    0.756529 0.781598 0.231863 0.079124
H97   H     H_    0.047736 0.784616 0.469123 0.116782
H98   H     H_    0.610112 0.488015 0.660713 0.099482
H99   H     H_    0.047736 0.215367 0.969220 0.116827
H100  H     H_    0.547857 0.284659 0.469385 0.116704
H101  H     H_    0.547866 0.715322 0.969384 0.116691
H102  H     H_    0.958794 0.726007 0.194601 -0.071762
H103  H     H_    0.958657 0.273993 0.694732 -0.071582
H104  H     H_    0.458695 0.226000 0.194640 -0.071801
H105  H     H_    0.458670 0.773999 0.694629 -0.071743
H106  H     H_    0.912298 0.794743 0.913310 0.146421
H107  H     H_    0.912488 0.205272 0.413362 0.146526
H108  H     H_    0.412376 0.294737 0.913345 0.146456
H109  H     H_    0.610234 0.511877 0.160478 0.099517
H110  H     H_    0.412139 0.705239 0.413414 0.146415
H111  H     H_    0.885965 0.795710 0.094601 0.084853
H112  H     H_    0.886069 0.204195 0.594573 0.084872
H113  H     H_    0.385990 0.295720 0.094598 0.084811
H114  H     H_    0.385922 0.704257 0.594779 0.084765
H115  H     H_    0.763757 0.504190 0.794550 0.107029
H116  H     H_    0.763803 0.495721 0.294664 0.107122
H117  H     H_    0.263706 0.004276 0.794630 0.107194
H118  H     H_    0.263572 0.995870 0.294347 0.106931
H119  H     H_    0.275144 0.422104 0.155167 0.104298
H120  H     H_    0.110078 0.987939 0.660749 0.099378
H121  H     H_    0.331620 0.430778 0.007731 0.069894
H122  H     H_    0.375089 0.448215 0.212330 0.108334
H123  H     H_    0.275155 0.577923 0.655311 0.104327
H124  H     H_    0.375101 0.551846 0.712352 0.108347
H125  H     H_    0.331593 0.569300 0.507799 0.069831
H126  H     H_    0.775064 0.922093 0.155251 0.104332
H127  H     H_    0.831565 0.930729 0.007832 0.069834
H128  H     H_    0.875027 0.948179 0.212424 0.108355
H129  H     H_    0.775080 0.077939 0.655293 0.104309
H130  H     H_    0.875043 0.051882 0.712463 0.108392
H131  H     H_    0.109775 0.012111 0.161202 0.099271
H132  H     H_    0.831589 0.069326 0.507880 0.069816
H133  H     H_    0.926246 0.832160 0.379224 0.122039
H134  H     H_    0.894132 0.770248 0.339748 0.114221
H135  H     H_    0.874683 0.801230 0.505922 0.169188
H136  H     H_    0.926266 0.167726 0.879567 0.122005
H137  H     H_    0.874691 0.198707 0.006092 0.169201
H138  H     H_    0.894174 0.229613 0.839799 0.114212
H139  H     H_    0.426407 0.332234 0.379482 0.122059
H140  H     H_    0.394258 0.270336 0.339867 0.114253
H141  H     H_    0.374786 0.301292 0.506069 0.169129
H142  H     H_    0.670965 0.436487 0.729658 0.072900
H143  H     H_    0.426420 0.667736 0.879324 0.122070
H144  H     H_    0.374795 0.698589 0.006049 0.169061
H145  H     H_    0.394204 0.729629 0.839925 0.114315
H146  H     H_    0.041022 0.847509 0.651481 0.110137
H147  H     H_    0.976984 0.813686 0.744186 0.125222
H148  H     H_    0.080868 0.796282 0.772380 0.143981
H149  H     H_    0.041271 0.152513 0.151700 0.110149
H150  H     H_    0.080822 0.203784 0.272681 0.144118
H151  H     H_    0.977010 0.186172 0.244207 0.125096
H152  H     H_    0.541279 0.347500 0.651878 0.110094
O1    O     O_2   0.163830 0.569270 0.980510 -0.470137
O2    O     O_3   0.914270 0.291209 0.452842 -0.520153
O3    O     O_3   0.414284 0.208777 0.952748 -0.520239
O4    O     O_3   0.414235 0.791208 0.452733 -0.520204
O5    O     O_3   0.904940 0.476110 0.001150 -0.487599
O6    O     O_3   0.904940 0.523890 0.501150 -0.487656
O7    O     O_3   0.404940 0.976110 0.001150 -0.487627
O8    O     O_3   0.404940 0.023890 0.501150 -0.487510
O9    O     O_3   0.095420 0.524330 0.188510 -0.474674
O10   O     O_3   0.095420 0.475670 0.688510 -0.474712
O11   O     O_3   0.595420 0.024330 0.188510 -0.474693
O12   O     O_2   0.163830 0.430730 0.480510 -0.470076
O13   O     O_3   0.595420 0.975670 0.688510 -0.474709
O14   O     O_3   0.028940 0.612400 0.656050 -0.440548
O15   O     O_3   0.028940 0.387600 0.156050 -0.440534
O16   O     O_3   0.528940 0.112400 0.656050 -0.440567
O17   O     O_3   0.528940 0.887600 0.156050 -0.440556
O18   O     O_2   0.169388 0.645811 0.836486 -0.479063
O19   O     O_2   0.169385 0.354211 0.336469 -0.478973
O20   O     O_2   0.669410 0.145791 0.836458 -0.479013
O21   O     O_2   0.669397 0.854219 0.336451 -0.479014
O22   O     O_3   0.253132 0.511904 0.210217 -0.656211
O23   O     O_2   0.663830 0.069270 0.980510 -0.470095
O24   O     O_3   0.253161 0.488105 0.710229 -0.656240
O25   O     O_3   0.753133 0.011907 0.210235 -0.656218
O26   O     O_3   0.753158 0.988104 0.710252 -0.656230
O27   O     O_3   0.067868 0.711962 0.701244 -0.607219
O28   O     O_3   0.067837 0.288041 0.201296 -0.607243
O29   O     O_3   0.567914 0.211965 0.701341 -0.607136
O30   O     O_3   0.567846 0.788043 0.201326 -0.607155
O31   O     O_2   0.837400 0.570350 0.710350 -0.437487
O32   O     O_2   0.837400 0.429650 0.210350 -0.437572
O33   O     O_2   0.337400 0.070350 0.710350 -0.437425
O34   O     O_2   0.663830 0.930730 0.480510 -0.470076
O35   O     O_2   0.337400 0.929650 0.210350 -0.437422
O36   O     O_3   0.972820 0.612580 0.035550 -0.477940
O37   O     O_3   0.972820 0.387420 0.535550 -0.477917
O38   O     O_3   0.472820 0.112580 0.035550 -0.478061
O39   O     O_3   0.472820 0.887420 0.535550 -0.477957
O40   O     O_2   0.826538 0.635118 0.877834 -0.388931
O41   O     O_2   0.826540 0.364836 0.377698 -0.388761
O42   O     O_2   0.326495 0.135137 0.877707 -0.388555
O43   O     O_2   0.326527 0.864844 0.377704 -0.388746
O44   O     O_3   0.748196 0.513783 0.516472 -0.651130
O45   O     O_3   0.748231 0.486213 0.016487 -0.651148
O46   O     O_3   0.248250 0.013744 0.516506 -0.651120
O47   O     O_3   0.248223 0.986206 0.016515 -0.651138
O48   O     O_3   0.914259 0.708779 0.952729 -0.520133
P1    P     P_3+3 0.171820 0.553000 0.158080 0.961435
P2    P     P_3+3 0.892223 0.347134 0.521925 1.041877
P3    P     P_3+3 0.392220 0.152855 0.021893 1.041851
P4    P     P_3+3 0.392217 0.847131 0.521903 1.041824
P5    P     P_3+3 0.106529 0.345084 0.175454 0.997761
P6    P     P_3+3 0.106547 0.654923 0.675455 0.997644
P7    P     P_3+3 0.606530 0.845085 0.175455 0.997695
P8    P     P_3+3 0.606557 0.154922 0.675457 0.997662
P9    P     P_3+3 0.171820 0.447000 0.658080 0.961445
P10   P     P_3+3 0.671820 0.053000 0.158080 0.961456
P11   P     P_3+3 0.671820 0.947000 0.658080 0.961448
P12   P     P_3+3 0.829210 0.554130 0.532500 0.981191
P13   P     P_3+3 0.829210 0.445870 0.032500 0.981180
P14   P     P_3+3 0.329210 0.054130 0.532500 0.981313
P15   P     P_3+3 0.329210 0.945870 0.032500 0.981262
P16   P     P_3+3 0.892249 0.652861 0.021967 1.041699

loop_
_geom_bond_atom_site_label_1
_geom_bond_atom_site_label_2
_ccdc_geom_bond_type
C52   C65   S    
C17   C79   S    
C104  H88   S    
C8    C106  S    
C113  H145  S    
Ba1   O14   S    
C113  H143  S    
O15   P5    S    
C2    C9    S    
Ba3   O16   S    
C1    H97   S    
C16   H45   S    
C107  H125  S    
C88   C92   S    
O33   P14   D    
C26   P2    S    
O23   P10   D    
C85   H65   S    
C32   C41   S    
C82   O46   S    
C34   C43   S    
O16   P8    S    
C60   O4    S    
C15   H41   S    
C109  H130  S    
Ba1   P1    S    
C17   H49   S    
C12   H36   S    
Ba1   O6    S    
C81   O47   S    
Ba3   O8    S    
C78   H110  S    
C7    H18   S    
O20   P8    D    
O7    P15   S    
C110  H134  S    
C21   C38   A    
C58   O2    S    
C112  H140  S    
C5    H14   S    
C97   H75   S    
C105  H122  S    
O21   P7    D    
C99   H78   S    
C51   C113  S    
C81   H117  S    
C94   H69   S    
C30   C104  D    
C61   H80   S    
C48   C53   S    
C43   C45   D    
O4    P4    S    
C67   C73   S    
C15   C59   S    
Ba2   O9    S    
C64   H82   S    
C90   O25   S    
C114  H148  S    
C6    C77   S    
Ba2   O15   S    
C4    H10   S    
C101  H84   S    
O17   P7    S    
C46   H95   S    
C16   H47   S    
C10   H29   S    
C85   H109  S    
C7    H20   S    
C8    H23   S    
C12   H37   S    
Ba4   O11   S    
C26   C31   A    
Ba1   O1    S    
C40   C112  S    
C53   C70   S    
C27   P16   S    
C92   H67   S    
C88   H35   S    
C115  H150  S    
O6    P12   S    
C47   H96   S    
C13   C24   A    
C77   H108  S    
C46   C55   S    
C9    H25   S    
C88   C105  S    
C31   C35   A    
C32   C36   A    
C22   C106  A    
C93   H63   S    
C94   H64   S    
C45   C54   S    
Ba3   P10   S    
C25   C104  S    
C60   H105  S    
C52   C56   S    
C6    H15   S    
C44   H93   S    
O39   P4    S    
Ba2   O12   S    
C58   H103  S    
C1    C97   S    
C16   H44   S    
C10   C13   S    
C11   H31   S    
C4    C75   S    
C114  H146  S    
C24   P15   S    
Ba4   P11   S    
C80   C85   S    
C13   C37   A    
C14   H39   S    
Ba4   O7    S    
C75   H111  S    
C4    H8    S    
C18   C80   S    
C2    C36   A    
O14   P6    S    
C74   P7    S    
C73   H90   S    
C86   H120  S    
C107  H123  S    
C60   C78   S    
C108  H126  S    
C87   H131  S    
C111  H136  S    
O8    P14   S    
C9    H27   S    
C5    H11   S    
C30   P3    S    
Br7   C42   S    
Ba2   O5    S    
O18   P6    D    
C78   H114  S    
O38   P3    S    
C96   H66   S    
Ba3   Ba4   S    
C79   O45   S    
C116  H3    S    
C83   H142  S    
O30   P7    S    
C76   H107  S    
C18   H52   S    
C20   H59   S    
C64   C68   D    
C100  H79   S    
C27   C32   A    
O19   P5    D    
C87   H24   S    
C97   O27   S    
C98   O28   S    
C59   O3    S    
C108  H127  S    
C7    C78   S    
C94   H73   S    
C111  H138  S    
C63   C67   D    
O2    P2    S    
C8    H22   S    
C98   H77   S    
Br8   C43   S    
C79   C83   S    
Ba1   O36   S    
C67   P9    S    
O13   P11   S    
O43   P4    D    
C115  H151  S    
C59   H104  S    
C116  H152  S    
C109  H129  S    
O46   P14   S    
C93   H68   S    
C69   C95   S    
C19   H56   S    
Br5   C39   S    
C6    H17   S    
Ba1   O5    S    
C40   C116  S    
C3    H6    S    
C22   C101  S    
Ba3   O7    S    
Ba3   O33   S    
C85   H2    S    
Br4   C100  S    
C110  H135  S    
C28   C103  D    
C76   H112  S    
C48   C61   S    
O24   P9    S    
C30   C34   A    
Br6   C41   S    
C29   C115  S    
C89   O24   S    
O48   P16   S    
C54   C71   S    
C40   H100  S    
C35   C106  A    
C74   C95   A    
C23   P12   S    
C91   H61   S    
O10   P9    S    
O5    P13   S    
C57   C75   S    
C51   H101  S    
C50   C64   S    
C16   C60   S    
C62   C70   A    
O3    P3    S    
Ba4   O35   S    
O26   P11   S    
C45   H94   S    
O36   P16   S    
C28   C33   A    
C90   H57   S    
C113  H144  S    
Ba3   O13   S    
C26   C101  D    
C105  H121  S    
Ba2   P9    S    
C10   H30   S    
C7    H19   S    
O41   P2    D    
O44   P12   S    
C33   C37   A    
C91   O26   S    
C39   C46   D    
C115  H149  S    
Ba1   P12   S    
C82   H118  S    
C15   H42   S    
C1    C114  S    
O9    P1    S    
C71   C73   A    
C17   H50   S    
C19   H54   S    
C14   C58   S    
C18   H53   S    
Ba4   O17   S    
C17   H48   S    
O28   P5    S    
C90   C108  S    
C21   C25   A    
C72   P8    S    
C63   H81   S    
C100  O30   S    
C110  H133  S    
O37   P2    S    
C84   H91   S    
C9    H26   S    
C112  H139  S    
C66   P1    S    
C20   H58   S    
C6    H16   S    
O27   P6    S    
C31   C39   S    
Br1   C97   S    
Br3   C99   S    
Ba1   O10   S    
C96   H70   S    
C109  H132  S    
O35   P15   D    
C95   H92   S    
C99   O29   S    
C62   C66   S    
C83   H1    S    
C107  H124  S    
O22   P1    S    
C28   P4    S    
C80   O44   S    
C22   P13   S    
C57   O48   S    
C20   C82   S    
C114  H147  S    
C29   H99   S    
C5    C76   S    
C56   C74   S    
C4    H9    S    
O25   P10   S    
C58   C76   S    
C41   C47   D    
C10   H28   S    
C49   C63   S    
C14   H40   S    
Ba4   O8    S    
C75   H106  S    
C50   C55   S    
C86   H76   S    
C3    H7    S    
C44   C53   S    
C23   C102  S    
Ba1   Ba2   S    
C72   C84   A    
Ba3   O38   S    
C51   C100  S    
C96   H74   S    
C49   C54   S    
C93   H72   S    
C11   C21   S    
C18   H51   S    
C91   C96   S    
C65   C69   D    
C68   C84   S    
Ba2   O6    S    
Ba1   O31   S    
C55   C72   S    
Ba2   O32   S    
Br2   C98   S    
C102  H85   S    
C89   H46   S    
C116  H4    S    
Ba3   O23   S    
O11   P10   S    
C12   C57   S    
C105  H119  S    
C89   C93   S    
C42   C44   D    
C112  H141  S    
C20   H60   S    
C89   C107  S    
C70   P6    S    
O29   P8    S    
Ba4   O34   S    
C2    C23   A    
Ba4   P15   S    
C40   C99   S    
C19   C81   S    
C103  H86   S    
C108  H128  S    
C47   C56   S    
C111  H137  S    
C59   C77   S    
O12   P9    D    
C61   C66   D    
C27   C102  D    
C92   H62   S    
C11   H32   S    
C71   P5    S    
Ba4   O39   S    
O47   P15   S    
C79   H115  S    
C33   C42   S    
C29   C98   S    
C86   H13   S    
C92   H71   S    
C77   H113  S    
C8    H21   S    
C15   H43   S    
O45   P13   S    
Ba2   P13   S    
C14   H38   S    
C19   H55   S    
C12   H34   S    
C3    H5    S    
C34   C38   A    
Ba2   O37   S    
C29   C111  S    
C83   H98   S    
C57   H102  S    
Ba3   P14   S    
C1    C110  S    
C80   H116  S    
O32   P13   D    
C87   H87   S    
C82   C87   S    
O42   P3    D    
C62   H89   S    
C69   P11   S    
C90   C94   S    
C5    H12   S    
O1    P1    D    
C88   O22   S    
C65   H83   S    
C25   P14   S    
C68   P10   S    
C3    C51   S    
O31   P12   D    
C24   C103  S    
O34   P11   D    
C81   C86   S    
O40   P16   D    
C11   H33   S    
C91   C109  S    
