data_mof_unit_61820.cif
_audit_creation_date              2012-12-10T19:46:58-0500
_audit_creation_method            fapswitch 2.2
_symmetry_space_group_name_H-M    P1
_symmetry_Int_Tables_number       1
_space_group_crystal_system       monoclinic
_cell_length_a                    28.378083
_cell_length_b                    18.270232
_cell_length_c                    21.701283
_cell_angle_alpha                 90.0
_cell_angle_beta                  139.956031
_cell_angle_gamma                 90.0
_cell_volume                      7238.97207724

loop_
_atom_site_label
_atom_site_type_symbol
_atom_type_description
_atom_site_fract_x
_atom_site_fract_y
_atom_site_fract_z
_atom_type_partial_charge
C1    C     C_R   0.858741 0.500006 0.858874 0.910673
C2    C     C_R   0.940344 0.483627 0.221474 -0.183601
C3    C     C_R   0.559656 0.983627 0.778525 -0.183600
C4    C     C_R   0.440343 0.016371 0.221474 -0.183599
C5    C     C_R   0.999680 0.486582 0.687003 -0.081239
C6    C     C_R   0.000320 0.513417 0.312997 -0.081238
C7    C     C_R   0.499680 0.013417 0.687003 -0.081238
C8    C     C_R   0.500319 0.986582 0.312997 -0.081239
C9    C     C_1   0.782257 0.500040 0.782430 -0.164626
C10   C     C_1   0.217743 0.499960 0.217570 -0.164627
C11   C     C_1   0.282257 0.999960 0.782430 -0.164626
C12   C     C_R   0.141259 0.499994 0.141126 0.910673
C13   C     C_1   0.717743 0.000040 0.217570 -0.164626
C14   C     C_1   0.717454 0.500084 0.717626 -0.140664
C15   C     C_1   0.282546 0.499916 0.282374 -0.140664
C16   C     C_1   0.217454 0.999916 0.717626 -0.140664
C17   C     C_1   0.782546 0.000084 0.282374 -0.140664
C18   C     C_R   0.999874 0.641234 0.502218 0.947488
C19   C     C_R   0.000126 0.358766 0.497782 0.947486
C20   C     C_R   0.500126 0.141234 0.497782 0.947488
C21   C     C_R   0.499874 0.858765 0.502218 0.947487
C22   C     C_R   0.999887 0.493828 0.620383 0.893169
C23   C     C_R   0.358741 0.999994 0.858874 0.910673
C24   C     C_R   0.000113 0.506172 0.379617 0.893170
C25   C     C_R   0.499887 0.006172 0.620383 0.893170
C26   C     C_R   0.500113 0.993828 0.379617 0.893170
C27   C     C_R   0.499832 0.640954 0.499935 0.917306
C28   C     C_R   0.500168 0.359046 0.500065 0.917306
C29   C     C_R   0.000168 0.140954 0.500065 0.917306
C30   C     C_R   0.999832 0.859046 0.499935 0.917306
C31   C     C_R   0.640957 0.500065 0.641020 0.922584
C32   C     C_R   0.359043 0.499935 0.358980 0.922585
C33   C     C_R   0.140957 0.999935 0.641020 0.922584
C34   C     C_R   0.641259 0.000006 0.141126 0.910673
C35   C     C_R   0.859043 0.000065 0.358980 0.922585
C36   C     C_1   0.999548 0.717788 0.501494 -0.143775
C37   C     C_1   0.000452 0.282212 0.498506 -0.143775
C38   C     C_1   0.500452 0.217788 0.498506 -0.143775
C39   C     C_1   0.499548 0.782212 0.501494 -0.143776
C40   C     C_R   0.000273 0.500240 0.880176 0.857280
C41   C     C_R   0.999727 0.499760 0.119824 0.857281
C42   C     C_R   0.500273 0.999760 0.880176 0.857280
C43   C     C_R   0.499727 0.000240 0.119824 0.857281
C44   C     C_1   0.500424 0.282568 0.499631 -0.138746
C45   C     C_R   0.058686 0.521484 0.840818 -0.202861
C46   C     C_1   0.499576 0.717432 0.500369 -0.138747
C47   C     C_1   0.999576 0.782568 0.500369 -0.138746
C48   C     C_1   0.000423 0.217432 0.499631 -0.138747
C49   C     C_R   0.867578 0.461359 0.683113 -0.243898
C50   C     C_R   0.132421 0.538643 0.316886 -0.243897
C51   C     C_R   0.367579 0.038642 0.683114 -0.243897
C52   C     C_R   0.632422 0.961359 0.316887 -0.243898
C53   C     C_R   0.807417 0.431068 0.592777 0.158787
C54   C     C_R   0.192582 0.568935 0.407221 0.158788
C55   C     C_R   0.307418 0.068934 0.592779 0.158788
C56   C     C_R   0.941315 0.478514 0.159183 -0.202860
C57   C     C_R   0.692583 0.931068 0.407222 0.158788
C58   C     C_R   0.814988 0.405836 0.539670 0.161408
C59   C     C_R   0.185010 0.594167 0.460328 0.161409
C60   C     C_R   0.314989 0.094167 0.539671 0.161409
C61   C     C_R   0.685012 0.905836 0.460330 0.161408
C62   C     C_R   0.882663 0.414502 0.577046 0.097065
C63   C     C_R   0.117335 0.585500 0.422953 0.097064
C64   C     C_R   0.382665 0.085500 0.577047 0.097064
C65   C     C_R   0.617337 0.914502 0.422954 0.097065
C66   C     C_R   0.938123 0.459141 0.658638 0.014877
C67   C     C_R   0.558685 0.978514 0.840817 -0.202861
C68   C     C_R   0.061876 0.540859 0.341362 0.014877
C69   C     C_R   0.438124 0.040859 0.658638 0.014877
C70   C     C_R   0.561877 0.959141 0.341362 0.014877
C71   C     C_R   0.933715 0.474172 0.717580 0.036093
C72   C     C_R   0.066284 0.525828 0.282419 0.036094
C73   C     C_R   0.433716 0.025828 0.717581 0.036093
C74   C     C_R   0.566285 0.974172 0.282419 0.036092
C75   C     C_R   0.996297 0.500652 0.810535 -0.037511
C76   C     C_R   0.003703 0.499347 0.189465 -0.037511
C77   C     C_R   0.496297 0.999347 0.810535 -0.037511
C78   C     C_R   0.441314 0.021485 0.159182 -0.202861
C79   C     C_R   0.503703 0.000652 0.189464 -0.037511
C80   C     C_R   0.059657 0.516371 0.778526 -0.183599
H1    H     H_    0.106466 0.542246 0.912631 0.148133
H2    H     H_    0.892768 0.463169 0.198225 0.172832
H3    H     H_    0.607232 0.963169 0.801774 0.172832
H4    H     H_    0.392766 0.036828 0.198224 0.172832
H5    H     H_    0.893535 0.457750 0.087370 0.148134
H6    H     H_    0.606465 0.957750 0.912630 0.148134
H7    H     H_    0.393534 0.042247 0.087369 0.148133
H8    H     H_    0.861672 0.476227 0.725208 0.161702
H9    H     H_    0.138328 0.523775 0.274791 0.161703
H10   H     H_    0.361672 0.023775 0.725209 0.161703
H11   H     H_    0.638328 0.976227 0.274792 0.161703
H12   H     H_    0.107234 0.536827 0.801776 0.172832
I1    I     I_    0.709768 0.417581 0.546607 -0.280468
I2    I     I_    0.086261 0.671408 0.451789 -0.294324
I3    I     I_    0.413739 0.171408 0.548211 -0.294324
I4    I     I_    0.586264 0.828593 0.451792 -0.294323
I5    I     I_    0.290230 0.582424 0.453391 -0.280468
I6    I     I_    0.209769 0.082422 0.546607 -0.280468
I7    I     I_    0.790232 0.917581 0.453394 -0.280467
I8    I     I_    0.725802 0.351990 0.405531 -0.233705
I9    I     I_    0.274195 0.648015 0.594465 -0.233704
I10   I     I_    0.225805 0.148014 0.405534 -0.233705
I11   I     I_    0.774198 0.851990 0.594469 -0.233705
I12   I     I_    0.913736 0.328593 0.548208 -0.294323
O1    O     O_R   0.892670 0.439420 0.892670 -0.615424
O2    O     O_R   0.000010 0.560580 0.091620 -0.611454
O3    O     O_R   0.000010 0.439420 0.091620 -0.615031
O4    O     O_R   0.999990 0.560580 0.908380 -0.615031
O5    O     O_R   0.499990 0.939420 0.908380 -0.615032
O6    O     O_R   0.500010 0.060580 0.091620 -0.615031
O7    O     O_R   0.500010 0.939420 0.091620 -0.611454
O8    O     O_R   0.499990 0.060580 0.908380 -0.611454
O9    O     O_R   0.060590 0.607350 0.560620 -0.598133
O10   O     O_R   0.939410 0.392650 0.439380 -0.598133
O11   O     O_R   0.939410 0.607350 0.439380 -0.616613
O12   O     O_R   0.107330 0.560580 0.107330 -0.615424
O13   O     O_R   0.060590 0.392650 0.560620 -0.616614
O14   O     O_R   0.560590 0.107350 0.560620 -0.616613
O15   O     O_R   0.439410 0.892650 0.439380 -0.616613
O16   O     O_R   0.439410 0.107350 0.439380 -0.598133
O17   O     O_R   0.560590 0.892650 0.560620 -0.598133
O18   O     O_R   0.060610 0.500000 0.652240 -0.629620
O19   O     O_R   0.939390 0.500000 0.347760 -0.629620
O20   O     O_R   0.560610 0.000000 0.652240 -0.629620
O21   O     O_R   0.439390 0.000000 0.347760 -0.629621
O22   O     O_R   0.939430 0.500000 0.531050 -0.603861
O23   O     O_R   0.107330 0.439420 0.107330 -0.610180
O24   O     O_R   0.060570 0.500000 0.468950 -0.603861
O25   O     O_R   0.439430 0.000000 0.531050 -0.603861
O26   O     O_R   0.560570 0.000000 0.468950 -0.603861
O27   O     O_R   0.500010 0.607330 0.448300 -0.606035
O28   O     O_R   0.499990 0.392670 0.551700 -0.606035
O29   O     O_R   0.499990 0.607330 0.551700 -0.610900
O30   O     O_R   0.500010 0.392670 0.448300 -0.610900
O31   O     O_R   0.000010 0.107330 0.448300 -0.610900
O32   O     O_R   0.999990 0.892670 0.551700 -0.610900
O33   O     O_R   0.999990 0.107330 0.551700 -0.606035
O34   O     O_R   0.892670 0.560580 0.892670 -0.610180
O35   O     O_R   0.000010 0.892670 0.448300 -0.606035
O36   O     O_R   0.607330 0.500000 0.555630 -0.587618
O37   O     O_R   0.392670 0.500000 0.444370 -0.587618
O38   O     O_R   0.107330 0.000000 0.555630 -0.587619
O39   O     O_R   0.892670 0.000000 0.444370 -0.587618
O40   O     O_R   0.607340 0.500000 0.659080 -0.627040
O41   O     O_R   0.392660 0.500000 0.340920 -0.627041
O42   O     O_R   0.107340 0.000000 0.659080 -0.627040
O43   O     O_R   0.892660 0.000000 0.340920 -0.627041
O44   O     O_R   0.392670 0.939420 0.892670 -0.610179
O45   O     O_R   0.607330 0.060580 0.107330 -0.610180
O46   O     O_R   0.607330 0.939420 0.107330 -0.615424
O47   O     O_R   0.392670 0.060580 0.892670 -0.615424
O48   O     O_R   0.999990 0.439420 0.908380 -0.611454
Zn1   Zn    Zn3+2 0.000000 0.419100 0.000000 1.013753
Zn2   Zn    Zn3+2 0.500000 0.500000 0.569060 1.039793
Zn3   Zn    Zn3+2 0.000000 0.000000 0.430940 1.039792
Zn4   Zn    Zn3+2 0.000000 0.000000 0.569060 1.039793
Zn5   Zn    Zn3+2 0.000000 0.580900 0.000000 1.013753
Zn6   Zn    Zn3+2 0.500000 0.919100 0.000000 1.013753
Zn7   Zn    Zn3+2 0.500000 0.080900 0.000000 1.013753
Zn8   Zn    Zn3+2 0.080920 0.500000 0.580940 1.024380
Zn9   Zn    Zn3+2 0.919080 0.500000 0.419060 1.024381
Zn10  Zn    Zn3+2 0.580920 0.000000 0.580940 1.024381
Zn11  Zn    Zn3+2 0.419080 0.000000 0.419060 1.024380
Zn12  Zn    Zn3+2 0.500000 0.500000 0.430940 1.039792

loop_
_geom_bond_atom_site_label_1
_geom_bond_atom_site_label_2
_ccdc_geom_bond_type
C78   H7    S    
C58   C62   A    
O1    Zn1   S    
O11   Zn9   S    
C56   C76   A    
O8    Zn7   S    
C8    C26   S    
C67   C77   A    
C14   C31   S    
C72   C76   A    
C25   O25   A    
O23   Zn1   S    
C20   O14   A    
C34   O46   A    
O39   Zn4   S    
C15   C32   S    
C12   O23   A    
C2    C6    A    
C4    C78   A    
C63   I2    S    
C40   O48   A    
C50   C54   A    
C28   O30   A    
C61   I11   S    
C42   O5    A    
C3    C7    A    
C52   C74   A    
C10   C15   T    
C51   H10   S    
O32   Zn4   S    
C49   C53   A    
O37   Zn2   S    
C22   O22   A    
C43   C79   S    
C65   C70   A    
C57   I7    S    
O31   Zn3   S    
O25   Zn11  S    
C36   C47   T    
C31   O40   A    
C50   C72   A    
C42   O8    A    
C19   C37   S    
O16   Zn11  S    
C65   I4    S    
C5    C22   S    
C4    H4    S    
C70   C74   A    
O28   Zn2   S    
C54   I5    S    
C69   C73   A    
C43   O6    A    
O38   Zn3   S    
O22   Zn9   S    
O43   Zn3   S    
C45   C75   A    
C62   I12   S    
C26   O26   A    
C4    C8    A    
C40   O4    A    
O26   Zn10  S    
C6    C68   A    
C55   C60   A    
O13   Zn8   S    
O40   Zn2   S    
C49   H8    S    
O21   Zn11  S    
C43   O7    A    
C60   I10   S    
O5    Zn6   S    
C18   O9    A    
C34   O45   A    
C22   O18   A    
O20   Zn10  S    
C54   C59   A    
C45   H1    S    
C41   O2    A    
C62   C66   A    
C29   C48   S    
C53   I1    S    
O29   Zn2   S    
C59   I9    S    
C30   C47   S    
C1    C9    S    
C33   O42   A    
O15   Zn11  S    
C78   C79   A    
O10   Zn9   S    
C35   O43   A    
O4    Zn5   S    
C19   O10   A    
C28   C44   S    
C24   O19   A    
C27   O27   A    
O33   Zn4   S    
C37   C48   T    
C26   O21   A    
O47   Zn7   S    
C80   H12   S    
C9    C14   T    
C38   C44   T    
C61   C65   A    
C16   C33   S    
C20   C38   S    
C11   C16   T    
C50   H9    S    
C66   C71   A    
C21   C39   S    
O35   Zn3   S    
C68   C72   A    
C6    C24   S    
C58   I8    S    
O44   Zn6   S    
C64   C69   A    
C5    C80   A    
O45   Zn7   S    
C32   O37   A    
O3    Zn1   S    
C10   C12   S    
C39   C46   T    
C27   C46   S    
C29   O31   A    
C30   O32   A    
C74   C79   A    
C3    H3    S    
C2    H2    S    
C20   O16   A    
O24   Zn8   S    
C23   O47   A    
C63   C68   A    
O14   Zn10  S    
C67   H6    S    
O18   Zn8   S    
C30   O35   A    
O46   Zn6   S    
C8    C70   A    
O7    Zn6   S    
C3    C67   A    
C51   C73   A    
C64   I3    S    
C5    C66   A    
C18   O11   A    
C7    C69   A    
C53   C58   A    
C57   C61   A    
C32   O41   A    
O41   Zn12  S    
C33   O38   A    
O36   Zn12  S    
O2    Zn5   S    
C29   O33   A    
C23   O44   A    
C59   C63   A    
C7    C25   S    
C40   C75   S    
C13   C17   T    
C60   C64   A    
O12   Zn5   S    
C21   O15   A    
C2    C56   A    
C41   C76   S    
C71   C75   A    
O34   Zn5   S    
C56   H5    S    
O27   Zn12  S    
O19   Zn9   S    
O17   Zn10  S    
C55   I6    S    
C11   C23   S    
O30   Zn12  S    
C45   C80   A    
C51   C55   A    
O9    Zn8   S    
C21   O17   A    
C25   O20   A    
C52   C57   A    
C1    O34   A    
C41   O3    A    
C13   C34   S    
O42   Zn4   S    
O48   Zn1   S    
C19   O13   A    
C42   C77   S    
C49   C71   A    
C27   O29   A    
C1    O1    A    
C24   O24   A    
C73   C77   A    
C52   H11   S    
C17   C35   S    
C28   O28   A    
C31   O36   A    
C18   C36   S    
O6    Zn7   S    
C35   O39   A    
C12   O12   A    
