data_mof_unit_16758.cif
_audit_creation_date              2012-12-11T17:10:40-0500
_audit_creation_method            fapswitch 2.2
_symmetry_space_group_name_H-M    P1
_symmetry_Int_Tables_number       1
_space_group_crystal_system       triclinic
_cell_length_a                    15.040878
_cell_length_b                    14.884709
_cell_length_c                    14.879826
_cell_angle_alpha                 109.132958
_cell_angle_beta                  109.936354
_cell_angle_gamma                 108.662309
_cell_volume                      2585.53607146

loop_
_atom_site_label
_atom_site_type_symbol
_atom_type_description
_atom_site_fract_x
_atom_site_fract_y
_atom_site_fract_z
_atom_type_partial_charge
C1    C     C_R   0.185912 0.276139 0.241217 0.458940
C2    C     C_R   0.452917 0.449781 0.776740 0.051221
C3    C     C_R   0.561533 0.195024 0.499373 0.076389
C4    C     C_R   0.207512 0.576341 0.504986 0.009469
C5    C     C_R   0.474499 0.720768 0.406582 -0.143426
C6    C     C_R   0.812889 0.559467 0.590973 -0.089459
C7    C     C_R   0.496947 0.404879 0.197157 -0.156197
C8    C     C_R   0.710201 0.799975 0.803331 -0.203118
C9    C     C_R   0.797300 0.704113 0.802741 0.395679
C10   C     C_R   0.405962 0.496457 0.195127 -0.071396
C11   C     C_R   0.563082 0.813588 0.590138 -0.115258
C12   C     C_R   0.526127 0.432590 0.746823 -0.098700
C13   C     C_R   0.722238 0.462473 0.406773 -0.129779
C14   C     C_R   0.547879 0.823385 0.496864 0.058201
C15   C     C_R   0.823404 0.533130 0.498861 0.026572
C16   C     C_R   0.436893 0.435178 0.132730 0.084611
C17   C     C_R   0.801409 0.797994 0.864075 -0.008200
C18   C     C_R   0.220785 0.793990 0.370239 -0.121606
C19   C     C_R   0.190149 0.747053 0.429527 -0.135217
C20   C     C_R   0.085200 0.660135 0.379751 0.107860
C21   C     C_R   0.011548 0.621671 0.269667 -0.140438
C22   C     C_R   0.042651 0.668806 0.210612 -0.108676
C23   C     C_R   0.503077 0.199978 0.408770 -0.147819
C24   C     C_R   0.147166 0.754851 0.260834 -0.095585
C25   C     C_R   0.953642 0.594161 0.440223 -0.239197
C26   C     C_R   0.924015 0.551245 0.502672 0.074432
C27   C     C_R   0.992074 0.527190 0.571050 0.007063
C28   C     C_R   0.089607 0.547853 0.577050 -0.222345
C29   C     C_R   0.118080 0.585718 0.511630 0.074857
C30   C     C_R   0.051956 0.611887 0.443663 0.025623
C31   C     C_R   0.005428 0.518386 0.739847 -0.131995
C32   C     C_R   0.983844 0.457844 0.791766 -0.021933
C33   C     C_R   0.919225 0.344728 0.729969 -0.122504
C34   C     C_R   0.297244 0.600903 0.593617 -0.165252
C35   C     C_R   0.875022 0.292294 0.616085 -0.113919
C36   C     C_R   0.893558 0.352774 0.563579 -0.121280
C37   C     C_R   0.959417 0.466093 0.625274 0.097987
C38   C     C_R   0.453974 0.347293 0.878968 0.147941
C39   C     C_R   0.409123 0.401532 0.833333 0.031826
C40   C     C_R   0.336502 0.426443 0.861910 -0.171896
C41   C     C_R   0.333525 0.424490 0.954303 -0.147039
C42   C     C_R   0.402163 0.396268 0.016583 0.026546
C43   C     C_R   0.450043 0.344295 0.969169 0.153789
C44   C     C_3   0.560734 0.355785 0.018624 -0.510316
C45   C     C_R   0.593030 0.288878 0.590880 -0.128642
C46   C     C_3   0.565570 0.359833 0.920588 -0.494475
C47   C     C_R   0.556558 0.928622 0.396355 0.119295
C48   C     C_R   0.593744 0.924531 0.494420 0.003720
C49   C     C_R   0.659161 0.023957 0.593578 -0.176632
C50   C     C_R   0.657716 0.117731 0.595402 -0.236547
C51   C     C_R   0.596076 0.113681 0.497341 0.051844
C52   C     C_R   0.557929 0.022386 0.398201 0.092203
C53   C     C_3   0.453708 0.960820 0.291975 -0.617381
C54   C     C_3   0.451890 0.858000 0.289357 0.319019
C55   C     C_R   0.982379 0.057136 0.126188 0.187464
C56   C     C_R   0.204608 0.512274 0.412175 -0.041707
C57   C     C_R   0.082821 0.072819 0.137340 0.104948
C58   C     C_R   0.088746 0.998042 0.056223 -0.217886
C59   C     C_R   0.995854 0.905950 0.969324 -0.146418
C60   C     C_R   0.895741 0.886346 0.962889 0.083503
C61   C     C_R   0.889439 0.963892 0.039937 -0.097174
C62   C     C_3   0.840147 0.957611 0.112030 0.525371
C63   C     C_3   0.943260 0.061667 0.206632 -0.640078
C64   C     C_R   0.436798 0.527241 0.751131 -0.093060
C65   C     C_R   0.280804 0.186687 0.251021 -0.221777
C66   C     C_R   0.178328 0.174738 0.216683 -0.046446
H1    H     H_    0.876941 0.611624 0.675088 0.149953
H2    H     H_    0.517083 0.341368 0.169979 0.104126
H3    H     H_    0.683862 0.857757 0.831803 0.121807
H4    H     H_    0.345384 0.519553 0.165577 0.113779
H5    H     H_    0.614949 0.876580 0.674789 0.097260
H6    H     H_    0.702591 0.422887 0.322135 0.104380
H7    H     H_    0.171000 0.791413 0.215105 0.119520
H8    H     H_    0.301474 0.861235 0.409483 0.109033
H9    H     H_    0.247898 0.779548 0.514683 0.113872
H10   H     H_    0.553520 0.374715 0.750200 0.105788
H11   H     H_    0.930364 0.554767 0.229284 0.121236
H12   H     H_    0.985608 0.638726 0.125903 0.143144
H13   H     H_    0.900645 0.614348 0.390151 0.134133
H14   H     H_    0.139229 0.523947 0.625869 0.135371
H15   H     H_    0.058440 0.605605 0.788635 0.131021
H16   H     H_    0.018905 0.498351 0.880028 0.133507
H17   H     H_    0.904609 0.297639 0.770460 0.121852
H18   H     H_    0.828106 0.204578 0.568398 0.139698
H19   H     H_    0.860213 0.311103 0.475506 0.118525
H20   H     H_    0.293194 0.460786 0.823030 0.131449
H21   H     H_    0.483841 0.152696 0.325674 0.110197
H22   H     H_    0.288172 0.457512 0.983298 0.142703
H23   H     H_    0.621011 0.433727 0.096349 0.205795
H24   H     H_    0.558812 0.281517 0.021503 0.190993
H25   H     H_    0.628653 0.440395 0.943514 0.214879
H26   H     H_    0.567133 0.288253 0.867519 0.189616
H27   H     H_    0.698587 0.027412 0.671384 0.133762
H28   H     H_    0.695526 0.188840 0.674316 0.136269
H29   H     H_    0.386718 0.970905 0.301478 0.167577
H30   H     H_    0.464671 0.974260 0.226390 0.237111
H31   H     H_    0.382131 0.809068 0.294135 0.059147
H32   H     H_    0.328453 0.657285 0.678595 0.110736
H33   H     H_    0.164356 0.012107 0.057139 0.138710
H34   H     H_    0.002501 0.851889 0.905548 0.155402
H35   H     H_    0.769292 0.971377 0.086760 0.064430
H36   H     H_    0.929892 0.132812 0.233583 0.207733
H37   H     H_    0.992791 0.053244 0.275083 0.205111
H38   H     H_    0.653809 0.320222 0.674286 0.116488
H39   H     H_    0.152214 0.493227 0.330391 0.171045
H40   H     H_    0.384383 0.559619 0.762644 0.100331
H41   H     H_    0.303319 0.123491 0.239928 0.129677
H42   H     H_    0.447811 0.696607 0.321653 0.147633
N1    N     N_R   0.291070 0.347930 0.293870 -0.082746
N2    N     N_R   0.708930 0.502750 0.556810 -0.032571
N3    N     N_R   0.502760 0.445970 0.293860 -0.041683
N4    N     N_R   0.652110 0.708890 0.706130 -0.061312
N5    N     N_R   0.708930 0.652070 0.706130 -0.075847
N6    N     N_R   0.445950 0.502780 0.293850 -0.049179
N7    N     N_R   0.502760 0.708900 0.556790 -0.042012
N8    N     N_R   0.652110 0.445950 0.443190 -0.043795
N9    N     N_R   0.554050 0.497220 0.706150 -0.032894
N10   N     N_R   0.497240 0.291100 0.443210 -0.042022
N11   N     N_R   0.347890 0.554050 0.556810 -0.046049
N12   N     N_R   0.554050 0.347900 0.556830 -0.040826
N13   N     N_R   0.291070 0.497250 0.443190 -0.051650
N14   N     N_R   0.497240 0.554030 0.706140 -0.045651
N15   N     N_R   0.347890 0.291110 0.293870 -0.059568
N16   N     N_R   0.445950 0.652100 0.443170 -0.045286
Ni1   Ni    Ni4+2 0.369690 0.500010 0.369700 0.241117
Ni2   Ni    Ni4+2 0.630310 0.499990 0.630300 0.273928
Ni3   Ni    Ni4+2 0.500000 0.369720 0.369720 0.202944
Ni4   Ni    Ni4+2 0.500000 0.630280 0.630280 0.212281
Cl1   Cl    Cl    0.080786 0.299623 0.176492 -0.739973
Cl2   Cl    Cl    0.862236 0.639190 0.856332 -0.780039
Cl3   Cl    Cl    0.469011 0.783218 0.181012 -0.659059
O1    O     O_3   0.815283 0.865918 0.129485 -0.584794
C67   C     C_3   0.890811 0.827101 0.140457 -0.109245
H43   H     H_    0.975380 0.890239 0.176162 0.110825
H44   H     H_    0.864425 0.760434 0.059690 0.183730
H45   H     H_    0.890925 0.791869 0.195614 0.150978

loop_
_geom_bond_atom_site_label_1
_geom_bond_atom_site_label_2
_ccdc_geom_bond_type
C16   C42   S    
C53   H29   S    
C41   C42   A    
C3    C23   A    
C19   C20   A    
C57   C66   S    
C43   C44   S    
C2    C12   A    
C23   N10   A    
C20   C30   S    
C53   C54   S    
C54   Cl3   S    
C5    N16   A    
C8    H3    S    
C62   C63   S    
C18   C24   A    
C28   C29   A    
C1    Cl1   S    
C8    N4    A    
C38   C39   A    
C11   C14   A    
N12   Ni2   S    
C24   H7    S    
C46   H26   S    
C34   N11   A    
C18   C19   A    
C40   H20   S    
C1    N1    A    
C6    C15   A    
C2    C39   S    
C35   C36   A    
C44   C46   S    
O1    C67   S    
N8    Ni3   S    
C55   C63   S    
C67   H45   S    
C54   H31   S    
C11   N7    A    
N9    Ni2   S    
C4    C29   S    
C10   N6    A    
C62   H35   S    
N11   Ni4   S    
C7    H2    S    
C59   C60   A    
C18   H8    S    
C23   H21   S    
C21   C22   A    
C4    C56   A    
C53   H30   S    
C59   H34   S    
C6    N2    A    
C63   H36   S    
N4    N5    A    
C2    C64   A    
C1    C66   A    
N11   N13   A    
C4    C34   A    
C38   C46   S    
C51   C52   A    
C62   O1    S    
C22   H12   S    
C63   H37   S    
C39   C40   A    
N6    Ni1   S    
C3    C51   S    
C50   H28   S    
C15   C26   S    
C14   C48   S    
N5    Ni2   S    
C58   C59   A    
C9    Cl2   S    
C3    C45   A    
N7    Ni4   S    
C31   C37   A    
C60   C61   A    
N9    N14   A    
N13   Ni1   S    
C29   C30   A    
C45   H38   S    
N15   Ni3   S    
C47   C48   A    
C50   C51   A    
C26   C27   A    
C33   H17   S    
C5    C14   A    
N2    Ni2   S    
C47   C54   S    
C10   H4    S    
C45   N12   A    
C9    C17   A    
C48   C49   A    
C49   C50   A    
C55   C57   A    
C12   H10   S    
N3    Ni3   S    
C67   H43   S    
C22   C24   A    
N10   Ni3   S    
N2    N8    A    
C44   H24   S    
C52   C53   S    
N1    Ni1   S    
C25   C30   A    
C41   H22   S    
C40   C41   A    
N7    N16   A    
C25   H13   S    
C31   C32   A    
N1    N15   A    
C58   H33   S    
C31   H15   S    
C35   H18   S    
C64   H40   S    
C47   C52   A    
C46   H25   S    
C13   H6    S    
C36   H19   S    
C32   H16   S    
C8    C17   A    
C7    C16   A    
C9    N5    A    
C32   C33   A    
C34   H32   S    
C13   C15   A    
C25   C26   A    
C38   C43   A    
C6    H1    S    
C56   N13   A    
C57   C58   A    
C27   C37   S    
C64   N14   A    
C55   C61   A    
C19   H9    S    
C33   C35   A    
C7    N3    A    
N3    N6    A    
C11   H5    S    
C65   N15   A    
N14   Ni4   S    
C61   C62   S    
C28   H14   S    
N10   N12   A    
C56   H39   S    
N4    Ni4   S    
C13   N8    A    
C17   C60   S    
C12   N9    A    
C20   C21   A    
C36   C37   A    
C65   C66   A    
C42   C43   A    
C21   H11   S    
C27   C28   A    
C67   H44   S    
C10   C16   A    
C49   H27   S    
C65   H41   S    
C44   H23   S    
N16   Ni1   S    
C5    H42   S    
