data_mof_unit_14902.cif
_audit_creation_date              2013-03-05T16:14:05-0500
_audit_creation_method            fapswitch 2.2
_symmetry_space_group_name_H-M    P1
_symmetry_Int_Tables_number       1
_space_group_crystal_system       triclinic
_cell_length_a                    9.897788
_cell_length_b                    10.699447
_cell_length_c                    16.355799
_cell_angle_alpha                 89.124908
_cell_angle_beta                  96.108393
_cell_angle_gamma                 86.733353
_cell_volume                      1719.06336488

loop_
_atom_site_label
_atom_site_type_symbol
_atom_site_description
_atom_site_fract_x
_atom_site_fract_y
_atom_site_fract_z
_atom_type_partial_charge
O1    O     O_R   0.614620 0.316750 0.500010 -0.597183
O2    O     O_R   0.385380 0.683250 0.499990 -0.593430
O3    O     O_R   0.385290 0.316780 0.500000 -0.607025
O4    O     O_R   0.614710 0.683220 0.500000 -0.619179
C1    C     C_R   0.503907 0.260216 0.501285 0.879600
C2    C     C_R   0.496031 0.739941 0.499386 0.869375
O5    O     O_R   0.627460 0.498830 0.616130 -0.562222
O6    O     O_R   0.372540 0.501170 0.383870 -0.552324
O7    O     O_R   0.398130 0.498850 0.616130 -0.628383
O8    O     O_R   0.601870 0.501150 0.383870 -0.629344
C3    C     C_R   0.518705 0.502964 0.654727 0.891866
C4    C     C_R   0.481292 0.496591 0.345301 0.894373
Zn1   Zn    Zn3+2 0.653130 0.499980 0.500000 0.979824
Zn2   Zn    Zn3+2 0.346870 0.500020 0.500000 0.977019
C5    C     C_R   0.527812 0.527388 0.742985 -0.148036
C6    C     C_R   0.472067 0.469183 0.257425 -0.153065
C7    C     C_R   0.409952 0.571847 0.776666 -0.247730
C8    C     C_R   0.587774 0.416724 0.224990 -0.251534
C9    C     C_R   0.415290 0.603359 0.859273 0.139993
C10   C     C_R   0.582295 0.384996 0.142297 0.147237
C11   C     C_R   0.535900 0.571475 0.910923 0.213460
C12   C     C_R   0.462743 0.419337 0.090192 0.219040
C13   C     C_R   0.657927 0.549479 0.875235 0.328239
C14   C     C_R   0.341444 0.446673 0.125482 0.330803
C15   C     C_R   0.653291 0.525617 0.791454 -0.238434
C16   C     C_R   0.347056 0.475666 0.208415 -0.256783
N1    N     N_2   0.531465 0.543182 0.995402 -0.143173
N2    N     N_2   0.468239 0.446859 0.005725 -0.144526
H1    H     H_    0.680772 0.394136 0.264973 0.179958
H2    H     H_    0.315580 0.591335 0.737374 0.184032
H3    H     H_    0.747270 0.506976 0.764686 0.248213
H4    H     H_    0.253715 0.500217 0.234358 0.249886
C17   C     C_R   0.448743 0.071275 0.428600 0.108131
C18   C     C_R   0.550896 0.928978 0.572966 0.129269
C19   C     C_R   0.429365 0.942915 0.432262 0.062059
C20   C     C_R   0.566830 0.058094 0.570377 0.081106
C21   C     C_R   0.488117 0.873171 0.502401 -0.135366
C22   C     C_R   0.511611 0.127126 0.499152 -0.154343
C23   C     C_R   0.054955 0.550635 0.435218 0.422226
C24   C     C_R   0.944922 0.448567 0.564514 0.432081
C25   C     C_R   0.912346 0.551011 0.435729 -0.193607
C26   C     C_R   0.087602 0.448796 0.564232 -0.202140
H5    H     H_    0.845819 0.591941 0.384312 0.193753
H6    H     H_    0.154091 0.407523 0.615550 0.193149
N3    N     N_R   0.857210 0.499970 0.500020 -0.128560
N4    N     N_R   0.142790 0.500030 0.499980 -0.130913
C27   C     C_3   0.688569 0.290480 0.116608 -0.500233
C28   C     C_3   0.786487 0.346328 0.063116 -0.601546
H7    H     H_    0.736615 0.356471 0.999344 0.273261
H8    H     H_    0.818818 0.437645 0.087299 0.304813
H9    H     H_    0.878187 0.281717 0.062219 0.259262
H10   H     H_    0.749253 0.246405 0.171824 0.212839
H11   H     H_    0.637191 0.213405 0.083401 0.217468
C29   C     C_3   0.309545 0.698981 0.884348 -0.506766
C30   C     C_3   0.211676 0.645069 0.938537 -0.595918
H12   H     H_    0.178630 0.553507 0.915199 0.305382
H13   H     H_    0.262082 0.636182 0.002221 0.272709
H14   H     H_    0.120419 0.710326 0.939105 0.259433
H15   H     H_    0.361460 0.776511 0.916716 0.217801
H16   H     H_    0.248822 0.742339 0.828897 0.217430
Cl1   Cl    Cl    0.817269 0.565504 0.931361 -0.615470
Cl2   Cl    Cl    0.181403 0.428971 0.070615 -0.619062
C31   C     C_3   0.415215 0.147507 0.348101 -0.391514
C32   C     C_3   0.265052 0.192620 0.331513 -0.758687
H17   H     H_    0.203974 0.119218 0.301510 0.246776
H18   H     H_    0.222451 0.220776 0.388990 0.270692
H19   H     H_    0.254345 0.274489 0.288588 0.260970
H20   H     H_    0.477460 0.230392 0.348301 0.187291
H21   H     H_    0.447391 0.093880 0.295231 0.192538
C33   C     C_3   0.583819 0.853554 0.653748 -0.392563
C34   C     C_3   0.463582 0.864250 0.704914 -0.878123
H22   H     H_    0.430760 0.963767 0.713274 0.262598
H23   H     H_    0.376463 0.815605 0.674152 0.262402
H24   H     H_    0.493901 0.820572 0.766558 0.262576
H25   H     H_    0.608734 0.753255 0.644008 0.216479
H26   H     H_    0.675752 0.883703 0.690863 0.221913
C35   C     C_3   0.331984 0.884068 0.367483 -0.352050
C36   C     C_3   0.187116 0.897726 0.392415 -0.722180
H27   H     H_    0.112661 0.878111 0.339209 0.272117
H28   H     H_    0.175612 0.832079 0.444040 0.280948
H29   H     H_    0.162280 0.993697 0.413186 0.235962
H30   H     H_    0.333567 0.926783 0.305660 0.200740
H31   H     H_    0.360719 0.783900 0.358650 0.223699
C37   C     C_3   0.649668 0.119700 0.641185 -0.388771
C38   C     C_3   0.801884 0.091944 0.635915 -0.733672
H32   H     H_    0.827627 0.990446 0.630210 0.226205
H33   H     H_    0.833075 0.140746 0.581126 0.282131
H34   H     H_    0.861115 0.124471 0.692261 0.281865
H35   H     H_    0.629332 0.222482 0.641924 0.230744
H36   H     H_    0.621879 0.087399 0.701562 0.208347
Cl3   Cl    Cl    0.112766 0.615483 0.347925 -0.675649
Cl4   Cl    Cl    0.886364 0.380430 0.650512 -0.672578

loop_
_geom_bond_atom_site_label_1
_geom_bond_atom_site_label_2
_geom_bond_distance
_ccdc_geom_bond_type
C15   H3    1.079299 S    
C30   H12   1.110769 S    
C16   H4    1.077851 S    
C18   C21   1.409049 A    
Zn2   N4    2.019900 S    
C29   H16   1.112816 S    
C35   C36   1.531669 S    
O5    C3    1.303542 A    
C26   H6    1.081946 S    
O1    C1    1.283410 A    
C19   C21   1.411886 A    
C14   C16   1.392112 A    
C36   H28   1.109384 S    
C5    C15   1.399502 A    
C35   H31   1.108659 S    
C26   N4    1.357178 A    
O4    Zn1   1.975717 S    
C17   C19   1.398751 A    
C31   H20   1.108135 S    
C3    C5    1.465165 S    
C28   H9    1.110641 S    
C4    C6    1.465640 S    
O6    Zn2   1.942877 S    
C33   C34   1.526135 S    
C18   C33   1.532622 S    
C8    C10   1.395703 A    
C17   C31   1.533710 S    
C27   H11   1.111908 S    
C24   C26   1.412853 A    
C11   N1    1.415763 S    
C12   N2    1.415509 S    
C1    C22   1.422839 S    
C7    H2    1.083950 S    
C25   H5    1.081945 S    
O2    C2    1.282701 A    
C37   H36   1.108373 S    
C23   Cl3   1.742462 S    
C29   H15   1.111986 S    
C38   H33   1.110821 S    
C11   C13   1.405954 A    
C6    C16   1.398505 A    
C24   N3    1.379085 A    
C32   H19   1.107349 S    
C31   H21   1.109652 S    
C37   C38   1.530654 S    
O4    C2    1.290072 A    
C34   H23   1.111034 S    
C36   H27   1.109565 S    
C38   H32   1.108866 S    
C19   C35   1.523227 S    
C32   H18   1.109428 S    
O7    Zn2   1.912785 S    
C27   C28   1.514043 S    
O5    Zn1   1.942877 S    
O6    C4    1.303241 A    
C2    C21   1.425070 S    
C8    H1    1.084001 S    
C24   Cl4   1.742448 S    
O7    C3    1.292756 A    
O3    Zn2   1.975719 S    
O8    C4    1.293067 A    
C23   N4    1.379780 A    
C9    C29   1.514105 S    
C28   H7    1.106454 S    
C10   C12   1.409875 A    
C30   H13   1.106286 S    
C33   H26   1.105631 S    
C12   C14   1.404548 A    
O1    Zn1   2.018380 S    
C37   H35   1.107123 S    
N1    N2    1.254170 D    
C38   H34   1.110049 S    
C5    C7    1.404326 A    
C29   C30   1.512422 S    
C14   Cl2   1.757064 S    
C9    C11   1.409003 A    
O3    C1    1.287823 A    
O8    Zn1   1.912785 S    
C34   H24   1.109147 S    
C27   H10   1.112666 S    
C17   C22   1.409427 A    
C32   H17   1.107163 S    
C20   C22   1.411945 A    
C34   H22   1.110162 S    
Zn1   N3    2.019900 S    
C36   H29   1.109011 S    
C35   H30   1.105281 S    
C20   C37   1.526700 S    
C28   H8    1.110838 S    
C7    C9    1.393804 A    
C18   C20   1.399855 A    
C13   C15   1.394157 A    
O2    Zn2   2.018378 S    
C10   C27   1.513750 S    
C31   C32   1.531031 S    
C13   Cl1   1.756979 S    
C23   C25   1.412201 A    
C6    C8    1.404695 A    
C30   H14   1.110645 S    
C33   H25   1.105107 S    
C25   N3    1.356588 A    
