data_mof_unit_31104.cif
_audit_creation_date              2013-03-05T15:59:11-0500
_audit_creation_method            fapswitch 2.2
_symmetry_space_group_name_H-M    P1
_symmetry_Int_Tables_number       1
_space_group_crystal_system       triclinic
_cell_length_a                    12.631444
_cell_length_b                    13.124798
_cell_length_c                    15.732142
_cell_angle_alpha                 90.610039
_cell_angle_beta                  103.310653
_cell_angle_gamma                 82.307185
_cell_volume                      2514.69712453

loop_
_atom_site_label
_atom_site_type_symbol
_atom_site_description
_atom_site_fract_x
_atom_site_fract_y
_atom_site_fract_z
_atom_type_partial_charge
O1    O     O_R   0.366740 0.627160 0.478850 -0.610816
O2    O     O_R   0.544830 0.662520 0.507140 -0.615649
C1    C     C_R   0.438699 0.691203 0.486125 0.842283
O3    O     O_R   0.410920 0.482310 0.608710 -0.626485
O4    O     O_R   0.589010 0.517670 0.637000 -0.606601
C2    C     C_R   0.501391 0.500649 0.661621 0.897916
Zn1   Zn    Zn3+2 0.381090 0.476390 0.481110 0.941781
Zn2   Zn    Zn3+2 0.618910 0.523610 0.518890 0.946041
O5    O     O_R   0.455170 0.337480 0.492860 -0.617150
O6    O     O_R   0.633260 0.372840 0.521150 -0.636059
O7    O     O_R   0.410990 0.482330 0.363000 -0.610443
O8    O     O_R   0.589080 0.517690 0.391290 -0.616421
C3    C     C_R   0.561130 0.308680 0.508615 0.852765
C4    C     C_R   0.498498 0.499761 0.338423 0.883431
C5    C     C_3   0.389219 0.547812 0.929443 -0.529050
C6    C     C_3   0.592110 0.565549 0.970027 -0.452769
C7    C     C_3   0.580273 0.573592 0.065742 0.370619
H1    H     H_    0.354205 0.619068 0.048127 0.185996
H2    H     H_    0.371375 0.629662 0.906795 0.193860
H3    H     H_    0.675979 0.531251 0.965969 0.215190
H4    H     H_    0.579060 0.644163 0.940203 0.146305
H5    H     H_    0.537418 0.652746 0.070104 0.127759
C8    C     C_1   0.495376 0.499318 0.248968 -0.163649
C9    C     C_3   0.504990 0.501065 0.918325 0.229849
C10   C     C_3   0.383551 0.541520 0.026411 -0.488008
C11   C     C_3   0.498752 0.499872 0.082849 0.173301
C12   C     C_3   0.526923 0.388383 0.052539 -0.491629
C13   C     C_3   0.530419 0.388541 0.954635 0.376708
C14   C     C_1   0.495388 0.499391 0.173636 -0.042962
C15   C     C_1   0.505776 0.502202 0.826835 -0.040654
C16   C     C_1   0.504600 0.501890 0.751217 -0.186873
H6    H     H_    0.463816 0.345974 0.917495 0.046697
H7    H     H_    0.462672 0.341606 0.061208 0.146206
H8    H     H_    0.324858 0.506157 0.888873 0.185054
H9    H     H_    0.322445 0.490312 0.033503 0.200930
H10   H     H_    0.604209 0.348191 0.093306 0.166793
C17   C     C_R   0.704495 0.064389 0.440645 -0.134686
H11   H     H_    0.745245 0.217535 0.459126 0.147217
H12   H     H_    0.774696 0.041105 0.413154 0.186658
C18   C     C_R   0.596989 0.199988 0.500887 -0.043593
C19   C     C_R   0.298564 0.839470 0.492310 -0.179898
C20   C     C_R   0.270117 0.944639 0.498306 -0.138353
C21   C     C_R   0.344938 0.011123 0.491478 -0.186040
C22   C     C_R   0.448294 0.973069 0.474028 0.088425
C23   C     C_R   0.468357 0.868932 0.453727 0.024825
C24   C     C_R   0.531998 0.035003 0.475770 0.037277
C25   C     C_R   0.626468 0.997848 0.443720 0.029471
C26   C     C_R   0.637753 0.896982 0.412446 0.269782
C27   C     C_R   0.557603 0.834829 0.415970 -0.268587
C28   C     C_R   0.524524 0.132952 0.510397 -0.227305
C29   C     C_R   0.688828 0.165474 0.467889 -0.226228
C30   C     C_R   0.399416 0.800880 0.473409 -0.094270
H13   H     H_    0.459924 0.160773 0.542690 0.144198
H14   H     H_    0.243130 0.788300 0.504880 0.193393
H15   H     H_    0.318538 0.091930 0.497718 0.132627
H16   H     H_    0.191734 0.974478 0.511970 0.157729
H17   H     H_    0.566511 0.758678 0.389285 0.207754
C31   C     C_R   0.085230 0.350593 0.377889 -0.313228
H18   H     H_    0.251266 0.332464 0.363528 0.137203
H19   H     H_    0.880180 0.318667 0.358665 0.148172
H20   H     H_    0.061701 0.291691 0.331159 0.144396
N1    N     N_R   0.222200 0.444690 0.455710 -0.116292
C32   C     C_R   0.795398 0.634115 0.598381 -0.043054
C33   C     C_R   0.895546 0.670721 0.615493 -0.302919
C34   C     C_R   0.980846 0.623222 0.579480 0.509139
C35   C     C_R   0.962123 0.537921 0.522688 -0.094747
C36   C     C_R   0.855433 0.506749 0.505226 0.188914
C37   C     C_R   0.041731 0.482505 0.481395 0.006156
C38   C     C_R   0.010176 0.404272 0.420781 0.192088
C39   C     C_R   0.904533 0.378553 0.404185 -0.300853
C40   C     C_R   0.829256 0.427885 0.446909 -0.160395
C41   C     C_R   0.152513 0.498237 0.498468 -0.021398
C42   C     C_R   0.191880 0.372849 0.396077 0.011940
N2    N     N_R   0.776960 0.554780 0.543830 -0.125118
H21   H     H_    0.188350 0.549574 0.546058 0.195451
H22   H     H_    0.730055 0.671641 0.626264 0.163618
H23   H     H_    0.905692 0.738405 0.654878 0.161360
H24   H     H_    0.750080 0.403118 0.432615 0.201926
N3    N     N_R   0.731743 0.854420 0.380497 0.198997
O9    O     O_R   0.718912 0.796898 0.311968 -0.372383
O10   O     O_R   0.830012 0.854906 0.429294 -0.394309
O11   O     O_3   0.074113 0.670982 0.590025 -0.610838
C43   C     C_3   0.134540 0.659295 0.677960 0.049963
H25   H     H_    0.156558 0.576341 0.697500 0.127891
H26   H     H_    0.087911 0.699290 0.723442 0.147806
C44   C     C_3   0.240226 0.706608 0.687585 -0.823688
H27   H     H_    0.220798 0.790119 0.670859 0.257446
H28   H     H_    0.289031 0.696572 0.756017 0.202694
H29   H     H_    0.290183 0.668720 0.643657 0.255487
O12   O     O_3   0.681575 0.573572 0.128696 -0.580380
C45   C     C_3   0.747373 0.476900 0.144723 0.116208
H30   H     H_    0.748997 0.433006 0.084310 0.171089
H31   H     H_    0.718699 0.431446 0.192046 0.146270
C46   C     C_3   0.864767 0.493391 0.186619 -0.769198
H32   H     H_    0.867573 0.535255 0.248686 0.288213
H33   H     H_    0.917426 0.417940 0.200897 0.191646
H34   H     H_    0.897225 0.538825 0.141601 0.253411
O13   O     O_3   0.635586 0.344263 0.944494 -0.620082
C47   C     C_3   0.639837 0.236867 0.934338 0.079865
H35   H     H_    0.586328 0.219521 0.870562 0.142651
H36   H     H_    0.613773 0.200252 0.988344 0.136391
C48   C     C_3   0.757173 0.190653 0.935591 -0.807999
H37   H     H_    0.812404 0.206494 0.998814 0.248757
H38   H     H_    0.761608 0.106153 0.927443 0.208196
H39   H     H_    0.784972 0.224503 0.881445 0.258873

loop_
_geom_bond_atom_site_label_1
_geom_bond_atom_site_label_2
_geom_bond_distance
_ccdc_geom_bond_type
C35   C37   1.434261 A    
C6    H4    1.114040 S    
C33   H23   1.082438 S    
O12   C45   1.411456 S    
C12   H7    1.113713 S    
Zn1   O7    1.983796 S    
C11   C12   1.555323 S    
C7    C11   1.571256 S    
C8    C14   1.185170 T    
C26   N3    1.437153 S    
C38   C39   1.386035 A    
O3    Zn1   1.958056 S    
C15   C16   1.186275 T    
C17   C29   1.392733 A    
O7    C4    1.300012 A    
C44   H28   1.110006 S    
C5    C10   1.547148 S    
C32   H22   1.081448 S    
C27   H17   1.081912 S    
C48   H39   1.110787 S    
C19   C20   1.386859 A    
O5    C3    1.307474 A    
C3    C18   1.450415 S    
C20   H16   1.082710 S    
C5    H2    1.112725 S    
C47   H35   1.113289 S    
C37   C38   1.426957 A    
N1    C42   1.352132 A    
C39   C40   1.376712 A    
C23   C27   1.411236 A    
C17   C25   1.410582 A    
H18   C42   1.081904 S    
C19   C30   1.402232 A    
C6    H3    1.109895 S    
C31   H20   1.084092 S    
C35   C36   1.426101 A    
C6    C9    1.552871 S    
C48   H37   1.110920 S    
H1    C10   1.113529 S    
C41   H21   1.065044 S    
C22   C24   1.412681 A    
C28   H13   1.079089 S    
C25   C26   1.408144 A    
C13   H6    1.119747 S    
O3    C2    1.299285 A    
C45   H30   1.108942 S    
N3    O10   1.301300 A    
C44   H27   1.111408 S    
C6    C7    1.548230 S    
H11   C29   1.082290 S    
C23   C30   1.410766 A    
C10   C11   1.551480 S    
C44   H29   1.110200 S    
C32   C33   1.380832 A    
C37   C41   1.405714 A    
O1    C1    1.303993 A    
C4    C8    1.398736 S    
C48   H38   1.110492 S    
C21   C22   1.420137 A    
Zn1   N1    2.052219 S    
C45   H31   1.110330 S    
C43   H25   1.115327 S    
H19   C39   1.084686 S    
Zn2   O8    1.958056 S    
C43   C44   1.522344 S    
Zn2   N2    2.039971 S    
N1    C41   1.348403 A    
C36   N2    1.360346 A    
C46   H33   1.110467 S    
C10   H9    1.113576 S    
C21   H15   1.078815 S    
C26   C27   1.393343 A    
C43   H26   1.112525 S    
O8    C4    1.298458 A    
O11   C43   1.416639 S    
C20   C21   1.391283 A    
C22   C23   1.403402 A    
C13   O13   1.420131 S    
Zn1   O5    1.924707 S    
C24   C25   1.425478 A    
C5    C9    1.555895 S    
C5    H8    1.113478 S    
C47   H36   1.114018 S    
O1    Zn1   1.962746 S    
O2    Zn2   1.924706 S    
C7    O12   1.426394 S    
C9    C13   1.554692 S    
O6    C3    1.302789 A    
O4    Zn2   1.983798 S    
C1    C30   1.458613 S    
C31   C38   1.398597 A    
C32   N2    1.352348 A    
C12   H10   1.106194 S    
C18   C29   1.397155 A    
C24   C28   1.390902 A    
C7    H5    1.114470 S    
C46   H34   1.110600 S    
C33   C34   1.401539 A    
O2    C1    1.308301 A    
C17   H12   1.080739 S    
C45   C46   1.520844 S    
C34   O11   1.383430 S    
O4    C2    1.300098 A    
C18   C28   1.384126 A    
C2    C16   1.400746 S    
C36   C40   1.397900 A    
C34   C35   1.435225 A    
C46   H32   1.111067 S    
C9    C15   1.441900 S    
C19   H14   1.083021 S    
N3    O9    1.301352 A    
C47   C48   1.520227 S    
C11   C14   1.438757 S    
Zn2   O6    1.962748 S    
O13   C47   1.412144 S    
C12   C13   1.551033 S    
C40   H24   1.066957 S    
C31   C42   1.381329 A    
