data_mof_unit_30276.cif
_audit_creation_date              2013-03-05T15:52:55-0500
_audit_creation_method            fapswitch 2.2
_symmetry_space_group_name_H-M    P1
_symmetry_Int_Tables_number       1
_space_group_crystal_system       triclinic
_cell_length_a                    10.908831
_cell_length_b                    10.671509
_cell_length_c                    17.056668
_cell_angle_alpha                 99.816278
_cell_angle_beta                  100.046466
_cell_angle_gamma                 61.058483
_cell_volume                      1702.45135606

loop_
_atom_site_label
_atom_site_type_symbol
_atom_site_description
_atom_site_fract_x
_atom_site_fract_y
_atom_site_fract_z
_atom_type_partial_charge
O1    O     O_R   0.749810 0.499790 0.438040 -0.518555
O2    O     O_R   0.477660 0.726260 0.439290 -0.526256
C1    C     C_R   0.351844 0.782008 0.403864 0.565597
O3    O     O_R   0.260150 0.743000 0.412270 -0.433092
O4    O     O_R   0.297740 0.466550 0.394720 -0.453304
C2    C     C_R   0.406741 0.375648 0.356917 0.563748
O5    O     O_R   0.488080 0.253500 0.386430 -0.527013
O6    O     O_R   0.722670 0.303800 0.421940 -0.523532
C3    C     C_R   0.774184 0.374523 0.403332 0.572624
O7    O     O_R   0.751130 0.502220 0.613520 -0.497852
O8    O     O_R   0.478890 0.728510 0.601960 -0.493452
C4    C     C_R   0.358839 0.768667 0.627357 0.545917
O9    O     O_R   0.261470 0.745430 0.587750 -0.513592
O10   O     O_R   0.298970 0.468800 0.557390 -0.495103
C5    C     C_R   0.408527 0.376599 0.599443 0.559675
O11   O     O_R   0.489400 0.255930 0.561910 -0.524649
O12   O     O_R   0.723890 0.306050 0.584610 -0.521951
C6    C     C_R   0.777667 0.378250 0.629042 0.558840
Cr1   Cr    Cr6+3 0.608100 0.610860 0.522250 1.018922
Cr2   Cr    Cr6+3 0.288890 0.599990 0.488420 1.080738
Cr3   Cr    Cr6+3 0.603040 0.289190 0.489390 1.010113
O13   O     O_3   0.500010 0.500010 0.500020 -0.310549
C7    C     C_1   0.380019 0.363368 0.271732 -0.013442
C8    C     C_1   0.355216 0.344562 0.200483 0.006980
H1    H     H_    0.937044 0.453236 0.358125 0.164858
C9    C     C_R   0.863621 0.323856 0.170227 0.011852
C10   C     C_R   0.800189 0.244184 0.186543 -0.037273
C11   C     C_R   0.791017 0.236949 0.266722 0.012955
C12   C     C_R   0.900948 0.393198 0.310596 -0.117249
C13   C     C_R   0.916775 0.395171 0.233596 0.028810
C14   C     C_R   0.753761 0.164199 0.125111 -0.051873
C15   C     C_R   0.718063 0.065068 0.141999 0.094901
C16   C     C_R   0.706739 0.058690 0.220208 -0.077858
C17   C     C_R   0.743711 0.141182 0.281951 -0.053126
C18   C     C_R   0.831656 0.324259 0.327645 0.027010
H2    H     H_    0.749658 0.170647 0.062886 0.202441
H3    H     H_    0.673235 0.986932 0.233858 0.142321
H4    H     H_    0.747864 0.113604 0.340393 0.200126
C19   C     C_R   0.289962 0.907647 0.177264 -0.025928
C20   C     C_R   0.425049 0.845000 0.218675 0.005894
C21   C     C_R   0.437303 0.855048 0.302646 -0.033251
C22   C     C_R   0.187269 0.928596 0.296743 0.204522
C23   C     C_R   0.171724 0.952110 0.217396 -0.137850
C24   C     C_R   0.548713 0.769203 0.180382 0.127688
C25   C     C_R   0.675701 0.748514 0.223099 -0.105353
C26   C     C_R   0.685277 0.785982 0.305462 -0.147216
C27   C     C_R   0.567090 0.836079 0.345717 -0.073023
C28   C     C_R   0.322675 0.870785 0.339012 -0.002204
H5    H     H_    0.066762 0.000278 0.186020 0.154962
H6    H     H_    0.764161 0.709130 0.190101 0.190576
H7    H     H_    0.784492 0.773010 0.338078 0.164849
H8    H     H_    0.577193 0.862200 0.409854 0.149215
H9    H     H_    0.169772 0.532657 0.671043 0.154285
C29   C     C_R   0.339611 0.354573 0.833644 0.032847
C30   C     C_R   0.478547 0.285855 0.813157 0.030521
C31   C     C_R   0.501737 0.272197 0.732885 -0.015259
C32   C     C_R   0.256885 0.458719 0.708708 -0.146939
C33   C     C_R   0.230431 0.447717 0.783086 -0.159493
C34   C     C_R   0.594513 0.221078 0.870321 0.252194
C35   C     C_R   0.716879 0.103101 0.845462 -0.060759
C36   C     C_R   0.736974 0.073794 0.764977 -0.159316
C37   C     C_R   0.635643 0.164153 0.710045 -0.120898
C38   C     C_R   0.389312 0.366303 0.680612 0.004953
H10   H     H_    0.123264 0.505012 0.798782 0.143088
H11   H     H_    0.801557 0.042793 0.889207 0.147261
H12   H     H_    0.835993 0.988061 0.746038 0.131138
H13   H     H_    0.666740 0.141956 0.650987 0.177740
C39   C     C_1   0.846099 0.328544 0.705391 -0.038823
C40   C     C_1   0.893105 0.293510 0.771987 -0.041342
C41   C     C_1   0.339528 0.810064 0.709555 -0.032365
C42   C     C_1   0.311857 0.838459 0.777338 -0.029711
O14   O     O_R   0.171100 0.914680 0.053100 -0.492398
O15   O     O_R   0.941680 0.184840 0.050710 -0.528657
C43   C     C_R   0.905116 0.305795 0.091863 0.615060
O16   O     O_R   0.922080 0.403420 0.072610 -0.449775
O17   O     O_R   0.196880 0.369150 0.083850 -0.470013
C44   C     C_R   0.322842 0.303488 0.118629 0.597160
O18   O     O_R   0.411730 0.181020 0.091530 -0.493906
O19   O     O_R   0.365010 0.944360 0.063320 -0.461496
C45   C     C_R   0.262865 0.947299 0.096128 0.559046
O20   O     O_R   0.159380 0.906670 0.876210 -0.519493
O21   O     O_R   0.930820 0.177420 0.886730 -0.481458
C46   C     C_R   0.943258 0.273283 0.854405 0.568386
O22   O     O_R   0.910360 0.395420 0.895720 -0.459161
O23   O     O_R   0.186010 0.361730 0.919870 -0.521564
C47   C     C_R   0.306770 0.295514 0.893757 0.582040
O24   O     O_R   0.400000 0.173010 0.914630 -0.488487
O25   O     O_R   0.354140 0.936940 0.899340 -0.475140
C48   C     C_R   0.277450 0.886067 0.857139 0.566678
Cr4   Cr    Cr6+3 0.053960 0.052250 0.967380 1.027000
Cr5   Cr    Cr6+3 0.059890 0.373160 0.992710 1.098666
Cr6   Cr    Cr6+3 0.373370 0.061690 0.991710 1.083130
O26   O     O_3   0.162410 0.162370 0.983930 -0.324986
N1    N     N_R   0.602935 0.299480 0.946115 0.042982
O27   O     O_R   0.506512 0.346878 0.994529 -0.340689
O28   O     O_R   0.689901 0.352768 0.957489 -0.295662
I1    I     I_    0.027909 0.510114 0.229155 -0.322198
I2    I     I_    0.702979 0.912896 0.049022 -0.275922
N2    N     N_R   0.066783 0.952251 0.331549 0.075834
O29   O     O_R   0.040567 0.024374 0.401582 -0.356800
O30   O     O_R   0.002693 0.876200 0.301534 -0.341139
I3    I     I_    0.562478 0.636844 0.070853 -0.137748

loop_
_geom_bond_atom_site_label_1
_geom_bond_atom_site_label_2
_geom_bond_distance
_ccdc_geom_bond_type
C30   C31   1.406048 A    
O11   Cr3   2.074460 S    
C30   C34   1.407835 A    
O15   C43   1.268213 A    
O23   Cr5   1.957965 S    
O4    Cr2   1.932911 S    
C44   O18   1.259297 A    
C13   I1    2.117330 S    
O8    Cr1   1.945603 S    
C9    C10   1.412944 A    
C37   H13   1.070515 S    
O15   Cr4   1.940822 S    
C14   H2    1.067030 S    
O4    C2    1.307106 A    
C6    C39   1.430970 S    
C5    O11   1.289507 A    
C1    C28   1.471447 S    
C26   C27   1.391449 A    
C36   H12   1.082902 S    
N2    O29   1.301444 A    
C11   C18   1.432956 A    
O6    C3    1.241179 A    
C7    C8    1.202094 T    
C32   C38   1.410928 A    
C41   C42   1.197259 T    
C34   N1    1.429657 S    
O16   Cr5   2.077628 S    
O20   C48   1.288735 A    
C11   C17   1.423356 A    
C34   C35   1.391272 A    
Cr3   O13   1.960182 S    
H1    C12   1.085563 S    
N1    O27   1.299966 A    
C16   C17   1.387816 A    
C33   H10   1.083420 S    
O1    Cr1   2.068468 S    
C43   O16   1.245742 A    
C10   C14   1.418205 A    
O25   Cr6   1.933483 S    
Cr1   O13   1.993619 S    
O1    C3    1.284224 A    
O17   C44   1.287053 A    
C19   C20   1.400653 A    
C29   C47   1.464204 S    
C24   I3    2.121462 S    
C47   O24   1.271107 A    
C23   H5    1.082623 S    
C19   C23   1.400843 A    
O18   Cr6   2.055103 S    
O23   C47   1.276545 A    
C26   H7    1.082243 S    
C16   H3    1.065625 S    
C35   C36   1.386617 A    
C12   C13   1.359133 A    
C40   C46   1.429317 S    
O10   Cr2   1.929623 S    
Cr5   O26   1.960093 S    
O14   Cr4   2.047024 S    
C46   O22   1.283175 A    
C42   C48   1.417588 S    
O7    Cr1   2.054100 S    
O12   C6    1.263086 A    
C21   C27   1.412677 A    
C31   C38   1.428080 A    
C22   C28   1.407271 A    
C4    O9    1.262357 A    
N1    O28   1.296669 A    
O19   Cr6   1.933592 S    
C27   H8    1.081793 S    
O20   Cr4   2.055556 S    
C20   C21   1.405515 A    
N2    O30   1.300844 A    
Cr2   O13   2.004108 S    
C35   H11   1.082643 S    
C9    C13   1.418307 A    
C31   C37   1.424883 A    
C22   C23   1.384893 A    
C1    O3    1.291422 A    
C24   C25   1.380333 A    
Cr4   O26   1.994044 S    
C29   C33   1.392254 A    
C4    C41   1.416680 S    
C29   C30   1.406670 A    
H9    C32   1.082826 S    
O9    Cr2   2.049314 S    
O2    Cr1   1.933737 S    
C17   H4    1.074099 S    
C39   C40   1.203758 T    
C14   C15   1.376763 A    
O6    Cr3   1.957777 S    
O8    C4    1.295322 A    
C2    O5    1.299363 A    
C12   C18   1.372971 A    
O21   Cr4   1.930355 S    
C15   C16   1.376939 A    
O2    C1    1.282880 A    
O14   C45   1.286743 A    
O5    Cr3   2.065835 S    
C22   N2    1.429589 S    
C19   C45   1.455171 S    
C32   C33   1.384850 A    
C25   H6    1.068151 S    
O7    C6    1.275192 A    
O22   Cr5   2.066762 S    
C2    C7    1.427428 S    
Cr6   O26   2.004273 S    
C9    C43   1.437873 S    
C21   C28   1.417198 A    
C15   I2    2.113912 S    
C36   C37   1.394528 A    
O12   Cr3   1.947070 S    
O17   Cr5   1.949858 S    
O19   C45   1.316631 A    
O3    Cr2   2.045767 S    
C25   C26   1.393569 A    
C8    C44   1.426609 S    
C20   C24   1.404253 A    
O25   C48   1.268454 A    
O21   C46   1.312139 A    
C10   C11   1.406235 A    
C3    C18   1.438109 S    
C5    C38   1.465667 S    
O10   C5    1.309355 A    
O24   Cr6   2.055223 S    
