data_mof_unit_63416.cif
_audit_creation_date              2012-12-10T21:32:46-0500
_audit_creation_method            fapswitch 2.2
_symmetry_space_group_name_H-M    P1
_symmetry_Int_Tables_number       1
_space_group_crystal_system       triclinic
_cell_length_a                    11.539146
_cell_length_b                    16.212465
_cell_length_c                    16.655624
_cell_angle_alpha                 86.173842
_cell_angle_beta                  91.375946
_cell_angle_gamma                 91.769122
_cell_volume                      3106.72100838

loop_
_atom_site_label
_atom_site_type_symbol
_atom_type_description
_atom_site_fract_x
_atom_site_fract_y
_atom_site_fract_z
_atom_type_partial_charge
C1    C     C_R   0.495592 0.487996 0.652967 0.905867
C2    C     C_R   0.504413 0.512003 0.347033 0.905864
C3    C     C_R   0.556533 0.423964 0.783484 -0.222744
C4    C     C_R   0.443526 0.576057 0.216511 -0.222747
C5    C     C_R   0.442090 0.766425 0.461841 0.279681
C6    C     C_R   0.557910 0.233575 0.538159 0.279688
C7    C     C_R   0.446912 0.852681 0.464965 -0.283135
C8    C     C_R   0.553088 0.147319 0.535034 -0.283134
C9    C     C_R   0.525504 0.890982 0.517457 0.247352
C10   C     C_R   0.474496 0.109018 0.482542 0.247352
C11   C     C_R   0.598414 0.839753 0.566449 -0.147166
C12   C     C_R   0.401587 0.160247 0.433550 -0.147165
C13   C     C_R   0.591289 0.752552 0.561749 0.024512
C14   C     C_R   0.408711 0.247448 0.438251 0.024515
C15   C     C_R   0.718051 0.499535 0.500275 0.922285
C16   C     C_R   0.281949 0.500465 0.499724 0.922300
C17   C     C_1   0.838460 0.498860 0.500206 -0.124559
C18   C     C_1   0.161540 0.501140 0.499793 -0.124554
C19   C     C_1   0.940656 0.499409 0.500085 0.043140
C20   C     C_1   0.059344 0.500591 0.499914 0.043144
C21   C     C_R   0.483292 0.478049 0.739339 -0.088800
C22   C     C_R   0.516729 0.521949 0.260662 -0.088819
C23   C     C_R   0.398876 0.521306 0.778064 0.076983
C24   C     C_R   0.601126 0.478668 0.221942 0.076994
C25   C     C_R   0.394487 0.513417 0.862179 -0.044073
C26   C     C_R   0.605523 0.486553 0.137829 -0.044072
C27   C     C_R   0.474873 0.463326 0.906030 0.238224
C28   C     C_R   0.525170 0.536666 0.093970 0.238221
C29   C     C_R   0.551946 0.416424 0.866586 -0.161568
C30   C     C_R   0.448124 0.583593 0.133409 -0.161580
H1    H     H_    0.612791 0.377498 0.900648 0.173411
H2    H     H_    0.387305 0.622537 0.099343 0.173406
H3    H     H_    0.620672 0.390218 0.753868 0.190915
H4    H     H_    0.379404 0.609822 0.246122 0.190928
H5    H     H_    0.611187 0.110740 0.573849 0.193736
H6    H     H_    0.388813 0.889259 0.426150 0.193736
N1    N     N_2   0.486412 0.464646 0.989882 -0.174961
N2    N     N_2   0.513631 0.535344 0.010118 -0.174957
N3    N     N_R   0.513820 0.716920 0.509720 -0.126840
N4    N     N_R   0.486180 0.283080 0.490280 -0.126839
N5    N     N_2   0.533807 0.979354 0.522835 -0.152952
N6    N     N_2   0.466193 0.020646 0.477164 -0.152952
O1    O     O_R   0.495050 0.422540 0.612660 -0.599657
O2    O     O_R   0.504950 0.577460 0.387340 -0.599662
O3    O     O_R   0.503930 0.561840 0.618900 -0.598957
O4    O     O_R   0.496070 0.438160 0.381100 -0.598954
O5    O     O_R   0.661110 0.430350 0.496870 -0.576099
O6    O     O_R   0.338890 0.569650 0.503130 -0.576097
O7    O     O_R   0.669990 0.569650 0.503110 -0.622855
O8    O     O_R   0.330010 0.430350 0.496890 -0.622854
Zn1   Zn    Zn3+2 0.494070 0.406980 0.495830 1.006381
Zn2   Zn    Zn3+2 0.505930 0.593020 0.504170 1.006376
I1    I     I_    0.724609 0.404010 0.288992 -0.303460
I2    I     I_    0.275352 0.595934 0.711020 -0.303476
C31   C     C_1   0.691298 0.443370 0.096160 0.259166
N7    N     N_1   0.759857 0.408870 0.062690 -0.167086
C32   C     C_1   0.308684 0.556570 0.903853 0.259160
N8    N     N_1   0.240103 0.591043 0.937327 -0.167075
I3    I     I_    0.681755 0.280346 0.620213 -0.320464
I4    I     I_    0.318243 0.719654 0.379788 -0.320474
C33   C     C_1   0.680430 0.876995 0.621476 0.213016
N9    N     N_1   0.745956 0.906796 0.665437 -0.159415
C34   C     C_1   0.319570 0.123005 0.378523 0.213017
N10   N     N_1   0.254045 0.093204 0.334561 -0.159414
C35   C     C_1   0.666312 0.700757 0.612436 0.286643
N11   N     N_1   0.726807 0.659725 0.653378 -0.186525
C36   C     C_1   0.333688 0.299243 0.387564 0.286647
N12   N     N_1   0.273192 0.340275 0.346622 -0.186523

loop_
_geom_bond_atom_site_label_1
_geom_bond_atom_site_label_2
_ccdc_geom_bond_type
C2    C22   S    
O5    Zn1   S    
C31   N7    T    
C1    C21   S    
N1    N2    D    
C15   O5    A    
C10   N6    S    
N4    Zn1   S    
C4    C22   A    
C7    H6    S    
C8    H5    S    
C26   C28   A    
C19   C20   S    
C5    I4    S    
C28   N2    S    
C14   C36   S    
O7    Zn2   S    
C1    O3    A    
C26   C31   S    
O2    Zn2   S    
C28   C30   A    
N3    Zn2   S    
C29   H1    S    
C13   C35   S    
C23   C25   A    
C2    O4    A    
C15   O7    A    
C30   H2    S    
C9    C11   A    
O1    Zn1   S    
C32   N8    T    
C25   C32   S    
C27   N1    S    
C10   C12   A    
C6    I3    S    
C16   C18   S    
C17   C19   T    
C12   C14   A    
O8    Zn1   S    
O6    Zn2   S    
C22   C24   A    
C23   I2    S    
C5    N3    A    
C21   C23   A    
C33   N9    T    
C16   O8    A    
C4    H4    S    
C13   N3    A    
C3    C21   A    
C3    H3    S    
C14   N4    A    
C34   N10   T    
C7    C9    A    
C11   C13   A    
C6    N4    A    
C16   O6    A    
C18   C20   T    
C8    C10   A    
C35   N11   T    
N5    N6    D    
C2    O2    A    
C27   C29   A    
C5    C7    A    
C12   C34   S    
C3    C29   A    
C6    C8    A    
O3    Zn2   S    
C24   I1    S    
C15   C17   S    
C9    N5    S    
O4    Zn1   S    
C1    O1    A    
C4    C30   A    
C36   N12   T    
C24   C26   A    
C11   C33   S    
C25   C27   A    
