data_mof_unit_18499.cif
_audit_creation_date              2012-10-26T19:07:32-0400
_audit_creation_method            fapswitch 2.2
_symmetry_space_group_name_H-M    P1
_symmetry_Int_Tables_number       1
_space_group_crystal_system       triclinic
_cell_length_a                    15.070916
_cell_length_b                    13.698479
_cell_length_c                    10.61921
_cell_angle_alpha                 90.398209
_cell_angle_beta                  90.479712
_cell_angle_gamma                 89.79681
_cell_volume                      2192.17819319

loop_
_atom_site_label
_atom_site_type_symbol
_atom_type_description
_atom_site_fract_x
_atom_site_fract_y
_atom_site_fract_z
_atom_type_partial_charge
C1    C     C_R   0.328502 0.500133 0.500617 0.550086
C2    C     C_R   0.952876 0.675112 0.460813 -0.140133
C3    C     C_R   0.452220 0.793540 0.587876 0.030775
C4    C     C_R   0.547779 0.206460 0.412123 0.030775
C5    C     C_R   0.548145 0.792149 0.412756 0.033054
C6    C     C_R   0.451855 0.207851 0.587243 0.033054
C7    C     C_R   0.550009 0.895484 0.410072 -0.033609
C8    C     C_R   0.449991 0.104516 0.589928 -0.033609
C9    C     C_R   0.451352 0.896954 0.591661 -0.034635
C10   C     C_R   0.548647 0.103046 0.408338 -0.034636
C11   C     C_R   0.500347 0.948211 0.500445 0.018521
C12   C     C_R   0.671498 0.499867 0.499383 0.550086
C13   C     C_R   0.499652 0.051789 0.499555 0.018521
C14   C     C_R   0.598973 0.946675 0.318444 -0.030014
C15   C     C_R   0.401027 0.053325 0.681556 -0.030014
C16   C     C_R   0.402391 0.949781 0.683202 -0.030788
C17   C     C_R   0.597608 0.050219 0.316798 -0.030788
C18   C     C_R   0.499786 0.499677 0.259085 0.555765
C19   C     C_R   0.500214 0.500322 0.740915 0.555765
C20   C     C_3   0.428252 0.548651 0.041451 -0.124373
C21   C     C_3   0.571748 0.451349 0.958549 -0.124373
C22   C     C_3   0.502590 0.592942 0.960525 -0.112044
C23   C     C_R   0.953500 0.499902 0.499422 0.061129
C24   C     C_3   0.497410 0.407058 0.039475 -0.112044
C25   C     C_3   0.425966 0.456643 0.956310 -0.125138
C26   C     C_3   0.574034 0.543357 0.043690 -0.125138
C27   C     C_3   0.500266 0.500878 0.877690 0.044394
C28   C     C_3   0.499734 0.499122 0.122310 0.044394
C29   C     C_R   0.814210 0.587188 0.479303 -0.141706
C30   C     C_R   0.185790 0.412812 0.520697 -0.141706
C31   C     C_R   0.768303 0.499686 0.498442 -0.014181
C32   C     C_R   0.231697 0.500314 0.501558 -0.014181
C33   C     C_R   0.815038 0.412173 0.517122 -0.141472
C34   C     C_R   0.046500 0.500098 0.500578 0.061130
C35   C     C_R   0.184962 0.587826 0.482878 -0.141472
C36   C     C_R   0.907476 0.411708 0.518106 0.010250
C37   C     C_R   0.092524 0.588292 0.481894 0.010250
C38   C     C_R   0.649927 0.892031 0.221745 0.029636
C39   C     C_R   0.616580 0.883491 0.098437 -0.086876
C40   C     C_R   0.662702 0.828640 0.008594 -0.114696
C41   C     C_R   0.742236 0.782156 0.041478 -0.104291
C42   C     C_R   0.775990 0.790802 0.164096 -0.118368
C43   C     C_R   0.730138 0.845745 0.254096 -0.112413
C44   C     C_R   0.350073 0.107969 0.778255 0.029636
C45   C     C_R   0.906617 0.587904 0.479617 0.009684
C46   C     C_R   0.269862 0.154255 0.745903 -0.112413
C47   C     C_R   0.224010 0.209199 0.835903 -0.118368
C48   C     C_R   0.257763 0.217844 0.958522 -0.104292
C49   C     C_R   0.337297 0.171360 0.991406 -0.114695
C50   C     C_R   0.383419 0.116509 0.901563 -0.086876
C51   C     C_R   0.353778 0.897521 0.782990 0.027483
C52   C     C_R   0.400576 0.856808 0.884692 -0.111405
C53   C     C_R   0.355059 0.809388 0.980567 -0.117952
C54   C     C_R   0.262665 0.801579 0.974700 -0.099872
C55   C     C_R   0.215680 0.841705 0.873267 -0.105981
C56   C     C_R   0.093383 0.412096 0.520383 0.009684
C57   C     C_R   0.261009 0.889838 0.777655 -0.084598
C58   C     C_R   0.646222 0.102479 0.217009 0.027483
C59   C     C_R   0.738990 0.110163 0.222344 -0.084598
C60   C     C_R   0.784319 0.158296 0.126732 -0.105981
C61   C     C_R   0.737335 0.198420 0.025299 -0.099871
C62   C     C_R   0.644940 0.190610 0.019431 -0.117952
C63   C     C_R   0.599424 0.143191 0.115307 -0.111405
C64   C     C_R   0.954612 0.324681 0.537917 -0.137914
C65   C     C_R   0.045387 0.675319 0.462083 -0.137914
C66   C     C_R   0.047124 0.324888 0.539187 -0.140133
Cu1   Cu    Cu3+1 0.500000 0.597420 0.500000 0.924107
Cu2   Cu    Cu3+1 0.500000 0.402580 0.500000 0.924107
H1    H     H_    0.365528 0.421094 0.917225 0.117118
H2    H     H_    0.220400 0.655486 0.468026 0.126521
H3    H     H_    0.919935 0.256568 0.552490 0.104385
H4    H     H_    0.080065 0.743432 0.447510 0.104386
H5    H     H_    0.082490 0.256938 0.554712 0.100029
H6    H     H_    0.917510 0.743062 0.445288 0.100029
H7    H     H_    0.414430 0.751654 0.654457 0.141996
H8    H     H_    0.585570 0.248346 0.345542 0.141996
H9    H     H_    0.584657 0.749036 0.345061 0.142807
H10   H     H_    0.415343 0.250964 0.654939 0.142807
H11   H     H_    0.554734 0.918797 0.072689 0.101062
H12   H     H_    0.634472 0.578906 0.082775 0.117118
H13   H     H_    0.636696 0.821799 0.913647 0.102849
H14   H     H_    0.777648 0.739364 0.971986 0.109267
H15   H     H_    0.837469 0.754612 0.189558 0.107630
H16   H     H_    0.756399 0.851399 0.349117 0.093854
H17   H     H_    0.243601 0.148603 0.650882 0.093854
H18   H     H_    0.162531 0.245390 0.810441 0.107630
H19   H     H_    0.222352 0.260636 0.028013 0.109267
H20   H     H_    0.363302 0.178200 0.086353 0.102849
H21   H     H_    0.445265 0.081201 0.927311 0.101062
H22   H     H_    0.472094 0.862201 0.889390 0.090048
H23   H     H_    0.369492 0.588129 0.078668 0.108981
H24   H     H_    0.391415 0.778753 0.059341 0.109386
H25   H     H_    0.227493 0.764568 0.048788 0.104859
H26   H     H_    0.144132 0.835729 0.868913 0.105047
H27   H     H_    0.224084 0.921100 0.699748 0.101362
H28   H     H_    0.775915 0.078901 0.300252 0.101361
H29   H     H_    0.855868 0.164272 0.131086 0.105046
H30   H     H_    0.772507 0.235431 0.951210 0.104859
H31   H     H_    0.608584 0.221245 0.940657 0.109387
H32   H     H_    0.527905 0.137797 0.110608 0.090048
H33   H     H_    0.630508 0.411870 0.921332 0.108981
H34   H     H_    0.505386 0.668887 0.925153 0.118740
H35   H     H_    0.494614 0.331113 0.074847 0.118740
H36   H     H_    0.778146 0.654781 0.463893 0.123258
H37   H     H_    0.221854 0.345219 0.536107 0.123258
H38   H     H_    0.779599 0.344513 0.531974 0.126521
N1    N     N_R   0.500000 0.743810 0.500000 -0.247903
N2    N     N_R   0.500000 0.256190 0.500000 -0.247903
O1    O     O_R   0.370260 0.582280 0.500030 -0.506619
O2    O     O_R   0.629740 0.417720 0.499970 -0.506619
O3    O     O_R   0.629740 0.582280 0.499970 -0.507234
O4    O     O_R   0.370260 0.417720 0.500030 -0.507234
O5    O     O_R   0.499980 0.582260 0.316850 -0.509795
O6    O     O_R   0.500020 0.417740 0.683150 -0.509795
O7    O     O_R   0.500020 0.582260 0.683150 -0.510071
O8    O     O_R   0.499980 0.417740 0.316850 -0.510071

loop_
_geom_bond_atom_site_label_1
_geom_bond_atom_site_label_2
_ccdc_geom_bond_type
C21   C26   S    
C34   C56   A    
C8    C13   A    
C23   C45   A    
C34   C37   A    
C41   C42   A    
C52   H22   S    
C61   H30   S    
C14   C17   A    
C16   C51   S    
C2    C65   A    
C12   O2    A    
C53   C54   A    
C7    C11   A    
C4    N2    A    
C62   C63   A    
C35   C37   A    
C9    C16   A    
C15   C44   S    
C1    O4    A    
C38   C39   A    
C6    H10   S    
C20   C25   S    
C10   C17   A    
C15   C16   A    
C33   C36   A    
Cu2   O4    S    
C64   H3    S    
Cu1   O7    S    
C54   H25   S    
C1    O1    A    
C46   C47   A    
Cu1   O1    S    
C7    C14   A    
C35   H2    S    
C37   C65   A    
C31   C33   A    
C51   C57   A    
C19   C27   S    
C2    H6    S    
C17   C58   S    
C46   H17   S    
C21   H33   S    
C21   C27   S    
C59   C60   A    
C43   H16   S    
C49   H20   S    
C55   H26   S    
C18   O5    A    
C44   C46   A    
C2    C45   A    
C20   H23   S    
C42   H15   S    
C51   C52   A    
C47   H18   S    
C18   C28   S    
C24   C25   S    
C60   H29   S    
C18   O8    A    
C39   C40   A    
C5    C7    A    
C6    C8    A    
C20   C28   S    
C19   O6    A    
C3    N1    A    
C58   C59   A    
C66   H5    S    
C30   C56   A    
C1    C32   S    
C26   H12   S    
Cu1   Cu2   S    
C29   H36   S    
C29   C45   A    
C60   C61   A    
C39   H11   S    
C32   C35   A    
C63   H32   S    
C3    C9    A    
C14   C38   S    
C50   H21   S    
C47   C48   A    
C19   O7    A    
C23   C34   A    
C53   H24   S    
C48   H19   S    
Cu2   O2    S    
C9    C11   A    
Cu2   O8    S    
Cu1   O3    S    
C40   C41   A    
C20   C22   S    
C23   C36   A    
C8    C15   A    
C22   C27   S    
C55   C57   A    
C12   C31   S    
C57   H27   S    
C25   H1    S    
C42   C43   A    
C5    H9    S    
C3    H7    S    
C52   C53   A    
C5    N1    A    
C44   C50   A    
C58   C63   A    
C54   C55   A    
C48   C49   A    
C40   H13   S    
C33   H38   S    
C24   C28   S    
C10   C13   A    
C25   C27   S    
C65   H4    S    
C26   C28   S    
C22   H34   S    
C24   H35   S    
Cu1   O5    S    
C38   C43   A    
C30   H37   S    
C30   C32   A    
C11   C13   A    
Cu1   N1    S    
C56   C66   A    
C41   H14   S    
C59   H28   S    
C61   C62   A    
C4    H8    S    
C62   H31   S    
C29   C31   A    
C49   C50   A    
C22   C26   S    
C21   C24   S    
Cu2   O6    S    
C6    N2    A    
Cu2   N2    S    
C36   C64   A    
C4    C10   A    
C12   O3    A    
C64   C66   A    
