data_mof_unit_48451.cif
_audit_creation_date              2012-12-11T15:46:43-0500
_audit_creation_method            fapswitch 2.2
_symmetry_space_group_name_H-M    P1
_symmetry_Int_Tables_number       1
_space_group_crystal_system       triclinic
_cell_length_a                    11.526864
_cell_length_b                    11.490206
_cell_length_c                    19.502458
_cell_angle_alpha                 90.728276
_cell_angle_beta                  90.074827
_cell_angle_gamma                 60.466538
_cell_volume                      2247.18781571

loop_
_atom_site_label
_atom_site_type_symbol
_atom_type_description
_atom_site_fract_x
_atom_site_fract_y
_atom_site_fract_z
_atom_type_partial_charge
C1    C     C_R   0.640540 0.117708 0.599056 0.557703
C2    C     C_1   0.641189 0.703445 0.667836 0.006208
C3    C     C_1   0.063281 0.233882 0.850843 0.002805
C4    C     C_1   0.133776 0.189966 0.721536 -0.027098
C5    C     C_1   0.094167 0.212719 0.791084 -0.029745
C6    C     C_1   0.175246 0.170700 0.663437 0.006208
C7    C     C_1   0.679151 0.190442 0.860877 0.004852
C8    C     C_1   0.658791 0.167699 0.728948 -0.029571
C9    C     C_1   0.666135 0.180536 0.800334 -0.030342
C10   C     C_1   0.653060 0.150475 0.668443 0.007974
C11   C     C_R   0.635552 0.707242 0.183923 0.041765
C12   C     C_R   0.612387 0.745737 0.598518 0.558980
C13   C     C_R   0.521378 0.725433 0.218956 0.027174
C14   C     C_R   0.500683 0.764198 0.286477 0.007240
C15   C     C_R   0.690658 0.797822 0.283736 -0.131874
C16   C     C_R   0.708985 0.762382 0.213612 -0.129000
C17   C     C_3   0.467839 0.631326 0.228556 -0.261686
C18   C     C_3   0.445796 0.673587 0.302917 -0.261148
C19   C     C_R   0.592597 0.787188 0.321853 0.020690
C20   C     C_R   0.167645 0.186352 0.185359 0.029382
C21   C     C_R   0.205040 0.268163 0.221857 0.027585
C22   C     C_R   0.236190 0.246686 0.289869 0.007110
C23   C     C_R   0.238245 0.146520 0.597451 0.562746
C24   C     C_R   0.220560 0.046417 0.286177 -0.111938
C25   C     C_R   0.191665 0.065810 0.215899 -0.154099
C26   C     C_3   0.148100 0.416715 0.231735 -0.109732
C27   C     C_3   0.182038 0.391255 0.307151 -0.221692
C28   C     C_R   0.228670 0.145725 0.325088 0.053075
C29   C     C_R   0.673842 0.180337 0.192761 0.026042
C30   C     C_R   0.768499 0.064066 0.225672 -0.021232
C31   C     C_R   0.760439 0.048074 0.294373 0.016556
C32   C     C_R   0.556528 0.258678 0.300861 -0.147325
C33   C     C_R   0.562062 0.274113 0.230074 -0.165031
C34   C     C_R   0.644366 0.112748 0.402714 0.568409
C35   C     C_3   0.917756 0.000549 0.229201 -0.216513
C36   C     C_3   0.907189 0.980763 0.305028 0.097272
C37   C     C_R   0.659425 0.146733 0.333725 0.073546
C38   C     C_R   0.024777 0.262983 0.921613 0.556104
C39   C     C_R   0.684154 0.604611 0.929594 0.536684
C40   C     C_R   0.708624 0.206287 0.930267 0.537779
C41   C     C_R   0.087013 0.234403 0.123897 0.578799
C42   C     C_R   0.679100 0.618342 0.123714 0.565649
C43   C     C_R   0.708670 0.210753 0.126757 0.555651
C44   C     C_R   0.580142 0.804955 0.395888 0.554488
C45   C     C_R   0.255634 0.135063 0.398067 0.575206
C46   C     C_1   0.671047 0.646386 0.860185 0.004263
C47   C     C_1   0.655047 0.683189 0.728320 -0.030181
C48   C     C_1   0.664066 0.666358 0.799661 -0.031153
Cr1   Cr    Cr6+3 0.404720 0.198220 0.499960 1.026307
Cr2   Cr    Cr6+3 0.698290 0.897110 0.500380 1.050651
Cr3   Cr    Cr6+3 0.396970 0.904720 0.499610 1.050969
Cr4   Cr    Cr6+3 0.926290 0.152010 0.028150 1.023060
Cr5   Cr    Cr6+3 0.921440 0.451830 0.027490 1.022214
Cr6   Cr    Cr6+3 0.626370 0.446880 0.028730 1.022291
H1    H     H_    0.759114 0.822500 0.309052 0.126852
H2    H     H_    0.207706 0.454376 0.204671 0.070948
H3    H     H_    0.259344 0.416034 0.323211 0.104387
H4    H     H_    0.095148 0.430346 0.342817 0.192527
H5    H     H_    0.474702 0.335242 0.330213 0.124641
H6    H     H_    0.484569 0.362625 0.205866 0.114382
H7    H     H_    0.951706 0.073448 0.218061 0.200729
H8    H     H_    0.969183 0.904892 0.199554 0.088745
H9    H     H_    0.950352 0.874153 0.319506 0.121529
H10   H     H_    0.786623 0.767321 0.185126 0.096201
H11   H     H_    0.545920 0.525141 0.221439 0.175053
H12   H     H_    0.373646 0.662690 0.200016 0.126324
H13   H     H_    0.338758 0.728441 0.317719 0.133554
H14   H     H_    0.510865 0.590721 0.337611 0.179351
H15   H     H_    0.227768 0.959297 0.310534 0.162212
H16   H     H_    0.175581 0.993301 0.187679 0.119108
O1    O     O_R   0.267750 0.231960 0.575440 -0.499121
O2    O     O_R   0.685950 0.784660 0.430010 -0.492170
O3    O     O_R   0.502510 0.767000 0.423980 -0.513582
O4    O     O_R   0.288320 0.026340 0.429250 -0.499007
O5    O     O_3   0.499990 0.000020 0.499980 -0.297659
O6    O     O_R   0.821590 0.119350 0.952850 -0.512750
O7    O     O_R   0.037230 0.162540 0.957390 -0.490548
O8    O     O_R   0.056530 0.344750 0.951370 -0.503846
O9    O     O_R   0.798000 0.560370 0.957490 -0.515330
O10   O     O_R   0.596230 0.579400 0.952760 -0.503428
O11   O     O_R   0.639160 0.321170 0.958690 -0.494872
O12   O     O_R   0.527290 0.186640 0.570530 -0.491295
O13   O     O_R   0.821370 0.124220 0.104400 -0.523231
O14   O     O_R   0.037020 0.167050 0.097880 -0.505915
O15   O     O_R   0.056310 0.349620 0.102920 -0.514620
O16   O     O_R   0.797790 0.564880 0.097980 -0.497055
O17   O     O_R   0.596000 0.584270 0.104310 -0.523269
O18   O     O_R   0.638950 0.325690 0.099180 -0.502728
O19   O     O_3   0.824700 0.350240 0.028120 -0.267494
O20   O     O_R   0.728110 0.003450 0.576380 -0.493082
O21   O     O_R   0.682980 0.789190 0.570500 -0.488146
O22   O     O_R   0.499300 0.771880 0.575540 -0.499161
O23   O     O_R   0.285350 0.030870 0.569740 -0.483956
O24   O     O_R   0.270960 0.227070 0.423890 -0.524577
O25   O     O_R   0.530270 0.182120 0.430040 -0.523841
O26   O     O_R   0.731320 0.998570 0.424830 -0.499494
Cl1   Cl    Cl    0.955109 0.076562 0.359198 -0.609828
C49   C     C_2   0.001514 0.499291 0.219866 0.258917
H17   H     H_    0.968795 0.577037 0.182261 0.104619
O27   O     O_2   0.921408 0.476024 0.248929 -0.484150

loop_
_geom_bond_atom_site_label_1
_geom_bond_atom_site_label_2
_ccdc_geom_bond_type
C21   C26   S    
C1    O20   A    
C34   C37   S    
C43   O13   A    
C14   C18   S    
C12   O21   A    
C35   C36   S    
Cr3   O4    S    
C2    C12   S    
C20   C41   S    
C15   C19   A    
C17   H12   S    
C30   C35   S    
C43   O18   A    
Cr5   O9    S    
C34   O26   A    
Cr6   O17   S    
C20   C25   A    
C18   H14   S    
C15   C16   A    
C29   C33   A    
C11   C42   S    
Cr4   O14   S    
Cr2   O2    S    
Cr3   O3    S    
Cr2   O20   S    
C3    C38   S    
C8    C9    S    
C7    C40   S    
Cr1   O5    S    
Cr5   O16   S    
C42   O16   A    
Cr1   O24   S    
C36   H9    S    
C22   C28   A    
C21   C22   A    
C29   C43   S    
Cr4   O19   S    
C45   O24   A    
C14   C19   A    
C24   H15   S    
Cr6   O10   S    
C46   C48   T    
C28   C45   S    
C23   O1    A    
C24   C25   A    
Cr6   O19   S    
C4    C6    T    
C27   H3    S    
C38   O8    A    
Cr4   O6    S    
C18   H13   S    
C41   O14   A    
Cr1   O25   S    
C23   O23   A    
C31   C37   A    
C45   O4    A    
C15   H1    S    
Cr1   O12   S    
Cr4   O13   S    
C29   C30   A    
Cr3   O22   S    
C11   C16   A    
C47   C48   S    
C17   C18   S    
C26   C27   S    
C35   H7    S    
C32   C37   A    
C34   O25   A    
C36   Cl1   S    
Cr3   O23   S    
C39   C46   S    
C26   C49   S    
C33   H6    S    
C49   O27   D    
C22   C27   S    
Cr5   O19   S    
Cr4   O7    S    
C19   C44   S    
C7    C9    T    
C40   O11   A    
C12   O22   A    
C1    C10   S    
C24   C28   A    
Cr3   O5    S    
C4    C5    S    
C3    C5    T    
C27   H4    S    
C26   H2    S    
C25   H16   S    
C38   O7    A    
C2    C47   T    
C41   O15   A    
C17   H11   S    
C13   C17   S    
C32   C33   A    
Cr5   O8    S    
C1    O12   A    
Cr2   O5    S    
C39   O10   A    
Cr6   O18   S    
C11   C13   A    
Cr2   O26   S    
C30   C31   A    
C6    C23   S    
C44   O2    A    
C35   H8    S    
C44   O3    A    
C40   O6    A    
Cr2   O21   S    
C20   C21   A    
C8    C10   T    
C49   H17   S    
Cr1   O1    S    
C31   C36   S    
Cr5   O15   S    
C42   O17   A    
C16   H10   S    
C32   H5    S    
C13   C14   A    
Cr6   O11   S    
C39   O9    A    
