data_mof_unit_34561.cif
_audit_creation_date              2012-12-10T16:57:49-0500
_audit_creation_method            fapswitch 2.2
_symmetry_space_group_name_H-M    P1
_symmetry_Int_Tables_number       1
_space_group_crystal_system       triclinic
_cell_length_a                    7.754356
_cell_length_b                    8.580327
_cell_length_c                    19.011027
_cell_angle_alpha                 90.944264
_cell_angle_beta                  85.56296
_cell_angle_gamma                 93.666634
_cell_volume                      1258.44002316

loop_
_atom_site_label
_atom_site_type_symbol
_atom_type_description
_atom_site_fract_x
_atom_site_fract_y
_atom_site_fract_z
_atom_type_partial_charge
C1    C     C_R   0.545873 0.794828 0.498184 0.973438
C2    C     C_R   0.635595 0.410026 0.176529 -0.201566
C3    C     C_R   0.486390 0.388050 0.852605 -0.062097
C4    C     C_R   0.475077 0.387934 0.147137 -0.064285
C5    C     C_R   0.644495 0.389533 0.810644 0.659941
C6    C     C_R   0.321084 0.406300 0.190020 0.660941
C7    C     C_R   0.650158 0.430472 0.740070 -0.273658
C8    C     C_R   0.329125 0.447547 0.260705 -0.274391
C9    C     C_R   0.499013 0.469515 0.710381 -0.134527
C10   C     C_R   0.489885 0.469861 0.289580 -0.137026
C11   C     C_R   0.472198 0.360345 0.071012 0.313794
C12   C     C_R   0.454127 0.205172 0.501817 0.970410
C13   C     C_R   0.478828 0.360745 0.928687 0.312602
C14   C     C_2   0.570066 0.958258 0.497151 -0.373281
C15   C     C_2   0.429933 0.041751 0.502863 -0.371267
C16   C     C_R   0.500995 0.496508 0.634820 0.900285
C17   C     C_R   0.497703 0.496451 0.365193 0.901284
C18   C     C_R   0.341817 0.467649 0.752021 -0.169427
C19   C     C_R   0.642940 0.451031 0.247029 -0.165699
C20   C     C_R   0.335444 0.426762 0.822355 -0.201796
F1    F     F_    0.793906 0.352418 0.837270 -0.663327
F2    F     F_    0.162768 0.384294 0.164238 -0.667882
H1    H     H_    0.222817 0.495814 0.730169 0.186700
H2    H     H_    0.986129 0.617818 0.552687 0.192757
H3    H     H_    0.768682 0.466407 0.268261 0.191822
H4    H     H_    0.211936 0.427480 0.853094 0.219910
H5    H     H_    0.756475 0.398070 0.144949 0.223959
H6    H     H_    0.772562 0.429275 0.708522 0.181928
H7    H     H_    0.209172 0.458997 0.293029 0.178317
H8    H     H_    0.702395 0.009350 0.491705 0.181791
H9    H     H_    0.297604 0.990664 0.508310 0.181566
H10   H     H_    0.013874 0.382197 0.447303 0.191662
N1    N     N_R   0.625303 0.341587 0.961161 -0.066504
N2    N     N_R   0.324426 0.372931 0.038532 -0.068026
N3    N     N_R   0.622047 0.341321 0.031020 -0.156237
N4    N     N_R   0.327654 0.372951 0.968683 -0.155566
N5    N     N_2   0.950330 0.457950 0.481240 -0.173562
N6    N     N_2   0.049670 0.542050 0.518760 -0.173705
O1    O     O_R   0.389250 0.738570 0.504600 -0.610139
O2    O     O_R   0.610750 0.261430 0.495400 -0.611407
O3    O     O_R   0.678400 0.711620 0.492580 -0.627115
O4    O     O_R   0.321600 0.288380 0.507420 -0.628719
O5    O     O_R   0.355380 0.513500 0.607880 -0.618908
O6    O     O_R   0.644620 0.486500 0.392120 -0.618560
O7    O     O_R   0.644530 0.486550 0.595850 -0.627692
O8    O     O_R   0.355470 0.513450 0.404150 -0.626592
Zn1   Zn    Zn3+2 0.306930 0.517990 0.508030 0.949854
Zn2   Zn    Zn3+2 0.693070 0.482010 0.491970 0.950000

loop_
_geom_bond_atom_site_label_1
_geom_bond_atom_site_label_2
_ccdc_geom_bond_type
C16   O7    A    
C12   O2    A    
C2    C4    A    
C8    C10   A    
C13   N1    A    
C2    H5    S    
H2    N6    S    
C5    C7    A    
N2    N4    A    
C3    C13   S    
C12   C15   S    
C10   C19   A    
C11   N3    A    
C17   O6    A    
C3    C20   A    
H10   N5    S    
C4    C11   S    
C15   H9    S    
C16   O5    A    
N6    Zn1   S    
N5    N6    D    
C20   H4    S    
C14   H8    S    
C8    H7    S    
C1    O3    A    
N1    N3    A    
C9    C16   S    
C18   C20   A    
O4    Zn1   S    
C19   H3    S    
C1    O1    A    
C10   C17   S    
C12   O4    A    
C18   H1    S    
C6    F2    S    
C9    C18   A    
C5    F1    S    
C17   O8    A    
C13   N4    A    
C4    C6    A    
O7    Zn2   S    
C7    C9    A    
O2    Zn2   S    
C14   C15   D    
C6    C8    A    
C1    C14   S    
C3    C5    A    
C2    C19   A    
O8    Zn1   S    
O1    Zn1   S    
O5    Zn1   S    
O3    Zn2   S    
C11   N2    A    
C7    H6    S    
O6    Zn2   S    
N5    Zn2   S    
