data_mof_unit_34201.cif
_audit_creation_date              2012-12-10T18:00:19-0500
_audit_creation_method            fapswitch 2.2
_symmetry_space_group_name_H-M    P1
_symmetry_Int_Tables_number       1
_space_group_crystal_system       triclinic
_cell_length_a                    10.940991
_cell_length_b                    9.528902
_cell_length_c                    10.621772
_cell_angle_alpha                 90.234591
_cell_angle_beta                  90.344076
_cell_angle_gamma                 90.004902
_cell_volume                      1107.35028611

loop_
_atom_site_label
_atom_site_type_symbol
_atom_type_description
_atom_site_fract_x
_atom_site_fract_y
_atom_site_fract_z
_atom_type_partial_charge
C1    C     C_R   0.871778 0.499793 0.498651 -0.388472
C2    C     C_3   0.500059 0.366461 0.039949 -0.137764
C3    C     C_3   0.399607 0.433818 0.957002 -0.180179
C4    C     C_3   0.600409 0.566384 0.042993 -0.170106
C5    C     C_3   0.500036 0.501170 0.877633 0.042524
C6    C     C_3   0.499976 0.498988 0.122356 0.042373
C7    C     C_R   0.455178 0.073858 0.399425 -0.015191
C8    C     C_R   0.545661 0.926137 0.600211 -0.054169
C9    C     C_R   0.544842 0.074725 0.600567 -0.012445
C10   C     C_R   0.454306 0.925273 0.399802 -0.051030
C11   C     C_R   0.063342 0.372188 0.494081 0.298775
C12   C     C_R   0.128228 0.499789 0.501686 -0.389014
C13   C     C_R   0.936892 0.627411 0.491438 0.300138
C14   C     C_R   0.936629 0.372266 0.506447 0.299503
C15   C     C_R   0.063151 0.627483 0.508921 0.298386
C16   C     C_3   0.119518 0.199604 0.357277 0.102318
C17   C     C_3   0.130868 0.040883 0.352837 -0.759228
C18   C     C_3   0.870131 0.775317 0.339804 0.102366
C19   C     C_3   0.796396 0.907338 0.313212 -0.778551
C20   C     C_3   0.880229 0.201195 0.643430 0.101579
C21   C     C_3   0.868901 0.042511 0.648074 -0.758055
C22   C     C_3   0.130079 0.776872 0.660428 0.103335
C23   C     C_R   0.262116 0.499953 0.500853 0.876251
C24   C     C_3   0.203682 0.909293 0.686870 -0.779099
C25   C     C_R   0.737886 0.499955 0.499252 0.877415
C26   C     C_R   0.499939 0.499670 0.259222 0.756652
C27   C     C_R   0.500062 0.500359 0.740774 0.756363
C28   C     C_3   0.399525 0.566220 0.041691 -0.184868
C29   C     C_3   0.600498 0.433965 0.958292 -0.175095
C30   C     C_3   0.499947 0.633721 0.960024 -0.137004
Cu1   Cu    Cu3+1 0.500000 0.640660 0.500000 0.950962
Cu2   Cu    Cu3+1 0.500000 0.359340 0.500000 0.960252
H1    H     H_    0.418305 0.128894 0.318941 0.115552
H2    H     H_    0.500060 0.256978 0.075338 0.125202
H3    H     H_    0.197536 0.246732 0.305831 0.130990
H4    H     H_    0.032956 0.227734 0.307120 0.132664
H5    H     H_    0.051251 0.993043 0.399799 0.285732
H6    H     H_    0.134615 0.003873 0.253688 0.171433
H7    H     H_    0.214143 0.006655 0.403422 0.266356
H8    H     H_    0.823146 0.685909 0.291726 0.118703
H9    H     H_    0.962792 0.788010 0.298576 0.135990
H10   H     H_    0.839085 0.999907 0.359297 0.273677
H11   H     H_    0.791701 0.925718 0.210140 0.179016
H12   H     H_    0.583280 0.871082 0.680339 0.127945
H13   H     H_    0.702379 0.894689 0.349356 0.265090
H14   H     H_    0.802120 0.248857 0.694675 0.127703
H15   H     H_    0.966708 0.229917 0.693687 0.131278
H16   H     H_    0.948663 0.994184 0.601444 0.285077
H17   H     H_    0.864856 0.006589 0.747264 0.171737
H18   H     H_    0.785803 0.007675 0.597254 0.266367
H19   H     H_    0.177239 0.688011 0.708494 0.123634
H20   H     H_    0.037450 0.789805 0.701763 0.136321
H21   H     H_    0.160783 0.001359 0.640886 0.273389
H22   H     H_    0.208555 0.928639 0.789928 0.179396
H23   H     H_    0.581793 0.130416 0.681054 0.120024
H24   H     H_    0.297641 0.896517 0.650525 0.264441
H25   H     H_    0.416579 0.869564 0.319687 0.131381
H26   H     H_    0.317515 0.379744 0.918564 0.120806
H27   H     H_    0.682436 0.620579 0.081463 0.112663
H28   H     H_    0.317383 0.620223 0.079056 0.116537
H29   H     H_    0.682605 0.379955 0.920826 0.107307
H30   H     H_    0.499840 0.743190 0.924594 0.125033
N1    N     N_R   0.500000 0.852070 0.500000 -0.156517
N2    N     N_R   0.500000 0.147930 0.500000 -0.143384
O1    O     O_R   0.319640 0.618740 0.499990 -0.538976
O2    O     O_3   0.878139 0.753933 0.471332 -0.540456
O3    O     O_3   0.877335 0.244629 0.516214 -0.537562
O4    O     O_3   0.121949 0.754195 0.528919 -0.541373
O5    O     O_R   0.680360 0.381260 0.500010 -0.542026
O6    O     O_R   0.680360 0.618740 0.500010 -0.538463
O7    O     O_R   0.319640 0.381260 0.499990 -0.542170
O8    O     O_R   0.499970 0.618770 0.316850 -0.597631
O9    O     O_R   0.500030 0.381230 0.683150 -0.598286
O10   O     O_R   0.500030 0.618770 0.683150 -0.602321
O11   O     O_R   0.499970 0.381230 0.316850 -0.602844
O12   O     O_3   0.122601 0.244441 0.484424 -0.538359

loop_
_geom_bond_atom_site_label_1
_geom_bond_atom_site_label_2
_ccdc_geom_bond_type
C7    C10   A    
C9    N2    A    
C26   O8    A    
C20   O3    S    
C10   N1    A    
Cu2   O11   S    
C21   H17   S    
C12   C23   S    
C2    C29   S    
C3    C28   S    
C11   O12   S    
C16   H3    S    
C11   C14   A    
C24   H22   S    
C18   C19   S    
C17   H7    S    
C18   H8    S    
C5    C27   S    
Cu1   O6    S    
C6    C28   S    
C8    C9    A    
C14   O3    S    
C9    H23   S    
C27   O10   A    
C4    C29   S    
C19   H10   S    
C21   H16   S    
C2    H2    S    
C1    C25   S    
C7    H1    S    
C2    C6    S    
C21   H18   S    
C19   H11   S    
Cu2   O7    S    
C5    C29   S    
C13   O2    S    
C28   H28   S    
C29   H29   S    
C23   O7    A    
C10   H25   S    
Cu2   N2    S    
C4    C6    S    
C18   H9    S    
Cu2   O9    S    
C16   C17   S    
Cu1   O10   S    
C24   H21   S    
C1    C13   A    
Cu1   N1    S    
Cu1   Cu2   S    
C12   C15   A    
C26   O11   A    
C17   H5    S    
C22   O4    S    
Cu1   O8    S    
C13   C15   A    
C22   C24   S    
C24   H24   S    
C22   H20   S    
C5    C30   S    
Cu1   O1    S    
C16   O12   S    
C8    H12   S    
C3    C5    S    
C11   C12   A    
C19   H13   S    
Cu2   O5    S    
C25   O6    A    
C18   O2    S    
C23   O1    A    
C30   H30   S    
C2    C3    S    
C16   H4    S    
C6    C26   S    
C15   O4    S    
C4    H27   S    
C28   C30   S    
C17   H6    S    
C4    C30   S    
C7    N2    A    
C20   H15   S    
C8    N1    A    
C3    H26   S    
C25   O5    A    
C20   C21   S    
C1    C14   A    
C27   O9    A    
C20   H14   S    
C22   H19   S    
