data_mof_unit_24224.cif
_audit_creation_date              2013-03-05T16:15:25-0500
_audit_creation_method            fapswitch 2.2
_symmetry_space_group_name_H-M    P1
_symmetry_Int_Tables_number       1
_space_group_crystal_system       triclinic
_cell_length_a                    24.369068
_cell_length_b                    24.377934
_cell_length_c                    25.839332
_cell_angle_alpha                 90.521296
_cell_angle_beta                  90.500235
_cell_angle_gamma                 90.03385
_cell_volume                      15349.0843647

loop_
_atom_site_label
_atom_site_type_symbol
_atom_site_description
_atom_site_fract_x
_atom_site_fract_y
_atom_site_fract_z
_atom_type_partial_charge
Zn1   Zn    Zn3+2 0.064970 0.500000 0.293390 1.081126
Zn2   Zn    Zn3+2 0.935030 0.500000 0.706610 1.046332
Zn3   Zn    Zn3+2 0.500000 0.935030 0.293390 1.037733
Zn4   Zn    Zn3+2 0.500000 0.064970 0.706610 1.002882
Zn5   Zn    Zn3+2 0.935030 0.500000 0.293390 1.004390
Zn6   Zn    Zn3+2 0.064970 0.500000 0.706610 1.037718
Zn7   Zn    Zn3+2 0.500000 0.064970 0.293390 1.050337
Zn8   Zn    Zn3+2 0.500000 0.935030 0.706610 1.077222
Zn9   Zn    Zn3+2 0.564970 1.000000 0.793390 1.075726
Zn10  Zn    Zn3+2 0.435030 1.000000 0.206610 1.050882
Zn11  Zn    Zn3+2 0.000000 0.435030 0.793390 1.037894
Zn12  Zn    Zn3+2 1.000000 0.564970 0.206610 1.005085
Zn13  Zn    Zn3+2 0.435030 1.000000 0.793390 1.004514
Zn14  Zn    Zn3+2 0.564970 1.000000 0.206610 1.039121
Zn15  Zn    Zn3+2 1.000000 0.564970 0.793390 1.049242
Zn16  Zn    Zn3+2 1.000000 0.435030 0.206610 1.080724
C1    C     C_R   0.229390 0.271399 0.248973 -0.128526
C2    C     C_R   0.769528 0.727083 0.750245 -0.109645
C3    C     C_R   0.271111 0.771047 0.250743 -0.111160
C4    C     C_R   0.724843 0.232978 0.754684 -0.118429
C5    C     C_R   0.771953 0.729860 0.251783 -0.122467
C6    C     C_R   0.233091 0.275882 0.756020 -0.120913
C7    C     C_R   0.733818 0.224051 0.254599 -0.096275
C8    C     C_R   0.270242 0.772404 0.746842 -0.121316
C9    C     C_R   0.767203 0.275934 0.753383 -0.120850
C10   C     C_R   0.228491 0.728295 0.251063 -0.110799
C11   C     C_R   0.726314 0.769023 0.749965 -0.122409
C12   C     C_R   0.272194 0.228934 0.248479 -0.123700
C13   C     C_R   0.227432 0.729932 0.747271 -0.120747
C14   C     C_R   0.775568 0.267659 0.255154 -0.095863
C15   C     C_R   0.276479 0.233764 0.755407 -0.111529
C16   C     C_R   0.729211 0.772639 0.251918 -0.136777
O1    O     O_3   0.000000 0.500000 0.250000 -0.515096
O2    O     O_3   0.000000 0.500000 0.750000 -0.514380
O3    O     O_3   0.500000 1.000000 0.250000 -0.515625
O4    O     O_3   0.500000 1.000000 0.750000 -0.513358
O5    O     O_R   1.000000 0.454520 0.134210 -0.604824
O6    O     O_R   0.000000 0.545480 0.865790 -0.605257
O7    O     O_R   0.454520 0.000000 0.134210 -0.602872
O8    O     O_R   0.545480 1.000000 0.865790 -0.613483
O9    O     O_R   0.000000 0.545480 0.134210 -0.641821
O10   O     O_R   0.000000 0.454520 0.865790 -0.645289
O11   O     O_R   0.545480 0.000000 0.134210 -0.644850
O12   O     O_R   0.454520 1.000000 0.865790 -0.641743
O13   O     O_R   0.500000 0.954520 0.634210 -0.611809
O14   O     O_R   0.500000 0.045480 0.365790 -0.601660
O15   O     O_R   0.954520 0.500000 0.634210 -0.608776
O16   O     O_R   0.045480 0.500000 0.365790 -0.606087
O17   O     O_R   0.500000 0.045480 0.634210 -0.642175
O18   O     O_R   0.500000 0.954520 0.365790 -0.645687
O19   O     O_R   0.045480 0.500000 0.634210 -0.645364
O20   O     O_R   0.954520 0.500000 0.365790 -0.642211
O21   O     O_R   0.063990 0.609460 0.219650 -0.598449
O22   O     O_R   0.936010 0.390540 0.780350 -0.657119
O23   O     O_R   0.609460 0.936010 0.219650 -0.605732
O24   O     O_R   0.390540 0.063990 0.780350 -0.654340
O25   O     O_R   0.936010 0.390540 0.219650 -0.648778
O26   O     O_R   0.063990 0.609460 0.780350 -0.574180
O27   O     O_R   0.390540 0.063990 0.219650 -0.638623
O28   O     O_R   0.609460 0.936010 0.780350 -0.577760
O29   O     O_R   0.936010 0.609460 0.780350 -0.643209
O30   O     O_R   0.063990 0.390540 0.219650 -0.580841
O31   O     O_R   0.390540 0.936010 0.780350 -0.602518
O32   O     O_R   0.609460 0.063990 0.219650 -0.660622
O33   O     O_R   0.063990 0.390540 0.780350 -0.611369
O34   O     O_R   0.936010 0.609460 0.219650 -0.656429
O35   O     O_R   0.609460 0.063990 0.780350 -0.653608
O36   O     O_R   0.390540 0.936010 0.219650 -0.576573
O37   O     O_R   0.563990 0.109460 0.719650 -0.606708
O38   O     O_R   0.436010 0.890540 0.280350 -0.660838
O39   O     O_R   0.109460 0.436010 0.719650 -0.609346
O40   O     O_R   0.890540 0.563990 0.280350 -0.656619
O41   O     O_R   0.436010 0.890540 0.719650 -0.653528
O42   O     O_R   0.563990 0.109460 0.280350 -0.574746
O43   O     O_R   0.890540 0.563990 0.719650 -0.645795
O44   O     O_R   0.109460 0.436010 0.280350 -0.580025
O45   O     O_R   0.436010 0.109460 0.280350 -0.639288
O46   O     O_R   0.563990 0.890540 0.719650 -0.575855
O47   O     O_R   0.890540 0.436010 0.280350 -0.598258
O48   O     O_R   0.109460 0.563990 0.719650 -0.658683
O49   O     O_R   0.563990 0.890540 0.280350 -0.606382
O50   O     O_R   0.436010 0.109460 0.719650 -0.653643
O51   O     O_R   0.109460 0.563990 0.280350 -0.649047
O52   O     O_R   0.890540 0.436010 0.719650 -0.572511
H1    H     H_    0.817455 0.433063 0.440446 0.208666
H2    H     H_    0.182788 0.432654 0.559432 0.202943
H3    H     H_    0.549030 0.192605 0.469373 0.196892
H4    H     H_    0.551050 0.808288 0.532280 0.206243
H5    H     H_    0.192681 0.450205 0.468759 0.203106
H6    H     H_    0.808270 0.448300 0.531818 0.206123
H7    H     H_    0.566757 0.817528 0.441250 0.205170
H8    H     H_    0.566234 0.182807 0.560426 0.203448
H9    H     H_    0.316895 0.933857 0.939920 0.207285
H10   H     H_    0.682946 0.934690 0.058254 0.206775
H11   H     H_    0.050738 0.692159 0.969156 0.205477
H12   H     H_    0.050433 0.307559 0.030665 0.201866
H13   H     H_    0.691737 0.949771 0.967105 0.207709
H14   H     H_    0.307423 0.950280 0.031104 0.201487
H15   H     H_    0.068300 0.317940 0.940056 0.207457
H16   H     H_    0.067247 0.682402 0.060315 0.206541
C17   C     C_R   0.105709 0.455008 0.452986 0.360416
C18   C     C_R   0.895429 0.453035 0.547124 0.358481
C19   C     C_R   0.561759 0.906067 0.442008 0.374211
C20   C     C_R   0.561668 0.094244 0.559032 0.373385
C21   C     C_R   0.906032 0.438146 0.441208 0.368330
C22   C     C_R   0.094243 0.437861 0.558249 0.375002
C23   C     C_R   0.544860 0.105615 0.453510 0.365058
C24   C     C_R   0.546396 0.895417 0.547566 0.359072
C25   C     C_R   0.604468 0.953656 0.952108 0.358252
C26   C     C_R   0.394485 0.954629 0.046687 0.360953
C27   C     C_R   0.062667 0.406425 0.941618 0.371028
C28   C     C_R   0.062103 0.593868 0.059079 0.370344
C29   C     C_R   0.405488 0.938466 0.941001 0.368196
C30   C     C_R   0.594334 0.938937 0.057766 0.371528
C31   C     C_R   0.045940 0.605160 0.953376 0.358785
C32   C     C_R   0.045124 0.394405 0.046757 0.360742
C33   C     C_R   0.152049 0.453377 0.485204 -0.292726
C34   C     C_R   0.848757 0.452113 0.515251 -0.286326
C35   C     C_R   0.556535 0.854003 0.463348 -0.277859
C36   C     C_R   0.555930 0.146425 0.538035 -0.284813
C37   C     C_R   0.853962 0.443228 0.462717 -0.272995
C38   C     C_R   0.146447 0.443207 0.537273 -0.281268
C39   C     C_R   0.545960 0.151974 0.485739 -0.297378
C40   C     C_R   0.547346 0.848771 0.515675 -0.289436
C41   C     C_R   0.651275 0.953330 0.983820 -0.283395
C42   C     C_R   0.348006 0.953527 0.014613 -0.290556
C43   C     C_R   0.057513 0.354111 0.962351 -0.270771
C44   C     C_R   0.056857 0.646044 0.037925 -0.275547
C45   C     C_R   0.353375 0.943995 0.962243 -0.273612
C46   C     C_R   0.646301 0.944497 0.036232 -0.275720
C47   C     C_R   0.047253 0.651576 0.985549 -0.286448
C48   C     C_R   0.047146 0.348229 0.014363 -0.292965
C49   C     C_R   0.547801 0.958431 0.029498 -0.071144
C50   C     C_R   0.451790 0.958304 0.969755 -0.069775
C51   C     C_R   0.037433 0.447936 0.025133 -0.064090
C52   C     C_R   0.037622 0.551910 0.975223 -0.064415
C53   C     C_R   0.447854 0.962546 0.024832 -0.064680
C54   C     C_R   0.551552 0.962473 0.974508 -0.065089
C55   C     C_R   0.041923 0.547771 0.030272 -0.070701
C56   C     C_R   0.042121 0.452243 0.970202 -0.071084
C57   C     C_R   0.048130 0.458006 0.529763 -0.070563
C58   C     C_R   0.952316 0.458088 0.469890 -0.070871
C59   C     C_R   0.537593 0.948402 0.525351 -0.065026
C60   C     C_R   0.537187 0.052178 0.475231 -0.065479
C61   C     C_R   0.948415 0.462019 0.524971 -0.064854
C62   C     C_R   0.052229 0.462634 0.474794 -0.064868
C63   C     C_R   0.541593 0.048108 0.530259 -0.070416
C64   C     C_R   0.541797 0.952326 0.470378 -0.072517
C65   C     C_R   0.007084 0.499226 0.109755 0.847684
C66   C     C_R   0.007109 0.500754 0.890316 0.849124
C67   C     C_R   0.499247 0.992876 0.109679 0.847619
C68   C     C_R   0.500653 0.992946 0.890227 0.850887
C69   C     C_R   0.507039 0.999313 0.609765 0.850084
C70   C     C_R   0.507069 0.000771 0.390320 0.847515
C71   C     C_R   0.999321 0.492787 0.609713 0.850228
C72   C     C_R   0.000771 0.492919 0.390261 0.846836
C73   C     C_R   0.497558 0.971508 0.054352 -0.095219
C74   C     C_R   0.502014 0.971546 0.945206 -0.091706
C75   C     C_R   0.028475 0.497520 0.054717 -0.095340
C76   C     C_R   0.028605 0.502400 0.945607 -0.093645
C77   C     C_R   0.997908 0.471233 0.554456 -0.092953
C78   C     C_R   0.002533 0.471547 0.445318 -0.095529
C79   C     C_R   0.528397 0.997883 0.554747 -0.092767
C80   C     C_R   0.528428 0.002510 0.445633 -0.095420
C81   C     C_R   0.105117 0.605003 0.250253 0.891157
C82   C     C_R   0.894794 0.395008 0.749884 0.883164
C83   C     C_R   0.604981 0.895043 0.250009 0.957099
C84   C     C_R   0.394976 0.105171 0.750087 0.823294
C85   C     C_R   0.894964 0.394805 0.249797 0.887152
C86   C     C_R   0.104976 0.605308 0.749958 0.885171
C87   C     C_R   0.394843 0.105112 0.250008 0.823847
C88   C     C_R   0.605210 0.894796 0.749945 0.945329
C89   C     C_R   0.894672 0.605149 0.750055 0.829329
C90   C     C_R   0.105303 0.394751 0.249957 0.949287
C91   C     C_R   0.394878 0.894840 0.749694 0.895426
C92   C     C_R   0.605311 0.105134 0.250268 0.881878
C93   C     C_R   0.105208 0.395032 0.750132 0.960654
C94   C     C_R   0.894978 0.605240 0.250185 0.826921
C95   C     C_R   0.604953 0.105441 0.750584 0.899948
C96   C     C_R   0.394618 0.895001 0.250063 0.884959
C97   C     C_R   0.195204 0.278752 0.205006 0.476597
C98   C     C_R   0.820162 0.737442 0.775920 0.492528
C99   C     C_R   0.275873 0.806293 0.207841 0.471361
C100  C     C_R   0.736083 0.182169 0.778775 0.492589
C101  C     C_R   0.809363 0.726218 0.210197 0.487076
C102  C     C_R   0.179193 0.261533 0.770597 0.454673
C103  C     C_R   0.725671 0.191008 0.209896 0.482682
C104  C     C_R   0.258086 0.826171 0.764141 0.466319
C105  C     C_R   0.790954 0.295783 0.800074 0.485069
C106  C     C_R   0.172744 0.742739 0.243887 0.471932
C107  C     C_R   0.706467 0.790336 0.797244 0.456396
C108  C     C_R   0.257872 0.173620 0.237743 0.473896
C109  C     C_R   0.200690 0.717345 0.794146 0.477254
C110  C     C_R   0.831144 0.254780 0.246032 0.495266
C111  C     C_R   0.288877 0.203397 0.800552 0.503016
C112  C     C_R   0.743600 0.828718 0.246816 0.485650
C113  C     C_R   0.705287 0.788965 0.702539 0.479325
C114  C     C_R   0.327420 0.242798 0.260386 0.489812
C115  C     C_R   0.785453 0.296393 0.705379 0.471497
C116  C     C_R   0.243066 0.672708 0.258584 0.470842
C117  C     C_R   0.303951 0.221558 0.708598 0.472075
C118  C     C_R   0.673283 0.757656 0.256173 0.462831
C119  C     C_R   0.213186 0.701109 0.701192 0.508051
C120  C     C_R   0.759644 0.322865 0.263038 0.478770
C121  C     C_R   0.307085 0.777330 0.293588 0.475274
C122  C     C_R   0.673246 0.241876 0.730871 0.458012
C123  C     C_R   0.221699 0.304641 0.293589 0.474700
C124  C     C_R   0.760375 0.676088 0.725222 0.467279
C125  C     C_R   0.700896 0.216305 0.298437 0.468455
C126  C     C_R   0.323746 0.759380 0.729944 0.460234
C127  C     C_R   0.775621 0.691951 0.292994 0.491885
C128  C     C_R   0.244456 0.329929 0.739752 0.461536
C129  C     C_R   0.153598 0.317697 0.206801 -0.267024
C130  C     C_R   0.860027 0.696561 0.776900 -0.299108
C131  C     C_R   0.314839 0.847984 0.209172 -0.264738
C132  C     C_R   0.695857 0.141490 0.778698 -0.307309
C133  C     C_R   0.850635 0.686772 0.211303 -0.309065
C134  C     C_R   0.137889 0.301048 0.769449 -0.237375
C135  C     C_R   0.684670 0.151109 0.209710 -0.312716
C136  C     C_R   0.299524 0.865431 0.766058 -0.246855
C137  C     C_R   0.834334 0.332929 0.798274 -0.316443
C138  C     C_R   0.132964 0.701781 0.242090 -0.267871
C139  C     C_R   0.668429 0.832841 0.796707 -0.246240
C140  C     C_R   0.298736 0.133843 0.236524 -0.296234
C141  C     C_R   0.159041 0.678324 0.793856 -0.254149
C142  C     C_R   0.869347 0.296986 0.241689 -0.282121
C143  C     C_R   0.325685 0.159774 0.797429 -0.306613
C144  C     C_R   0.702236 0.867999 0.243965 -0.246913
C145  C     C_R   0.664814 0.829208 0.703279 -0.261036
C146  C     C_R   0.366619 0.201406 0.262773 -0.300848
C147  C     C_R   0.826147 0.336476 0.704977 -0.249722
C148  C     C_R   0.202075 0.632953 0.260074 -0.268985
C149  C     C_R   0.343625 0.180415 0.707658 -0.305789
C150  C     C_R   0.633187 0.798279 0.257387 -0.242212
C151  C     C_R   0.174675 0.658943 0.703231 -0.318144
C152  C     C_R   0.799287 0.364058 0.262315 -0.255976
C153  C     C_R   0.348191 0.817016 0.292353 -0.315990
C154  C     C_R   0.634892 0.199603 0.729066 -0.237339
C155  C     C_R   0.182808 0.346322 0.292334 -0.263728
C156  C     C_R   0.802125 0.637217 0.724207 -0.305912
C157  C     C_R   0.657146 0.179260 0.295599 -0.277960
C158  C     C_R   0.363844 0.800130 0.729737 -0.290062
C159  C     C_R   0.814871 0.650476 0.291068 -0.303871
C160  C     C_R   0.201936 0.367917 0.736427 -0.242311
H17   H     H_    0.126540 0.321203 0.173852 0.250225
H18   H     H_    0.897948 0.704190 0.797967 0.202022
H19   H     H_    0.316644 0.875672 0.176987 0.246499
H20   H     H_    0.704313 0.103265 0.798283 0.198991
H21   H     H_    0.880033 0.685591 0.180095 0.195215
H22   H     H_    0.096989 0.289946 0.781734 0.188913
H23   H     H_    0.679843 0.124820 0.175936 0.191492
H24   H     H_    0.290037 0.906184 0.780480 0.191392
H25   H     H_    0.853060 0.347179 0.834148 0.181995
H26   H     H_    0.090527 0.712958 0.235058 0.180732
H27   H     H_    0.653924 0.848822 0.833088 0.250733
H28   H     H_    0.287739 0.091882 0.226829 0.194838
H29   H     H_    0.138039 0.670136 0.829517 0.249618
H30   H     H_    0.911661 0.286928 0.233238 0.190026
H31   H     H_    0.333672 0.135654 0.831702 0.188897
H32   H     H_    0.713257 0.910575 0.238202 0.182608
H33   H     H_    0.648187 0.843178 0.666990 0.247227
H34   H     H_    0.408409 0.211910 0.273636 0.194151
H35   H     H_    0.838859 0.352811 0.668325 0.245129
H36   H     H_    0.213322 0.590630 0.267013 0.192661
H37   H     H_    0.365599 0.172464 0.672094 0.186698
H38   H     H_    0.590610 0.786617 0.262105 0.182383
H39   H     H_    0.165367 0.635707 0.668287 0.187794
H40   H     H_    0.787154 0.406111 0.269899 0.180823
H41   H     H_    0.376478 0.820381 0.324814 0.192286
H42   H     H_    0.596055 0.206627 0.709504 0.200786
H43   H     H_    0.178729 0.372361 0.325963 0.253557
H44   H     H_    0.794999 0.598834 0.703759 0.202896
H45   H     H_    0.630634 0.175391 0.328448 0.242750
H46   H     H_    0.404467 0.790067 0.715830 0.198526
H47   H     H_    0.815922 0.620490 0.321755 0.193691
H48   H     H_    0.210904 0.408844 0.722824 0.190918
C161  C     C_R   0.147921 0.352483 0.249642 -0.184042
C162  C     C_R   0.851781 0.646997 0.750286 -0.150985
C163  C     C_R   0.351905 0.852835 0.250504 -0.155921
C164  C     C_R   0.645978 0.149285 0.752636 -0.134491
C165  C     C_R   0.852938 0.648121 0.250886 -0.146287
C166  C     C_R   0.148824 0.353927 0.751668 -0.094533
C167  C     C_R   0.649117 0.146285 0.251661 -0.150517
C168  C     C_R   0.352208 0.852812 0.748555 -0.123868
C169  C     C_R   0.851468 0.353854 0.750943 -0.156163
C170  C     C_R   0.147353 0.647180 0.250874 -0.111469
C171  C     C_R   0.647190 0.852151 0.749979 -0.180095
C172  C     C_R   0.352788 0.147413 0.249716 -0.144890
C173  C     C_R   0.146706 0.648242 0.749055 -0.164742
C174  C     C_R   0.853799 0.351428 0.250671 -0.115336
C175  C     C_R   0.353808 0.148743 0.751559 -0.138132
C176  C     C_R   0.647422 0.853145 0.250426 -0.085901
O53   O     O_3   0.197230 0.243913 0.162383 -0.584171
C177  C     C_3   0.237418 0.261618 0.127105 0.083430
H49   H     H_    0.246618 0.226214 0.101242 0.187828
H50   H     H_    0.276861 0.272474 0.146402 0.103625
C178  C     C_3   0.216290 0.309071 0.093723 -0.348811
H51   H     H_    0.175211 0.298460 0.077443 0.254479
H52   H     H_    0.212322 0.346752 0.117890 0.235542
C179  C     C_3   0.255331 0.321007 0.049379 -0.935001
H53   H     H_    0.296655 0.331965 0.064765 0.257850
H54   H     H_    0.239351 0.355919 0.026428 0.286560
H55   H     H_    0.258755 0.284585 0.023458 0.261761
O54   O     O_3   0.829464 0.784463 0.805339 -0.592521
C180  C     C_3   0.842977 0.829381 0.773542 0.113582
H56   H     H_    0.841679 0.866816 0.798337 0.189239
H57   H     H_    0.812145 0.836062 0.742441 0.106000
C181  C     C_3   0.900944 0.824199 0.751108 -0.405783
H58   H     H_    0.930782 0.815725 0.782813 0.247215
H59   H     H_    0.902208 0.789673 0.722778 0.207896
C182  C     C_3   0.917844 0.876630 0.723631 -0.940636
H60   H     H_    0.888070 0.886320 0.692252 0.260635
H61   H     H_    0.959019 0.871002 0.706341 0.270571
H62   H     H_    0.919727 0.911546 0.751516 0.269296
O55   O     O_3   0.239299 0.804231 0.166516 -0.587780
C183  C     C_3   0.255785 0.764093 0.129993 0.104605
H63   H     H_    0.218930 0.752936 0.106564 0.197945
H64   H     H_    0.269927 0.725472 0.148304 0.097594
C184  C     C_3   0.299645 0.786700 0.093615 -0.362259
H65   H     H_    0.285713 0.826578 0.077638 0.252874
H66   H     H_    0.338564 0.793550 0.115422 0.239422
C185  C     C_3   0.310760 0.746939 0.049004 -0.922944
H67   H     H_    0.325299 0.706921 0.064104 0.264225
H68   H     H_    0.342923 0.764210 0.023683 0.281913
H69   H     H_    0.272877 0.740387 0.025516 0.267112
O56   O     O_3   0.783692 0.173344 0.807254 -0.594435
C186  C     C_3   0.827566 0.158455 0.774481 0.103695
H70   H     H_    0.865985 0.162825 0.797611 0.184973
H71   H     H_    0.832029 0.186635 0.741299 0.104023
C187  C     C_3   0.822870 0.098640 0.755791 -0.392811
H72   H     H_    0.815808 0.071561 0.789465 0.244855
H73   H     H_    0.787599 0.094322 0.728522 0.222791
C188  C     C_3   0.874839 0.080186 0.728109 -0.930018
H74   H     H_    0.882760 0.106793 0.694327 0.261386
H75   H     H_    0.869788 0.037223 0.714209 0.270400
H76   H     H_    0.910650 0.082052 0.754964 0.265756
O57   O     O_3   0.809434 0.763645 0.170140 -0.593278
C189  C     C_3   0.768213 0.750461 0.133197 0.136063
H77   H     H_    0.760926 0.787742 0.109707 0.194743
H78   H     H_    0.728233 0.740531 0.151127 0.099677
C190  C     C_3   0.786592 0.703951 0.096929 -0.406624
H79   H     H_    0.826852 0.714578 0.079781 0.245150
H80   H     H_    0.791292 0.665350 0.119041 0.210598
C191  C     C_3   0.744788 0.694230 0.053577 -0.943945
H81   H     H_    0.704483 0.682472 0.069938 0.264424
H82   H     H_    0.759264 0.660494 0.027977 0.268518
H83   H     H_    0.739749 0.731860 0.030093 0.274649
O58   O     O_3   0.167052 0.209995 0.789326 -0.587721
C192  C     C_3   0.151681 0.175290 0.747661 0.065585
H84   H     H_    0.187583 0.167103 0.722475 0.120482
H85   H     H_    0.117771 0.193678 0.724296 0.131180
C193  C     C_3   0.132027 0.120602 0.769225 -0.276559
H86   H     H_    0.165269 0.102220 0.793166 0.238790
H87   H     H_    0.095843 0.127757 0.794298 0.226916
C194  C     C_3   0.116272 0.080425 0.725934 -0.989406
H88   H     H_    0.082406 0.097524 0.701983 0.269696
H89   H     H_    0.102262 0.041209 0.742939 0.274001
H90   H     H_    0.152185 0.071892 0.700933 0.262909
O59   O     O_3   0.760654 0.193272 0.167982 -0.593418
C195  C     C_3   0.745685 0.236781 0.134881 0.108932
H91   H     H_    0.781232 0.244674 0.109368 0.184320
H92   H     H_    0.738294 0.275803 0.156184 0.085738
C196  C     C_3   0.696028 0.221598 0.100728 -0.386542
H93   H     H_    0.703986 0.181997 0.080506 0.243256
H94   H     H_    0.658964 0.216965 0.125020 0.207069
C197  C     C_3   0.684619 0.265767 0.060696 -0.965712
H95   H     H_    0.675393 0.305466 0.080205 0.261196
H96   H     H_    0.648686 0.253573 0.036492 0.272024
H97   H     H_    0.720656 0.270936 0.035171 0.270794
O60   O     O_3   0.206774 0.840184 0.782564 -0.584925
C198  C     C_3   0.172814 0.856024 0.740749 0.057751
H98   H     H_    0.157643 0.818882 0.719828 0.142762
H99   H     H_    0.194748 0.883313 0.713250 0.113990
C199  C     C_3   0.123323 0.887159 0.761852 -0.274326
H100  H     H_    0.100512 0.860429 0.788884 0.241930
H101  H     H_    0.137689 0.924116 0.783565 0.224790
C200  C     C_3   0.084739 0.904943 0.718297 -0.999785
H102  H     H_    0.106401 0.932657 0.691357 0.267865
H103  H     H_    0.049226 0.927307 0.734899 0.273270
H104  H     H_    0.069262 0.868544 0.696473 0.268156
O61   O     O_3   0.772738 0.278982 0.847984 -0.590720
C201  C     C_3   0.725142 0.309113 0.860833 0.077443
H105  H     H_    0.688905 0.290654 0.840902 0.127622
H106  H     H_    0.728682 0.353277 0.850072 0.115447
C202  C     C_3   0.715856 0.306457 0.919102 -0.300253
H107  H     H_    0.710793 0.262987 0.930800 0.237387
H108  H     H_    0.752137 0.323817 0.939863 0.222255
C203  C     C_3   0.664789 0.338884 0.934361 -0.993172
H109  H     H_    0.668819 0.382399 0.922562 0.266111
H110  H     H_    0.659582 0.337850 0.976922 0.275796
H111  H     H_    0.627702 0.320799 0.915599 0.265528
O62   O     O_3   0.156800 0.796284 0.234908 -0.583534
C204  C     C_3   0.149582 0.823581 0.282741 0.063659
H112  H     H_    0.189770 0.829011 0.302826 0.120792
H113  H     H_    0.120954 0.800514 0.308061 0.119189
C205  C     C_3   0.125514 0.880377 0.272669 -0.272343
H114  H     H_    0.153364 0.903498 0.246887 0.240330
H115  H     H_    0.085033 0.875957 0.252899 0.226834
C206  C     C_3   0.118174 0.912755 0.322960 -0.993844
H116  H     H_    0.089669 0.890888 0.349010 0.265854
H117  H     H_    0.100746 0.953766 0.314251 0.272887
H118  H     H_    0.158362 0.918466 0.342923 0.263043
O63   O     O_3   0.724588 0.770917 0.844558 -0.583673
C207  C     C_3   0.694429 0.723332 0.856843 0.080685
H119  H     H_    0.711489 0.687516 0.835491 0.123623
H120  H     H_    0.649836 0.727713 0.847283 0.129241
C208  C     C_3   0.699784 0.712390 0.914747 -0.287516
H121  H     H_    0.743774 0.706820 0.925169 0.234133
H122  H     H_    0.683668 0.748166 0.936837 0.238336
C209  C     C_3   0.667822 0.661078 0.929627 -0.977391
H123  H     H_    0.623677 0.665843 0.919574 0.273846
H124  H     H_    0.671435 0.654420 0.971921 0.275106
H125  H     H_    0.684411 0.624520 0.909115 0.260528
O64   O     O_3   0.204671 0.157966 0.225421 -0.583110
C210  C     C_3   0.174673 0.150676 0.271365 0.070214
H126  H     H_    0.165213 0.191167 0.289223 0.141335
H127  H     H_    0.197570 0.124773 0.299655 0.116463
C211  C     C_3   0.120291 0.122451 0.258128 -0.276592
H128  H     H_    0.097535 0.147193 0.229073 0.245750
H129  H     H_    0.128515 0.081278 0.241061 0.225401
C212  C     C_3   0.084786 0.116041 0.306095 -0.990315
H130  H     H_    0.106294 0.090605 0.335386 0.264634
H131  H     H_    0.045583 0.095570 0.295192 0.275025
H132  H     H_    0.075318 0.156864 0.323273 0.274163
O65   O     O_3   0.211149 0.745831 0.839888 -0.585378
C213  C     C_3   0.259771 0.726429 0.863841 0.108714
H133  H     H_    0.272584 0.757638 0.893134 0.195576
H134  H     H_    0.294436 0.722949 0.836478 0.105183
C214  C     C_3   0.250313 0.671916 0.891709 -0.387283
H135  H     H_    0.216891 0.677035 0.920353 0.254371
H136  H     H_    0.237965 0.639587 0.863368 0.230278
C215  C     C_3   0.302381 0.652965 0.919439 -0.920519
H137  H     H_    0.335662 0.645816 0.891038 0.260190
H138  H     H_    0.294149 0.613995 0.939893 0.281012
H139  H     H_    0.316069 0.684242 0.948258 0.270543
O66   O     O_3   0.848217 0.201147 0.238819 -0.596973
C216  C     C_3   0.856112 0.175804 0.287413 0.097327
H140  H     H_    0.847087 0.131411 0.282203 0.175259
H141  H     H_    0.827600 0.191037 0.317931 0.114026
C217  C     C_3   0.915825 0.182229 0.305628 -0.359739
H142  H     H_    0.943780 0.167229 0.274822 0.240367
H143  H     H_    0.924891 0.226232 0.313292 0.236133
C218  C     C_3   0.926778 0.150068 0.355030 -0.927110
H144  H     H_    0.899663 0.164840 0.386559 0.268311
H145  H     H_    0.970164 0.155907 0.367385 0.274334
H146  H     H_    0.919447 0.105606 0.348154 0.260990
O67   O     O_3   0.262227 0.212071 0.847150 -0.595093
C219  C     C_3   0.281331 0.260623 0.871866 0.130178
H147  H     H_    0.253002 0.269745 0.904277 0.188714
H148  H     H_    0.279192 0.296734 0.846198 0.108770
C220  C     C_3   0.339418 0.253801 0.894478 -0.432593
H149  H     H_    0.339905 0.218848 0.921795 0.238500
H150  H     H_    0.368989 0.245045 0.862994 0.213142
C221  C     C_3   0.358101 0.305786 0.922879 -0.938372
H151  H     H_    0.359090 0.340901 0.895782 0.264476
H152  H     H_    0.400004 0.299624 0.939005 0.267063
H153  H     H_    0.329909 0.315540 0.955192 0.273643
O68   O     O_3   0.797127 0.845770 0.238902 -0.588596
C222  C     C_3   0.826946 0.847669 0.286107 0.097194
H154  H     H_    0.870896 0.852782 0.276152 0.183965
H155  H     H_    0.824474 0.808606 0.307647 0.105284
C223  C     C_3   0.809682 0.896483 0.320276 -0.390505
H156  H     H_    0.809285 0.934525 0.296887 0.242004
H157  H     H_    0.767714 0.889448 0.335345 0.231798
C224  C     C_3   0.848924 0.904264 0.366088 -0.925615
H158  H     H_    0.850610 0.866449 0.389651 0.258738
H159  H     H_    0.834454 0.938682 0.390871 0.276341
H160  H     H_    0.890798 0.914072 0.352251 0.261487
O69   O     O_3   0.718624 0.765018 0.655456 -0.582877
C225  C     C_3   0.767566 0.787763 0.635947 0.078629
H161  H     H_    0.784220 0.757840 0.607461 0.183510
H162  H     H_    0.799980 0.793007 0.666066 0.103491
C226  C     C_3   0.756387 0.841953 0.608032 -0.356554
H163  H     H_    0.721774 0.836354 0.580165 0.257055
H164  H     H_    0.744878 0.874110 0.636666 0.223420
C227  C     C_3   0.806854 0.861309 0.578793 -0.931228
H165  H     H_    0.841983 0.867331 0.605910 0.257628
H166  H     H_    0.797724 0.900922 0.559683 0.281103
H167  H     H_    0.818300 0.830766 0.548618 0.265289
O70   O     O_3   0.343023 0.295200 0.275792 -0.591529
C228  C     C_3   0.349597 0.329557 0.232468 0.119588
H168  H     H_    0.351414 0.372449 0.247279 0.184577
H169  H     H_    0.313800 0.327951 0.205725 0.105516
C229  C     C_3   0.403182 0.317309 0.203721 -0.410745
H170  H     H_    0.438132 0.318005 0.231659 0.242814
H171  H     H_    0.400969 0.275945 0.185422 0.210777
C230  C     C_3   0.413525 0.359371 0.161538 -0.939315
H172  H     H_    0.379249 0.358973 0.132901 0.263466
H173  H     H_    0.452210 0.349154 0.141211 0.269007
H174  H     H_    0.417520 0.401129 0.178735 0.267410
O71   O     O_3   0.759654 0.282929 0.658943 -0.584223
C231  C     C_3   0.779517 0.232501 0.639181 0.107911
H175  H     H_    0.749058 0.217584 0.610049 0.198707
H176  H     H_    0.782007 0.200103 0.669017 0.110436
C232  C     C_3   0.834879 0.239780 0.612242 -0.386597
H177  H     H_    0.831950 0.273975 0.584182 0.258906
H178  H     H_    0.867125 0.250036 0.641413 0.221463
C233  C     C_3   0.851703 0.187532 0.583576 -0.914855
H179  H     H_    0.854849 0.152773 0.610914 0.260944
H180  H     H_    0.892278 0.193729 0.565298 0.276458
H181  H     H_    0.821187 0.177258 0.552808 0.262884
O72   O     O_3   0.296655 0.656849 0.268355 -0.589441
C234  C     C_3   0.324618 0.650457 0.221078 0.076932
H182  H     H_    0.334068 0.691338 0.204711 0.135649
H183  H     H_    0.300179 0.625785 0.192471 0.136090
C235  C     C_3   0.378894 0.620971 0.231253 -0.293016
H184  H     H_    0.403365 0.644677 0.260287 0.241634
H185  H     H_    0.370519 0.579636 0.247208 0.226727
C236  C     C_3   0.412206 0.614819 0.181785 -0.964774
H186  H     H_    0.388960 0.590355 0.152475 0.268726
H187  H     H_    0.451371 0.593407 0.190531 0.269534
H188  H     H_    0.421804 0.655773 0.165644 0.272954
O73   O     O_3   0.295868 0.252507 0.664542 -0.587359
C237  C     C_3   0.249150 0.233107 0.637366 0.068310
H189  H     H_    0.212390 0.232667 0.662487 0.120473
H190  H     H_    0.256641 0.190965 0.621971 0.121462
C238  C     C_3   0.237189 0.271599 0.592289 -0.280050
H191  H     H_    0.235025 0.314568 0.606964 0.264227
H192  H     H_    0.271003 0.268811 0.563792 0.215127
C239  C     C_3   0.182927 0.257328 0.565484 -0.920849
H193  H     H_    0.183479 0.214184 0.551343 0.249476
H194  H     H_    0.176359 0.284931 0.532041 0.280895
H195  H     H_    0.148307 0.262809 0.592740 0.290965
O74   O     O_3   0.657138 0.703662 0.261952 -0.587468
C240  C     C_3   0.650387 0.679023 0.212651 0.072739
H196  H     H_    0.691238 0.668624 0.196464 0.135858
H197  H     H_    0.627713 0.706240 0.185284 0.136066
C241  C     C_3   0.617787 0.625916 0.218332 -0.289410
H198  H     H_    0.639900 0.598127 0.245268 0.238210
H199  H     H_    0.576884 0.635387 0.234903 0.227633
C242  C     C_3   0.609935 0.596795 0.166253 -0.981126
H200  H     H_    0.586846 0.623412 0.139033 0.272848
H201  H     H_    0.586326 0.558342 0.171753 0.268989
H202  H     H_    0.650357 0.586278 0.149272 0.265267
O75   O     O_3   0.239629 0.709802 0.654655 -0.594358
C243  C     C_3   0.220362 0.758352 0.630961 0.106004
H203  H     H_    0.249408 0.768495 0.599557 0.177254
H204  H     H_    0.221068 0.794126 0.657745 0.097795
C244  C     C_3   0.163062 0.750676 0.606739 -0.406147
H205  H     H_    0.164002 0.716140 0.578384 0.236563
H206  H     H_    0.132827 0.740854 0.637213 0.212511
C245  C     C_3   0.144121 0.802681 0.579468 -0.957591
H207  H     H_    0.141348 0.837241 0.607663 0.261464
H208  H     H_    0.102949 0.795771 0.561847 0.268992
H209  H     H_    0.173179 0.813745 0.548393 0.269973
O76   O     O_3   0.706305 0.336764 0.275613 -0.585726
C246  C     C_3   0.675302 0.343672 0.229736 0.048965
H210  H     H_    0.668852 0.303427 0.210055 0.133182
H211  H     H_    0.695880 0.372597 0.202867 0.120070
C247  C     C_3   0.619046 0.366867 0.243639 -0.273256
H212  H     H_    0.598612 0.338971 0.271314 0.239409
H213  H     H_    0.624270 0.407661 0.262625 0.225746
C248  C     C_3   0.582559 0.372919 0.195703 -0.988728
H214  H     H_    0.601722 0.401364 0.167783 0.266087
H215  H     H_    0.542071 0.389786 0.207145 0.274326
H216  H     H_    0.575956 0.332371 0.176665 0.266559
O77   O     O_3   0.304861 0.742610 0.335551 -0.587680
C249  C     C_3   0.268720 0.764802 0.372603 0.061312
H217  H     H_    0.225739 0.762480 0.357932 0.119583
H218  H     H_    0.279361 0.808266 0.382239 0.123796
C250  C     C_3   0.272831 0.730966 0.421962 -0.267472
H219  H     H_    0.261945 0.687593 0.412990 0.238583
H220  H     H_    0.315740 0.732159 0.436894 0.228687
C251  C     C_3   0.234491 0.752863 0.463710 -0.996176
H221  H     H_    0.191199 0.751297 0.449942 0.266834
H222  H     H_    0.245391 0.795859 0.474052 0.260352
H223  H     H_    0.238410 0.727328 0.498915 0.278449
O78   O     O_3   0.660939 0.290370 0.705915 -0.583100
C252  C     C_3   0.639523 0.328314 0.742028 0.064626
H224  H     H_    0.673406 0.345337 0.766327 0.127385
H225  H     H_    0.607984 0.309192 0.767273 0.115033
C253  C     C_3   0.612679 0.375560 0.712767 -0.270949
H226  H     H_    0.643564 0.395247 0.687520 0.241741
H227  H     H_    0.578875 0.359271 0.687871 0.224731
C254  C     C_3   0.589527 0.418591 0.749895 -0.992931
H228  H     H_    0.557908 0.399996 0.775016 0.268259
H229  H     H_    0.570231 0.452196 0.727441 0.272869
H230  H     H_    0.622844 0.436246 0.774500 0.264311
O79   O     O_3   0.254185 0.300176 0.337698 -0.585137
C255  C     C_3   0.238269 0.254313 0.367268 0.098003
H231  H     H_    0.271027 0.247373 0.396644 0.180246
H232  H     H_    0.236215 0.216037 0.343858 0.099298
C256  C     C_3   0.184126 0.264319 0.395883 -0.366303
H233  H     H_    0.188435 0.300953 0.421538 0.249716
H234  H     H_    0.150325 0.271907 0.367749 0.232235
C257  C     C_3   0.168655 0.214705 0.428219 -0.963235
H235  H     H_    0.161480 0.178394 0.402738 0.261196
H236  H     H_    0.130425 0.223567 0.449810 0.286722
H237  H     H_    0.201925 0.205205 0.456368 0.264579
O80   O     O_3   0.711850 0.664644 0.699084 -0.585045
C258  C     C_3   0.673987 0.641799 0.733882 0.072725
H238  H     H_    0.657560 0.674554 0.759595 0.126530
H239  H     H_    0.693047 0.608840 0.757779 0.119795
C259  C     C_3   0.626131 0.616915 0.703120 -0.275951
H240  H     H_    0.606456 0.649255 0.679244 0.243499
H241  H     H_    0.641800 0.584308 0.676782 0.227631
C260  C     C_3   0.583287 0.592218 0.738856 -0.982298
H242  H     H_    0.601821 0.559025 0.762427 0.266759
H243  H     H_    0.549110 0.574581 0.715358 0.270893
H244  H     H_    0.566389 0.624319 0.765011 0.269445
O81   O     O_3   0.709878 0.247681 0.342769 -0.590607
C261  C     C_3   0.723017 0.214114 0.385665 0.064924
H245  H     H_    0.764962 0.225335 0.399282 0.164251
H246  H     H_    0.723836 0.169131 0.376931 0.133109
C262  C     C_3   0.682546 0.225549 0.429389 -0.311254
H247  H     H_    0.684880 0.269607 0.440661 0.239089
H248  H     H_    0.640112 0.216697 0.415685 0.242939
C263  C     C_3   0.694995 0.190509 0.476717 -0.901855
H249  H     H_    0.690516 0.146271 0.466849 0.288345
H250  H     H_    0.665778 0.200836 0.508054 0.274526
H251  H     H_    0.737358 0.198515 0.491098 0.255042
O82   O     O_3   0.336649 0.708057 0.710217 -0.591197
C264  C     C_3   0.351790 0.673107 0.751207 0.074461
H252  H     H_    0.314578 0.660071 0.772434 0.137318
H253  H     H_    0.381288 0.693421 0.778590 0.132345
C265  C     C_3   0.379110 0.621850 0.728786 -0.290208
H254  H     H_    0.350381 0.601271 0.701146 0.240057
H255  H     H_    0.416583 0.633900 0.707437 0.228047
C266  C     C_3   0.394943 0.581546 0.771255 -0.976873
H256  H     H_    0.424517 0.600892 0.798830 0.268916
H257  H     H_    0.414529 0.544802 0.753675 0.271923
H258  H     H_    0.357929 0.568249 0.792599 0.271444
O83   O     O_3   0.737237 0.690185 0.332251 -0.593837
C267  C     C_3   0.748088 0.730906 0.370326 0.128264
H259  H     H_    0.710186 0.735595 0.393533 0.195591
H260  H     H_    0.756063 0.771844 0.353559 0.111232
C268  C     C_3   0.795066 0.713828 0.406671 -0.409504
H261  H     H_    0.787846 0.671351 0.420341 0.245019
H262  H     H_    0.834517 0.714676 0.385452 0.206604
C269  C     C_3   0.799431 0.752288 0.453483 -0.934515
H263  H     H_    0.805989 0.795158 0.440814 0.264382
H264  H     H_    0.834655 0.739844 0.478256 0.261157
H265  H     H_    0.761408 0.750329 0.476807 0.276403
O84   O     O_3   0.296022 0.345351 0.723222 -0.591314
C270  C     C_3   0.328547 0.360901 0.766400 0.067017
H266  H     H_    0.344027 0.323603 0.786179 0.141487
H267  H     H_    0.305305 0.386953 0.794430 0.130769
C271  C     C_3   0.377829 0.393732 0.747619 -0.289582
H268  H     H_    0.401694 0.368375 0.719815 0.237860
H269  H     H_    0.363138 0.431038 0.727320 0.226622
C272  C     C_3   0.415254 0.410950 0.792578 -0.989846
H270  H     H_    0.392511 0.437247 0.820407 0.273066
H271  H     H_    0.450557 0.434656 0.777599 0.270371
H272  H     H_    0.431188 0.374231 0.812942 0.267153
N1    N     N_R   0.114184 0.436476 0.401164 0.215923
O85   O     O_R   0.155932 0.454966 0.375518 -0.411942
O86   O     O_R   0.086289 0.394908 0.383000 -0.405628
N2    N     N_R   0.888281 0.432027 0.598119 0.219463
O87   O     O_R   0.844214 0.444433 0.623812 -0.410289
O88   O     O_R   0.920221 0.393143 0.614862 -0.400005
N3    N     N_R   0.595934 0.912116 0.396979 0.218036
O89   O     O_R   0.619098 0.958999 0.387300 -0.396221
O90   O     O_R   0.614156 0.868723 0.372975 -0.427954
N4    N     N_R   0.596508 0.087996 0.604127 0.220155
O91   O     O_R   0.619277 0.040930 0.614029 -0.383323
O92   O     O_R   0.616020 0.131295 0.627660 -0.423874
N5    N     N_R   0.912075 0.403902 0.395667 0.220962
O93   O     O_R   0.959063 0.381069 0.385422 -0.392519
O94   O     O_R   0.868638 0.385097 0.371797 -0.403133
N6    N     N_R   0.087949 0.403602 0.603164 0.217007
O95   O     O_R   0.041022 0.380389 0.612550 -0.390023
O96   O     O_R   0.131228 0.385270 0.627264 -0.435374
N7    N     N_R   0.564015 0.113997 0.402156 0.213658
O97   O     O_R   0.546152 0.155830 0.376002 -0.425509
O98   O     O_R   0.605316 0.085592 0.384904 -0.402669
N8    N     N_R   0.567563 0.888325 0.598808 0.216694
O99   O     O_R   0.555478 0.844143 0.624247 -0.409755
O100  O     O_R   0.606132 0.920707 0.616217 -0.408686
N9    N     N_R   0.611318 0.931761 0.901056 0.219427
O101  O     O_R   0.655903 0.942481 0.875656 -0.411621
O102  O     O_R   0.578187 0.893706 0.883912 -0.400207
N10   N     N_R   0.386223 0.935554 0.098090 0.217156
O103  O     O_R   0.344277 0.953296 0.124172 -0.416944
O104  O     O_R   0.414648 0.894306 0.115379 -0.398141
N11   N     N_R   0.097078 0.413192 0.896856 0.216652
O105  O     O_R   0.119678 0.460425 0.887527 -0.390240
O106  O     O_R   0.116206 0.370175 0.872925 -0.424328
N12   N     N_R   0.096512 0.587553 0.104477 0.220240
O107  O     O_R   0.119163 0.540448 0.114519 -0.391172
O108  O     O_R   0.115566 0.630819 0.128447 -0.415237
N13   N     N_R   0.411462 0.904021 0.895596 0.220548
O109  O     O_R   0.458343 0.880921 0.885531 -0.382579
O110  O     O_R   0.367988 0.885222 0.871789 -0.416894
N14   N     N_R   0.588715 0.904810 0.102858 0.219121
O111  O     O_R   0.542060 0.881226 0.112674 -0.392999
O112  O     O_R   0.632347 0.887124 0.126842 -0.423383
N15   N     N_R   0.065735 0.613054 0.902100 0.218755
O113  O     O_R   0.050270 0.656037 0.876266 -0.411617
O114  O     O_R   0.106009 0.583131 0.884957 -0.398309
N16   N     N_R   0.063286 0.385755 0.098642 0.213589
O115  O     O_R   0.044356 0.344121 0.124142 -0.414769
O116  O     O_R   0.104869 0.413437 0.117081 -0.408080

loop_
_geom_bond_atom_site_label_1
_geom_bond_atom_site_label_2
_geom_bond_distance
_ccdc_geom_bond_type
C114  O70   1.386532 S    
C222  H154  1.110880 S    
Zn4   O4    1.948810 S    
C131  H19   1.077020 S    
C271  H268  1.111816 S    
C67   C73   1.517316 S    
C178  H52   1.110769 S    
O65   C213  1.415595 S    
C185  H68   1.110519 S    
C232  H177  1.111695 S    
C243  C244  1.535846 S    
O48   C86   1.275573 A    
C16   C112  1.418726 A    
C25   N9    1.429708 S    
O70   C228  1.414358 S    
C227  H166  1.110357 S    
O57   C189  1.414526 S    
C26   N10   1.427146 S    
C188  H74   1.110411 S    
O66   C216  1.416095 S    
C226  C227  1.525780 S    
C249  C250  1.527757 S    
N9    O101  1.301845 A    
C11   C107  1.412575 A    
O77   C249  1.410944 S    
O17   C69   1.297789 A    
C92   C167  1.464457 S    
C205  H115  1.111660 S    
C245  H207  1.111267 S    
C223  H157  1.111286 S    
C270  H267  1.117126 S    
C185  H69   1.111005 S    
O9    C65   1.299886 A    
C31   C52   1.435236 A    
C236  H186  1.110872 S    
C224  H160  1.110820 S    
C22   N6    1.445156 S    
O78   C252  1.411420 S    
C253  H227  1.111683 S    
C248  H214  1.110863 S    
C208  C209  1.527095 S    
C98   O54   1.387082 S    
C154  H42   1.083500 S    
C115  C147  1.391939 A    
Zn8   O13   1.934344 S    
C195  H91   1.110895 S    
C200  H104  1.111031 S    
C208  H121  1.111728 S    
C256  H233  1.111712 S    
C242  H200  1.110928 S    
C251  H222  1.110811 S    
C241  H198  1.111844 S    
C250  H220  1.111683 S    
C6    C128  1.414559 A    
H1    C37   1.082701 S    
O56   C186  1.415156 S    
C23   C39   1.397843 A    
N8    O100  1.301610 A    
C251  H223  1.110409 S    
C4    C100  1.417091 A    
C272  H272  1.111025 S    
C23   N7    1.426912 S    
Zn2   O2    1.932029 S    
C260  H243  1.110499 S    
C55   C75   1.422780 A    
C264  H253  1.116662 S    
C60   C80   1.441000 A    
C30   C46   1.394710 A    
C20   C63   1.426474 A    
C139  C171  1.395387 A    
C24   C40   1.398575 A    
O27   C87   1.270981 A    
C158  C168  1.399178 A    
C265  H254  1.111846 S    
N5    O94   1.301500 A    
C104  C136  1.391135 A    
C234  H183  1.116523 S    
C99   C131  1.390486 A    
Zn6   O39   1.930698 S    
C117  O73   1.384138 S    
C51   C75   1.442054 A    
C187  H72   1.111492 S    
C126  C158  1.393097 A    
C87   C172  1.454300 S    
C6    C15   1.474341 S    
C238  H192  1.111554 S    
C252  C253  1.527815 S    
C17   N1    1.426079 S    
C271  C272  1.526342 S    
C235  H184  1.111907 S    
O69   C225  1.413812 S    
Zn12  O34   1.930290 S    
C183  H63   1.110998 S    
O41   C91   1.276955 A    
Zn7   O14   1.934344 S    
O42   C92   1.281245 A    
C9    C115  1.416256 A    
C19   N3    1.445337 S    
C236  H188  1.111037 S    
C62   C78   1.442627 A    
C261  H246  1.117778 S    
C194  H88   1.110856 S    
Zn13  O31   1.924700 S    
O45   C87   1.271602 A    
C268  C269  1.526584 S    
Zn14  O32   1.924698 S    
C193  H86   1.111948 S    
Zn3   O38   1.924493 S    
O46   C88   1.271692 A    
C233  H179  1.110379 S    
O49   C83   1.280487 A    
C122  C154  1.391043 A    
C227  H167  1.110695 S    
N6    O95   1.301302 A    
C137  C169  1.396552 A    
C66   C76   1.517567 S    
C209  H125  1.110925 S    
C215  H137  1.111267 S    
C136  H24   1.083679 S    
N1    O85   1.301555 A    
C248  H216  1.111095 S    
N4    O92   1.301040 A    
C107  C139  1.390779 A    
C123  O79   1.387153 S    
C179  H53   1.110984 S    
C140  H28   1.083867 S    
C261  C262  1.529987 S    
C258  H239  1.116725 S    
C89   C162  1.460985 S    
C188  H76   1.110837 S    
C108  O64   1.384852 S    
C206  H117  1.110598 S    
C249  H217  1.112010 S    
C121  O77   1.383004 S    
C82   C169  1.456620 S    
C119  O75   1.387144 S    
C256  C257  1.525297 S    
N3    O89   1.301662 A    
C217  C218  1.525737 S    
Zn1   O16   1.934131 S    
Zn10  O36   1.932965 S    
Zn2   O15   1.934131 S    
C132  H20   1.083454 S    
C204  H112  1.111614 S    
C111  C143  1.393849 A    
Zn4   O17   1.925965 S    
C219  H147  1.110997 S    
C109  C141  1.390550 A    
C120  C152  1.393398 A    
C15   C111  1.417722 A    
O47   C85   1.277143 A    
C238  H191  1.112216 S    
C61   C77   1.437374 A    
O81   C261  1.418210 S    
C241  C242  1.526234 S    
C13   C109  1.416394 A    
O58   C192  1.411088 S    
C122  O78   1.383559 S    
N7    O98   1.301607 A    
C111  O67   1.387586 S    
C218  H145  1.110466 S    
C252  H225  1.116857 S    
C144  C176  1.395595 A    
C178  H51   1.111913 S    
C192  C193  1.527959 S    
C239  H194  1.110614 S    
C259  H240  1.111834 S    
C4    C9    1.470798 S    
C116  O72   1.383926 S    
O59   C195  1.414619 S    
C116  C148  1.392375 A    
Zn12  O1    1.948810 S    
C112  O68   1.386237 S    
C199  C200  1.526275 S    
Zn13  O12   1.926093 S    
Zn2   O43   1.929045 S    
Zn14  O11   1.926093 S    
C202  H108  1.111623 S    
C184  H66   1.110709 S    
C262  H247  1.111581 S    
N11   O105  1.301482 A    
C130  H18   1.083545 S    
O40   C94   1.282991 A    
H4    C40   1.083197 S    
C125  O81   1.387296 S    
C246  H211  1.115930 S    
N16   O115  1.301557 A    
C86   C173  1.459366 S    
C113  O69   1.385898 S    
C32   C51   1.435964 A    
C260  H242  1.110983 S    
C217  H142  1.111704 S    
C102  C134  1.393943 A    
O19   C71   1.297000 A    
H10   C46   1.082700 S    
C257  H236  1.110410 S    
C69   C79   1.518268 S    
C183  C184  1.534904 S    
C143  C175  1.398354 A    
C97   O53   1.385884 S    
C153  C163  1.399536 A    
C243  H204  1.108441 S    
Zn5   O40   1.930696 S    
C154  C164  1.399869 A    
C106  C138  1.391414 A    
C30   C49   1.427508 A    
C247  H212  1.111959 S    
C206  H116  1.110870 S    
C193  C194  1.526458 S    
O7    C67   1.276816 A    
O8    C68   1.278817 A    
C199  H100  1.111825 S    
C8    C13   1.469566 S    
C110  O66   1.383785 S    
C215  H139  1.110039 S    
C109  O65   1.387007 S    
C203  H109  1.110929 S    
C180  H57   1.108549 S    
C257  H237  1.110390 S    
Zn5   O1    1.948005 S    
Zn3   O49   1.930288 S    
Zn9   O4    1.932026 S    
C210  H127  1.116297 S    
Zn10  O3    1.932029 S    
O32   C92   1.276411 A    
C10   C116  1.415770 A    
Zn12  O21   1.924491 S    
C179  H55   1.110917 S    
Zn7   O45   1.928982 S    
Zn13  O24   1.930696 S    
Zn14  O23   1.930698 S    
C28   N12   1.445358 S    
C240  H196  1.111679 S    
C244  C245  1.525815 S    
N12   O108  1.301633 A    
N13   O110  1.301415 A    
C133  H21   1.083531 S    
C60   C63   1.429350 A    
C229  H170  1.111665 S    
Zn3   O18   1.925965 S    
C181  H59   1.111055 S    
C211  H129  1.111674 S    
C190  H80   1.110784 S    
C151  H39   1.083788 S    
C59   C64   1.429094 A    
C204  C205  1.527622 S    
C137  H25   1.083848 S    
O68   C222  1.414698 S    
C112  C144  1.392687 A    
C220  H149  1.111390 S    
C64   C80   1.422240 A    
C219  C220  1.536364 S    
C246  C247  1.527751 S    
C207  H119  1.111409 S    
C247  C248  1.526700 S    
N2    O88   1.301540 A    
C125  C157  1.397820 A    
C21   C58   1.426865 A    
C186  H71   1.109564 S    
C225  H161  1.111045 S    
C255  H231  1.110837 S    
C118  O74   1.383340 S    
C25   C54   1.433580 A    
C269  H265  1.110973 S    
N10   O104  1.301580 A    
C6    C102  1.414173 A    
N6    O96   1.301549 A    
C33   C38   1.378239 A    
Zn9   O35   1.932963 S    
O53   C177  1.413723 S    
C211  C212  1.526862 S    
C54   C74   1.437681 A    
C32   C48   1.397820 A    
C130  C162  1.398346 A    
Zn3   O3    1.948811 S    
N7    O97   1.301604 A    
C198  C199  1.527437 S    
C21   N5    1.445203 S    
C263  H249  1.111009 S    
C22   C38   1.393664 A    
C221  H153  1.110061 S    
C228  H168  1.110897 S    
C129  H17   1.076354 S    
C197  H97   1.110678 S    
C209  H123  1.110908 S    
Zn11  O22   1.924493 S    
C26   C42   1.397729 A    
C68   C74   1.517952 S    
C267  C268  1.534534 S    
C194  H89   1.110625 S    
H5    C33   1.083435 S    
C95   C164  1.463393 S    
C212  H132  1.111163 S    
C189  H78   1.109994 S    
C182  H61   1.109984 S    
Zn15  O26   1.932696 S    
H7    C35   1.082702 S    
C262  H248  1.110499 S    
C91   C168  1.459269 S    
C44   C47   1.379283 A    
C159  H47   1.083496 S    
N14   O111  1.301682 A    
C152  H40   1.083725 S    
C260  H244  1.110993 S    
C25   C41   1.398701 A    
C147  H35   1.078578 S    
C271  H269  1.111810 S    
C148  H36   1.083809 S    
C245  H209  1.110203 S    
C50   C74   1.421737 A    
H16   C44   1.082700 S    
Zn1   O44   1.929047 S    
C104  O60   1.383759 S    
C151  C173  1.397891 A    
C148  C170  1.396997 A    
C225  C226  1.534262 S    
C258  C259  1.527772 S    
C153  H41   1.083529 S    
C234  H182  1.110939 S    
C181  C182  1.525899 S    
C251  H221  1.110906 S    
C145  H33   1.076459 S    
C226  H164  1.110839 S    
C189  C190  1.533945 S    
C142  C174  1.398342 A    
C141  C173  1.395136 A    
C53   C73   1.441230 A    
O44   C90   1.273880 A    
C237  H189  1.110955 S    
H8    C36   1.082712 S    
C63   C79   1.421300 A    
C56   C76   1.420698 A    
H3    C39   1.083334 S    
N3    O90   1.301663 A    
C223  C224  1.525672 S    
O33   C93   1.282859 A    
C203  H111  1.110938 S    
C215  H138  1.110330 S    
C224  H159  1.110382 S    
C232  C233  1.525710 S    
C156  C162  1.399171 A    
C208  H122  1.111726 S    
C16   C118  1.416259 A    
C18   N2    1.430039 S    
C200  H103  1.110408 S    
C149  H37   1.083637 S    
C254  H228  1.110943 S    
C52   C76   1.438958 A    
C1    C97   1.415691 A    
C93   C166  1.461724 S    
C49   C54   1.428908 A    
C90   C161  1.463428 S    
C191  H81   1.111178 S    
C255  H232  1.108253 S    
C250  H219  1.111862 S    
C240  C241  1.527443 S    
C230  H172  1.111040 S    
C160  H48   1.083620 S    
C255  C256  1.536603 S    
C265  C266  1.526805 S    
C97   C129  1.390222 A    
C20   C36   1.394092 A    
C229  C230  1.525721 S    
C216  H140  1.110969 S    
C272  H271  1.110488 S    
C146  H34   1.083886 S    
C201  H105  1.111263 S    
C115  O71   1.386405 S    
C196  C197  1.523889 S    
C101  O57   1.385987 S    
C134  H22   1.083598 S    
Zn2   O52   1.932965 S    
C246  H210  1.111383 S    
C11   C113  1.414501 A    
C207  C208  1.526641 S    
O23   C83   1.280744 A    
C103  O59   1.385598 S    
C142  H30   1.083672 S    
C50   C53   1.430030 A    
C265  H255  1.111733 S    
N5    O93   1.301691 A    
N15   O114  1.301583 A    
O50   C84   1.282383 A    
C156  H44   1.083538 S    
C71   C77   1.517028 S    
C30   N14   1.445230 S    
O51   C81   1.276106 A    
C192  H84   1.112012 S    
C187  H73   1.110979 S    
H6    C34   1.083200 S    
C107  O63   1.383878 S    
N11   O106  1.301222 A    
C157  C167  1.397410 A    
C272  H270  1.110935 S    
C18   C61   1.434499 A    
C177  H49   1.110906 S    
C100  C132  1.393956 A    
C244  H206  1.110665 S    
C213  H133  1.111003 S    
C235  H185  1.111659 S    
C198  H98   1.111737 S    
C263  H251  1.110696 S    
C228  C229  1.536040 S    
C231  H175  1.111200 S    
Zn11  O10   1.925965 S    
C183  H64   1.111153 S    
O76   C246  1.411593 S    
Zn8   O4    1.932160 S    
C157  H45   1.075958 S    
C3    C10   1.471052 S    
C197  H95   1.111146 S    
Zn4   O37   1.924491 S    
C31   N15   1.428591 S    
C102  O58   1.383271 S    
O63   C207  1.412924 S    
C268  H262  1.111171 S    
C187  C188  1.525956 S    
C193  H87   1.111655 S    
H2    C38   1.082771 S    
C233  H180  1.110346 S    
C196  H93   1.111495 S    
C149  C175  1.398490 A    
C150  C176  1.395205 A    
Zn15  O2    1.932157 S    
C36   C39   1.378742 A    
C123  C155  1.390286 A    
Zn16  O5    1.934344 S    
C262  C263  1.526461 S    
C235  C236  1.526467 S    
C216  H141  1.116692 S    
C185  H67   1.111032 S    
O16   C72   1.276890 A    
C254  H230  1.110968 S    
O55   C183  1.414123 S    
N9    O102  1.301572 A    
C135  H23   1.083569 S    
H11   C47   1.083305 S    
C248  H215  1.110549 S    
C58   C61   1.429606 A    
Zn7   O3    1.932157 S    
O22   C82   1.276028 A    
C52   C55   1.429854 A    
H9    C45   1.082708 S    
C195  H92   1.110307 S    
C227  H165  1.110331 S    
C179  H54   1.110519 S    
C27   C56   1.426847 A    
O60   C198  1.412006 S    
Zn7   O42   1.932696 S    
C129  C161  1.396206 A    
C188  H75   1.110544 S    
C51   C56   1.429759 A    
O14   C70   1.276804 A    
C249  H218  1.116090 S    
C233  H181  1.110684 S    
O67   C219  1.416305 S    
C127  C159  1.393085 A    
C1    C123  1.416978 A    
C27   N11   1.445130 S    
C254  H229  1.110500 S    
C108  C140  1.390699 A    
C177  C178  1.535718 S    
H13   C41   1.083134 S    
C256  H234  1.110569 S    
C8    C126  1.414000 A    
C223  H156  1.111517 S    
C270  C271  1.527914 S    
C31   C47   1.398136 A    
C201  C202  1.526432 S    
C214  H135  1.111605 S    
C126  O82   1.384083 S    
C253  H226  1.111838 S    
Zn9   O8    1.934131 S    
C12   C114  1.417890 A    
O79   C255  1.415798 S    
Zn10  O7    1.934131 S    
C219  H148  1.107982 S    
C124  O80   1.383658 S    
C119  C151  1.393119 A    
Zn12  O9    1.925965 S    
C222  H155  1.109258 S    
C117  C149  1.393697 A    
N15   O113  1.301689 A    
C191  H83   1.110756 S    
C250  C251  1.526211 S    
C144  H32   1.083855 S    
O12   C68   1.296903 A    
C205  H114  1.111953 S    
C121  C153  1.392980 A    
Zn4   O50   1.930290 S    
N8    O99   1.301830 A    
C29   C45   1.393989 A    
C57   C62   1.430225 A    
C138  H26   1.083829 S    
O21   C81   1.276489 A    
C264  C265  1.527981 S    
C259  H241  1.111685 S    
C29   C50   1.427312 A    
O64   C210  1.412149 S    
C266  H258  1.111059 S    
C134  C166  1.398677 A    
O11   C67   1.298680 A    
C214  C215  1.525676 S    
C22   C57   1.427770 A    
C236  H187  1.110584 S    
C202  H107  1.111711 S    
C234  C235  1.527637 S    
C70   C80   1.517009 S    
O72   C234  1.411439 S    
C138  C170  1.396739 A    
C242  H201  1.110469 S    
C26   C53   1.436003 A    
O5    C65   1.277136 A    
O62   C204  1.410804 S    
C58   C78   1.423091 A    
C238  C239  1.525890 S    
N16   O116  1.301596 A    
C5    C101  1.417451 A    
Zn1   O51   1.932963 S    
C259  C260  1.526884 S    
C42   C45   1.378284 A    
C231  C232  1.534439 S    
C8    C104  1.413392 A    
Zn9   O28   1.929047 S    
C17   C33   1.397877 A    
C110  C142  1.393108 A    
Zn10  O27   1.929045 S    
C83   C176  1.454037 S    
C186  H70   1.110874 S    
O35   C95   1.279644 A    
O37   C95   1.277725 A    
C247  H213  1.111641 S    
O38   C96   1.276568 A    
C261  H245  1.111322 S    
C14   C110  1.411768 A    
C155  C161  1.396087 A    
Zn8   O41   1.932698 S    
C230  H174  1.110902 S    
C105  C137  1.392889 A    
Zn16  O25   1.932698 S    
C212  H130  1.110885 S    
C199  H101  1.111767 S    
C28   C44   1.394488 A    
C7    C103  1.414702 A    
C184  H65   1.111766 S    
Zn6   O2    1.948004 S    
H14   C42   1.083431 S    
C24   N8    1.428778 S    
C84   C175  1.461974 S    
C203  H110  1.108656 S    
C180  H56   1.110878 S    
Zn6   O48   1.924698 S    
C146  C172  1.396187 A    
N1    O86   1.301639 A    
N4    O91   1.301299 A    
C147  C169  1.395935 A    
C221  H152  1.110301 S    
C23   C60   1.435898 A    
C152  C174  1.398483 A    
C24   C59   1.433730 A    
C268  H261  1.111532 S    
C220  H150  1.110832 S    
C206  H118  1.110973 S    
C245  H208  1.110296 S    
C182  H60   1.110443 S    
C135  C167  1.399318 A    
C13   C119  1.417451 A    
C32   N16   1.425710 S    
O43   C89   1.272125 A    
N13   O109  1.301255 A    
C266  H257  1.110573 S    
O83   C267  1.414456 S    
C205  C206  1.526173 S    
C4    C122  1.412767 A    
C124  C156  1.391013 A    
C229  H171  1.110917 S    
C10   C106  1.414649 A    
Zn1   O1    1.932026 S    
C270  H266  1.111635 S    
C103  C135  1.393948 A    
C35   C40   1.379481 A    
O34   C94   1.283775 A    
O75   C243  1.415947 S    
C101  C133  1.392194 A    
C253  C254  1.526735 S    
O26   C86   1.279413 A    
C207  H120  1.117698 S    
C225  H162  1.110536 S    
C150  H38   1.083857 S    
C118  C150  1.391939 A    
C2    C98   1.417282 A    
C94   C165  1.464181 S    
O30   C90   1.273592 A    
C2    C124  1.412711 A    
O73   C237  1.411478 S    
C43   C48   1.378412 A    
C218  H146  1.110853 S    
C105  O61   1.384179 S    
C196  H94   1.110700 S    
C269  H263  1.109888 S    
C120  O76   1.384111 S    
C41   C46   1.379585 A    
C9    C105  1.414772 A    
C217  H143  1.110783 S    
C239  H193  1.110401 S    
C198  H99   1.117129 S    
C263  H250  1.110203 S    
C266  H256  1.110890 S    
Zn5   O20   1.926093 S    
C99   O55   1.385446 S    
Zn6   O19   1.926093 S    
C49   C73   1.422549 A    
C18   C34   1.398444 A    
C143  H31   1.083733 S    
H12   C48   1.083473 S    
C202  C203  1.527460 S    
C184  C185  1.525480 S    
C72   C78   1.519747 S    
C192  H85   1.115782 S    
C131  C163  1.396861 A    
Zn8   O46   1.928980 S    
C132  C164  1.398357 A    
C28   C55   1.427041 A    
Zn16  O30   1.928980 S    
C96   C163  1.462653 S    
C12   C108  1.417039 A    
N14   O112  1.301707 A    
C19   C64   1.427439 A    
O25   C85   1.276862 A    
C214  H136  1.110537 S    
Zn15  O29   1.928982 S    
C5    C16   1.474360 S    
C127  O83   1.386744 S    
C17   C62   1.435879 A    
C257  H235  1.111238 S    
O28   C88   1.273381 A    
C7    C14   1.470951 S    
C242  H202  1.111028 S    
O29   C89   1.274062 A    
C243  H203  1.110880 S    
C158  H46   1.083599 S    
Zn13  O4    1.948005 S    
C136  C168  1.398403 A    
C3    C99   1.414239 A    
Zn14  O3    1.948004 S    
C230  H173  1.110474 S    
C88   C171  1.458977 S    
O80   C258  1.411729 S    
C29   N13   1.444996 S    
C7    C125  1.407853 A    
C226  H163  1.111778 S    
C128  O84   1.383696 S    
O36   C96   1.280590 A    
C5    C127  1.418562 A    
C204  H113  1.115865 S    
C34   C37   1.379618 A    
C81   C170  1.454281 S    
C237  H190  1.114005 S    
Zn15  O6    1.934344 S    
Zn16  O1    1.932160 S    
C133  C165  1.397729 A    
C210  H126  1.110982 S    
O71   C231  1.414167 S    
C180  C181  1.536418 S    
O24   C84   1.283212 A    
C224  H158  1.109962 S    
C210  C211  1.527550 S    
C21   C37   1.394846 A    
C232  H178  1.110927 S    
O74   C240  1.411737 S    
C113  C145  1.391645 A    
C65   C75   1.519153 S    
C200  H102  1.110942 S    
C221  H151  1.111215 S    
C59   C79   1.438345 A    
H15   C43   1.082690 S    
C241  H199  1.111798 S    
O54   C180  1.415354 S    
C140  C172  1.396513 A    
C191  H82   1.110352 S    
C222  C223  1.536405 S    
C240  H197  1.117011 S    
C27   C43   1.393758 A    
N12   O107  1.301672 A    
C178  C179  1.525615 S    
C20   N4    1.444962 S    
C237  C238  1.528529 S    
Zn5   O47   1.924700 S    
C267  H259  1.110979 S    
C244  H205  1.111408 S    
C181  H58   1.111479 S    
C98   C130  1.392413 A    
C211  H128  1.111910 S    
C190  C191  1.524378 S    
C201  H106  1.117876 S    
C1    C12   1.470079 S    
C209  H124  1.109063 S    
Zn11  O2    1.948811 S    
C19   C35   1.394583 A    
C2    C11   1.468223 S    
N2    O87   1.301757 A    
C186  C187  1.535769 S    
C114  C146  1.391321 A    
O31   C91   1.277916 A    
O20   C72   1.299903 A    
C14   C120  1.414322 A    
C160  C166  1.399066 A    
C264  H252  1.111624 S    
C155  H43   1.076773 S    
C267  H260  1.109306 S    
N10   O103  1.301287 A    
O39   C93   1.282426 A    
C141  H29   1.078122 S    
C218  H144  1.111011 S    
C128  C160  1.392717 A    
C220  C221  1.525927 S    
C85   C174  1.457591 S    
C159  C165  1.399167 A    
C177  H50   1.109720 S    
C252  H224  1.110836 S    
O61   C201  1.413623 S    
C213  H134  1.109116 S    
O18   C70   1.299062 A    
C239  H195  1.111034 S    
O82   C264  1.412029 S    
C228  H169  1.108586 S    
C216  C217  1.532955 S    
C231  H176  1.110023 S    
C100  O56   1.386396 S    
C195  C196  1.534594 S    
C57   C77   1.421025 A    
O10   C66   1.298781 A    
C197  H96   1.110408 S    
C15   C117  1.416842 A    
O52   C82   1.277927 A    
C258  H238  1.111151 S    
C139  H27   1.076907 S    
C194  H90   1.110935 S    
O13   C69   1.278660 A    
C269  H264  1.110343 S    
C145  C171  1.396582 A    
C212  H131  1.110518 S    
C189  H77   1.110961 S    
C182  H62   1.110861 S    
C106  O62   1.383201 S    
C3    C121  1.413310 A    
C190  H79   1.111492 S    
O84   C270  1.411794 S    
O6    C66   1.277237 A    
Zn11  O33   1.930288 S    
O15   C71   1.278202 A    
C213  C214  1.535454 S    
