data_mof_unit_53510.cif
_audit_creation_date              2013-03-05T16:00:37-0500
_audit_creation_method            fapswitch 2.2
_symmetry_space_group_name_H-M    P1
_symmetry_Int_Tables_number       1
_space_group_crystal_system       triclinic
_cell_length_a                    10.761361
_cell_length_b                    14.726076
_cell_length_c                    14.686875
_cell_angle_alpha                 64.649185
_cell_angle_beta                  104.269588
_cell_angle_gamma                 103.203823
_cell_volume                      2018.28154613

loop_
_atom_site_label
_atom_site_type_symbol
_atom_site_description
_atom_site_fract_x
_atom_site_fract_y
_atom_site_fract_z
_atom_type_partial_charge
O1    O     O_R   0.455060 0.022100 0.338110 -0.642066
O2    O     O_R   0.512640 0.160150 0.379180 -0.570659
C1    C     C_R   0.479927 0.119829 0.311424 0.847434
O3    O     O_R   0.288900 0.930980 0.479450 -0.616297
O4    O     O_R   0.346480 0.069030 0.520520 -0.593353
C2    C     C_R   0.259874 0.001301 0.498040 0.843832
Cu1   Cu    Cu3+1 0.465900 0.918260 0.475680 0.968913
Cu2   Cu    Cu3+1 0.534100 0.081740 0.524320 0.985966
O5    O     O_R   0.487360 0.839850 0.620820 -0.555554
O6    O     O_R   0.544940 0.977900 0.661890 -0.590670
O7    O     O_R   0.653520 0.930970 0.479480 -0.580626
O8    O     O_R   0.711100 0.069020 0.520550 -0.588882
C3    C     C_R   0.522233 0.879926 0.688320 0.894890
C4    C     C_R   0.740027 0.999562 0.500502 0.881883
C5    C     C_3   0.033227 0.916984 0.465825 -0.330734
H1    H     H_    0.065507 0.842134 0.517530 0.193498
H2    H     H_    0.038630 0.928977 0.386963 0.250397
C6    C     C_3   0.892439 0.911933 0.473125 -0.334751
H3    H     H_    0.828835 0.913112 0.400688 0.219434
H4    H     H_    0.860386 0.837536 0.532223 0.222726
H5    H     H_    0.134483 0.908022 0.659652 0.226846
C7    C     C_3   0.104903 0.982979 0.605398 -0.497267
C8    C     C_3   0.078723 0.109044 0.422148 0.136185
C9    C     C_3   0.121913 0.002924 0.496056 -0.065062
H6    H     H_    0.131816 0.163371 0.457865 0.077411
C10   C     C_3   0.877877 0.000374 0.499211 -0.153062
C11   C     C_3   0.962914 0.989060 0.605917 0.153061
C12   C     C_3   0.931004 0.104570 0.418244 0.089327
H7    H     H_    0.922478 0.165362 0.441656 0.100783
H8    H     H_    0.170680 0.040177 0.632222 0.177517
H9    H     H_    0.963660 0.059111 0.617776 0.114273
C13   C     C_R   0.463759 0.187228 0.201379 -0.083370
C14   C     C_R   0.521536 0.811660 0.796663 -0.042166
C15   C     C_R   0.433413 0.220374 0.020990 -0.073186
C16   C     C_R   0.458308 0.153210 0.123398 -0.015043
C17   C     C_R   0.451866 0.288847 0.174414 -0.130318
C18   C     C_R   0.434063 0.358153 0.071905 0.051081
C19   C     C_R   0.421320 0.322127 0.993993 -0.013753
C20   C     C_R   0.436765 0.463577 0.045045 0.099471
C21   C     C_R   0.450250 0.532060 0.943874 -0.013119
C22   C     C_R   0.421973 0.493992 0.866913 -0.291080
C23   C     C_R   0.404007 0.390065 0.890470 0.338570
C24   C     C_R   0.426374 0.503391 0.114713 -0.163185
C25   C     C_R   0.432838 0.607537 0.085294 -0.186588
C26   C     C_R   0.460489 0.675299 0.988864 0.151829
C27   C     C_R   0.480630 0.637910 0.920298 0.023380
C28   C     C_R   0.467962 0.779955 0.959839 -0.144997
C29   C     C_R   0.491613 0.847082 0.862437 -0.198369
C30   C     C_R   0.532791 0.707627 0.831757 -0.070630
H10   H     H_    0.485020 0.926674 0.838127 0.179051
H11   H     H_    0.418692 0.635224 0.139037 0.149986
H12   H     H_    0.433112 0.194315 0.962319 0.210276
H13   H     H_    0.462521 0.313741 0.235367 0.142727
H14   H     H_    0.409869 0.545404 0.787153 0.185787
H15   H     H_    0.405730 0.455598 0.190484 0.140378
H16   H     H_    0.449213 0.809437 0.010548 0.175576
N1    N     N_R   0.585360 0.204570 0.560800 -0.188869
N2    N     N_R   0.414550 0.795430 0.439160 -0.230855
C31   C     C_R   0.726115 0.284695 0.666347 -0.228041
C32   C     C_R   0.684713 0.201920 0.638792 0.071294
C33   C     C_R   0.521965 0.286719 0.508790 0.031062
C34   C     C_R   0.558909 0.374127 0.533118 -0.025231
C35   C     C_R   0.666336 0.373279 0.612443 0.139389
C36   C     C_R   0.491407 0.460572 0.482469 0.103186
C37   C     C_R   0.530530 0.545226 0.512309 0.118673
C38   C     C_R   0.639172 0.542119 0.589467 -0.264185
C39   C     C_R   0.708496 0.459455 0.637740 0.004249
C40   C     C_R   0.384446 0.464365 0.403484 -0.209763
C41   C     C_R   0.315787 0.545641 0.357503 -0.177392
C42   C     C_R   0.350667 0.627013 0.387380 0.109820
C43   C     C_R   0.458884 0.630112 0.463705 0.000674
C44   C     C_R   0.276397 0.705514 0.340103 -0.227958
C45   C     C_R   0.307756 0.789435 0.366261 0.152927
C46   C     C_R   0.488930 0.718304 0.487134 0.002882
H17   H     H_    0.571249 0.727793 0.542528 0.173654
H18   H     H_    0.233528 0.544431 0.297761 0.161591
H19   H     H_    0.802943 0.276879 0.731148 0.207277
H20   H     H_    0.732192 0.134790 0.680060 0.160770
H21   H     H_    0.443075 0.280858 0.449517 0.125080
H22   H     H_    0.674214 0.604707 0.612991 0.143543
H23   H     H_    0.349580 0.405496 0.374835 0.141272
H24   H     H_    0.193642 0.701442 0.281571 0.191184
N3    N     N_R   0.369537 0.355280 0.808497 0.121414
O9    O     O_R   0.413880 0.409056 0.723344 -0.375435
O10   O     O_R   0.277411 0.279806 0.811966 -0.321214
C47   C     C_2   0.620718 0.674039 0.790995 0.394690
H25   H     H_    0.643822 0.597100 0.828252 0.077706
O11   O     O_2   0.675473 0.732555 0.719761 -0.510606
C48   C     C_2   0.488002 0.051364 0.145377 0.412788
H26   H     H_    0.552055 0.012142 0.214513 0.117412
O12   O     O_2   0.443525 0.010915 0.084704 -0.535027
C49   C     C_2   0.825818 0.469047 0.713339 0.379124
H27   H     H_    0.827749 0.511806 0.758415 0.100250
O13   O     O_2   0.923849 0.435925 0.721306 -0.505196
C50   C     C_2   0.222343 0.869601 0.311444 0.392560
H28   H     H_    0.250951 0.944438 0.309948 0.169071
O14   O     O_2   0.115067 0.852542 0.264595 -0.530570
N4    N     N_R   0.911198 0.902192 0.691061 0.161732
O15   O     O_R   0.931028 0.810481 0.713406 -0.333786
O16   O     O_R   0.857733 0.918040 0.752373 -0.341139
N5    N     N_R   0.113779 0.150802 0.319646 0.167431
O17   O     O_R   0.112667 0.247094 0.263377 -0.322665
O18   O     O_R   0.148689 0.095059 0.284187 -0.372370
N6    N     N_R   0.854306 0.126503 0.314987 0.157176
O19   O     O_R   0.856495 0.075259 0.262070 -0.314973
O20   O     O_R   0.788274 0.202458 0.273031 -0.362312

loop_
_geom_bond_atom_site_label_1
_geom_bond_atom_site_label_2
_geom_bond_distance
_ccdc_geom_bond_type
C5    C6    1.527825 S    
C11   N4    1.468985 S    
N5    O17   1.301251 A    
C22   C23   1.394164 A    
C50   H28   1.066482 S    
C6    C10   1.554876 S    
C31   H19   1.079050 S    
N6    O20   1.301070 A    
Cu1   Cu2   2.692898 S    
C26   C27   1.414611 A    
Cu1   O7    1.973690 S    
C27   C30   1.418971 A    
C32   H20   1.081972 S    
C10   C11   1.568543 S    
C18   C19   1.420882 A    
C40   H23   1.074842 S    
C13   C17   1.402705 A    
C17   C18   1.405830 A    
C15   C16   1.400263 A    
O4    C2    1.295384 A    
O7    C4    1.295390 A    
C47   O11   1.218301 D    
C14   C30   1.416048 A    
C5    H1    1.113732 S    
C41   H18   1.084939 S    
C5    H2    1.108793 S    
C6    H3    1.109623 S    
O5    C3    1.299361 A    
C49   H27   1.086001 S    
C34   C36   1.430640 A    
C17   H13   1.077107 S    
N3    O9    1.300922 A    
C40   C41   1.378544 A    
C8    C9    1.570654 S    
C42   C43   1.410983 A    
C48   O12   1.221459 D    
Cu1   N2    2.023084 S    
C29   H10   1.083250 S    
C38   C39   1.398626 A    
C31   C32   1.390542 A    
N5    O18   1.299840 A    
C15   C19   1.405089 A    
H5    C7    1.112203 S    
C33   C34   1.425679 A    
O3    Cu1   1.972342 S    
N6    O19   1.301303 A    
C26   C28   1.400399 A    
C35   C39   1.418433 A    
C46   H17   1.073167 S    
C11   H9    1.115312 S    
C13   C16   1.418040 A    
O3    C2    1.294765 A    
C20   C21   1.414996 A    
C47   H25   1.084294 S    
N1    C32   1.354169 A    
C20   C24   1.415370 A    
C37   C43   1.439259 A    
O1    C1    1.299686 A    
C21   C27   1.420318 A    
C24   C25   1.393656 A    
C3    C14   1.474883 S    
C34   C35   1.422714 A    
Cu2   N1    2.022741 S    
C43   C46   1.430250 A    
C12   N6    1.473327 S    
C28   C29   1.393557 A    
Cu2   O8    1.972343 S    
C2    C9    1.483201 S    
C49   O13   1.220591 D    
C1    C13   1.481262 S    
C8    C12   1.563687 S    
C4    C10   1.485497 S    
C16   C48   1.486353 S    
C25   H11   1.084259 S    
C24   H15   1.078372 S    
C21   C22   1.406987 A    
N3    O10   1.301454 A    
O8    C4    1.295515 A    
N4    O15   1.301857 A    
N4    O16   1.301179 A    
C7    C11   1.552954 S    
C7    C9    1.554067 S    
C45   C50   1.484491 S    
C12   H7    1.115679 S    
C15   H12   1.082144 S    
C36   C40   1.410450 A    
C25   C26   1.397134 A    
N2    C46   1.370810 A    
Cu1   O5    1.924051 S    
C5    C9    1.558891 S    
C7    H8    1.113560 S    
O1    Cu1   1.937481 S    
C10   C12   1.570752 S    
C30   C47   1.498313 S    
O2    Cu2   1.924051 S    
C23   N3    1.438950 S    
C44   C45   1.393141 A    
O6    C3    1.303118 A    
O4    Cu2   1.973690 S    
C50   O14   1.221972 D    
N1    C33   1.356902 A    
C38   H22   1.077380 S    
C31   C35   1.410760 A    
C36   C37   1.435443 A    
O2    C1    1.305585 A    
C18   C20   1.423814 A    
C8    N5    1.472429 S    
C33   H21   1.073579 S    
C39   C49   1.486118 S    
C6    H4    1.110535 S    
C8    H6    1.115561 S    
C41   C42   1.390287 A    
C22   H14   1.082951 S    
C19   C23   1.410774 A    
Cu2   O6    1.937481 S    
C37   C38   1.407136 A    
C14   C29   1.403759 A    
C42   C44   1.385080 A    
C48   H26   1.083685 S    
C44   H24   1.085380 S    
N2    C45   1.379457 A    
C28   H16   1.083890 S    
