data_mof_unit_63534.cif
_audit_creation_date              2013-03-05T16:08:05-0500
_audit_creation_method            fapswitch 2.2
_symmetry_space_group_name_H-M    P1
_symmetry_Int_Tables_number       1
_space_group_crystal_system       triclinic
_cell_length_a                    38.90405
_cell_length_b                    38.90374
_cell_length_c                    47.270365
_cell_angle_alpha                 89.999964
_cell_angle_beta                  89.999885
_cell_angle_gamma                 90.000949
_cell_volume                      71544.3141137

loop_
_atom_site_label
_atom_site_type_symbol
_atom_site_description
_atom_site_fract_x
_atom_site_fract_y
_atom_site_fract_z
_atom_type_partial_charge
O1    O     O_R   0.549940 0.971070 0.000000 -0.552407
O2    O     O_R   0.971070 0.450060 0.000000 -0.552347
O3    O     O_R   0.450060 0.028930 0.000000 -0.552407
O4    O     O_R   0.028930 0.549940 0.000000 -0.552348
O5    O     O_R   0.549940 0.028930 0.000000 -0.552402
O6    O     O_R   0.971070 0.549940 0.000000 -0.552461
O7    O     O_R   0.450060 0.971070 0.000000 -0.552402
O8    O     O_R   0.028930 0.450060 0.000000 -0.552461
O9    O     O_R   0.049940 0.471070 0.500000 -0.552369
O10   O     O_R   0.471070 0.950060 0.500000 -0.552412
O11   O     O_R   0.950060 0.528930 0.500000 -0.552369
O12   O     O_R   0.528930 0.049940 0.500000 -0.552411
O13   O     O_R   0.049940 0.528930 0.500000 -0.552448
O14   O     O_R   0.471070 0.049940 0.500000 -0.552401
O15   O     O_R   0.950060 0.471070 0.500000 -0.552448
O16   O     O_R   0.528930 0.950060 0.500000 -0.552401
C1    C     C_R   0.566406 0.000000 1.000000 0.806733
C2    C     C_R   1.000000 0.433595 0.000001 0.806580
C3    C     C_R   0.433594 1.000000 1.000000 0.806734
C4    C     C_R   0.000000 0.566405 0.000001 0.806579
C5    C     C_R   0.066406 0.500000 0.500000 0.806831
C6    C     C_R   0.500000 0.933594 0.500000 0.806721
C7    C     C_R   0.933594 0.500000 0.500000 0.806832
C8    C     C_R   0.500000 0.066406 0.500000 0.806721
O17   O     O_R   0.499990 0.971070 0.958930 -0.579801
O18   O     O_R   0.971070 0.500010 0.958930 -0.579796
O19   O     O_R   0.500010 0.028930 0.958930 -0.579802
O20   O     O_R   0.028930 0.499990 0.958930 -0.579797
O21   O     O_R   0.499990 0.028930 0.041070 -0.579818
O22   O     O_R   0.971070 0.499990 0.041070 -0.579454
O23   O     O_R   0.500010 0.971070 0.041070 -0.579817
O24   O     O_R   0.028930 0.500010 0.041070 -0.579453
O25   O     O_R   0.999990 0.471070 0.458930 -0.580006
O26   O     O_R   0.471070 0.000010 0.458930 -0.579782
O27   O     O_R   0.000010 0.528930 0.458930 -0.580008
O28   O     O_R   0.528930 0.999990 0.458930 -0.579782
O29   O     O_R   0.999990 0.528930 0.541070 -0.579808
O30   O     O_R   0.471070 0.999990 0.541070 -0.579804
O31   O     O_R   0.000010 0.471070 0.541070 -0.579809
O32   O     O_R   0.528930 0.000010 0.541070 -0.579804
C9    C     C_R   0.500000 0.000000 0.945422 0.783913
C10   C     C_R   0.000000 0.500000 0.945422 0.783850
C11   C     C_R   0.500000 1.000000 0.054578 0.783928
C12   C     C_R   1.000000 0.500000 0.054574 0.783507
C13   C     C_R   1.000000 0.500000 0.445418 0.784114
C14   C     C_R   0.500000 1.000000 0.445422 0.783885
C15   C     C_R   0.000000 0.500000 0.554578 0.783953
C16   C     C_R   0.500000 1.000000 0.554578 0.783906
Cu1   Cu    Cu3+1 0.500000 0.965750 0.000000 1.039106
Cu2   Cu    Cu3+1 0.965750 0.500000 0.000000 1.039399
Cu3   Cu    Cu3+1 0.500000 0.034250 0.000000 1.039105
Cu4   Cu    Cu3+1 0.034250 0.500000 0.000000 1.039397
Cu5   Cu    Cu3+1 1.000000 0.465750 0.500000 1.038897
Cu6   Cu    Cu3+1 0.465750 0.000000 0.500000 1.039104
Cu7   Cu    Cu3+1 0.000000 0.534250 0.500000 1.038900
Cu8   Cu    Cu3+1 0.534250 0.000000 0.500000 1.039105
C17   C     C_R   0.521371 0.021943 0.689991 0.598580
C18   C     C_R   0.021955 0.478641 0.689991 0.598582
C19   C     C_R   0.478628 0.978057 0.689991 0.598580
C20   C     C_R   0.978045 0.521358 0.689991 0.598581
C21   C     C_R   0.521416 0.978101 0.310010 0.598574
C22   C     C_R   0.022443 0.520844 0.309999 0.598670
C23   C     C_R   0.478586 0.021901 0.310010 0.598582
C24   C     C_R   0.977542 0.479170 0.309999 0.598701
C25   C     C_R   0.021959 0.521354 0.189977 0.598595
C26   C     C_R   0.521984 0.978671 0.189992 0.598586
C27   C     C_R   0.978026 0.478662 0.189977 0.598569
C28   C     C_R   0.478019 0.021332 0.189992 0.598581
C29   C     C_R   0.021385 0.478070 0.810009 0.598580
C30   C     C_R   0.521942 0.021372 0.810009 0.598580
C31   C     C_R   0.978616 0.521930 0.810009 0.598580
C32   C     C_R   0.478057 0.978628 0.810009 0.598581
N1    N     N_R   0.500000 0.000000 0.675864 -0.478808
N2    N     N_R   0.000000 0.500000 0.675864 -0.478812
N3    N     N_R   0.500001 0.000001 0.324137 -0.478806
N4    N     N_R   0.999994 0.500005 0.324124 -0.478922
N5    N     N_R   0.999995 0.500006 0.175849 -0.478826
N6    N     N_R   0.500001 0.000001 0.175864 -0.478815
N7    N     N_R   0.000000 0.500000 0.824137 -0.478806
N8    N     N_R   0.500000 0.000000 0.824136 -0.478808
C33   C     C_R   0.478026 0.977385 0.719926 -0.143296
C34   C     C_R   0.977372 0.521959 0.719926 -0.143296
C35   C     C_R   0.521973 0.022615 0.719926 -0.143296
C36   C     C_R   0.022628 0.478041 0.719926 -0.143296
C37   C     C_R   0.477985 0.022573 0.280075 -0.143294
C38   C     C_R   0.976810 0.478632 0.280063 -0.143328
C39   C     C_R   0.522020 0.977432 0.280075 -0.143297
C40   C     C_R   0.023164 0.521394 0.280063 -0.143338
C41   C     C_R   0.977412 0.477999 0.219913 -0.143314
C42   C     C_R   0.477346 0.021932 0.219926 -0.143299
C43   C     C_R   0.022563 0.522028 0.219913 -0.143307
C44   C     C_R   0.522659 0.978072 0.219926 -0.143298
C45   C     C_R   0.978012 0.522600 0.780074 -0.143296
C46   C     C_R   0.477386 0.978026 0.780074 -0.143297
C47   C     C_R   0.021988 0.477400 0.780074 -0.143297
C48   C     C_R   0.522614 0.021974 0.780074 -0.143297
C49   C     C_R   0.500000 0.000000 0.734964 -0.076276
C50   C     C_R   0.000000 0.500000 0.734964 -0.076278
C51   C     C_R   0.500002 0.000002 0.265036 -0.076276
C52   C     C_R   0.999987 0.500013 0.265024 -0.076290
C53   C     C_R   0.999988 0.500013 0.234952 -0.076257
C54   C     C_R   0.500002 0.000002 0.234965 -0.076277
C55   C     C_R   0.000000 0.500000 0.765036 -0.076275
C56   C     C_R   0.500000 0.000000 0.765036 -0.076276
C57   C     C_R   0.455919 0.955138 0.735175 0.246894
C58   C     C_R   0.955111 0.544050 0.735176 0.246894
C59   C     C_R   0.544080 0.044862 0.735175 0.246894
C60   C     C_R   0.044889 0.455949 0.735175 0.246894
C61   C     C_R   0.455836 0.044778 0.264825 0.246889
C62   C     C_R   0.953961 0.457148 0.264813 0.246823
C63   C     C_R   0.544172 0.955230 0.264825 0.246895
C64   C     C_R   0.046000 0.542891 0.264814 0.246838
C65   C     C_R   0.954712 0.456357 0.235163 0.246857
C66   C     C_R   0.455057 0.043995 0.235176 0.246892
C67   C     C_R   0.045250 0.543683 0.235163 0.246846
C68   C     C_R   0.544950 0.956011 0.235176 0.246890
C69   C     C_R   0.955891 0.544831 0.764825 0.246893
C70   C     C_R   0.455139 0.955919 0.764825 0.246893
C71   C     C_R   0.044110 0.455169 0.764825 0.246894
C72   C     C_R   0.544860 0.044081 0.764824 0.246894
O33   O     O_2   0.541806 0.043088 0.674886 -0.452520
O34   O     O_2   0.043110 0.458218 0.674886 -0.452519
O35   O     O_2   0.458194 0.956912 0.674886 -0.452519
O36   O     O_2   0.956890 0.541781 0.674886 -0.452518
O37   O     O_2   0.541891 0.956996 0.325115 -0.452517
O38   O     O_2   0.044030 0.540806 0.325108 -0.452415
O39   O     O_2   0.458109 0.043004 0.325115 -0.452520
O40   O     O_2   0.955965 0.459197 0.325108 -0.452422
O41   O     O_2   0.042986 0.541911 0.174871 -0.452419
O42   O     O_2   0.543163 0.958273 0.174886 -0.452505
O43   O     O_2   0.957009 0.458095 0.174871 -0.452413
O44   O     O_2   0.456839 0.041728 0.174886 -0.452505
O45   O     O_2   0.041831 0.456937 0.825114 -0.452510
O46   O     O_2   0.543087 0.041807 0.825114 -0.452514
O47   O     O_2   0.958170 0.543063 0.825114 -0.452510
O48   O     O_2   0.456913 0.958193 0.825114 -0.452514
C73   C     C_R   0.490870 0.029766 0.869621 -0.071194
C74   C     C_R   0.970239 0.490855 0.869621 -0.071186
C75   C     C_R   0.509130 0.970234 0.869620 -0.071194
C76   C     C_R   0.029761 0.509145 0.869621 -0.071186
C77   C     C_R   0.509087 0.029780 0.130380 -0.071211
C78   C     C_R   0.970494 0.509950 0.130361 -0.070935
C79   C     C_R   0.490914 0.970221 0.130381 -0.071211
C80   C     C_R   0.029501 0.490056 0.130363 -0.070934
C81   C     C_R   0.008596 0.470080 0.369602 -0.071428
C82   C     C_R   0.470251 0.990816 0.369622 -0.071180
C83   C     C_R   0.991398 0.529925 0.369605 -0.071431
C84   C     C_R   0.529750 0.009185 0.369622 -0.071181
C85   C     C_R   0.009118 0.529769 0.630380 -0.071206
C86   C     C_R   0.529765 0.990870 0.630379 -0.071199
C87   C     C_R   0.990882 0.470230 0.630380 -0.071206
C88   C     C_R   0.470234 0.009130 0.630379 -0.071199
H1    H     H_    0.483563 0.052854 0.858328 0.166308
H2    H     H_    0.947155 0.483536 0.858328 0.166317
H3    H     H_    0.516437 0.947147 0.858328 0.166308
H4    H     H_    0.052846 0.516463 0.858328 0.166317
H5    H     H_    0.516360 0.052879 0.141673 0.166298
H6    H     H_    0.947619 0.517903 0.141652 0.166250
H7    H     H_    0.483642 0.947122 0.141674 0.166298
H8    H     H_    0.052375 0.482104 0.141656 0.166243
H9    H     H_    0.015482 0.446866 0.358306 0.166080
H10   H     H_    0.447177 0.983466 0.358329 0.166304
H11   H     H_    0.984511 0.553140 0.358310 0.166087
H12   H     H_    0.552824 0.016534 0.358330 0.166305
H13   H     H_    0.016416 0.552860 0.641672 0.166294
H14   H     H_    0.552853 0.983563 0.641672 0.166304
H15   H     H_    0.983584 0.447139 0.641672 0.166294
H16   H     H_    0.447147 0.016437 0.641672 0.166304
C89   C     C_R   0.491082 0.029853 0.899161 -0.190433
C90   C     C_R   0.970152 0.491067 0.899161 -0.190428
C91   C     C_R   0.508918 0.970147 0.899161 -0.190432
C92   C     C_R   0.029848 0.508933 0.899161 -0.190427
C93   C     C_R   0.508876 0.029866 0.100840 -0.190422
C94   C     C_R   0.970399 0.509727 0.100820 -0.190469
C95   C     C_R   0.491125 0.970135 0.100841 -0.190423
C96   C     C_R   0.029598 0.490277 0.100822 -0.190475
C97   C     C_R   0.008398 0.469999 0.399144 -0.190312
C98   C     C_R   0.470164 0.991029 0.399162 -0.190447
C99   C     C_R   0.991599 0.530004 0.399146 -0.190306
C100  C     C_R   0.529837 0.008972 0.399162 -0.190446
C101  C     C_R   0.008906 0.529856 0.600840 -0.190442
C102  C     C_R   0.529852 0.991082 0.600839 -0.190439
C103  C     C_R   0.991093 0.470143 0.600840 -0.190443
C104  C     C_R   0.470147 0.008918 0.600839 -0.190440
H17   H     H_    0.483911 0.053159 0.910212 0.173469
H18   H     H_    0.946849 0.483886 0.910212 0.173470
H19   H     H_    0.516088 0.946841 0.910212 0.173469
H20   H     H_    0.053151 0.516114 0.910212 0.173469
H21   H     H_    0.516012 0.053183 0.089789 0.173506
H22   H     H_    0.947308 0.517545 0.089758 0.172739
H23   H     H_    0.483989 0.946817 0.089790 0.173505
H24   H     H_    0.052690 0.482458 0.089762 0.172734
H25   H     H_    0.015157 0.446565 0.410188 0.173847
H26   H     H_    0.446870 0.983816 0.410213 0.173417
H27   H     H_    0.984841 0.553436 0.410191 0.173853
H28   H     H_    0.553130 0.016184 0.410214 0.173418
H29   H     H_    0.016068 0.553166 0.589788 0.173464
H30   H     H_    0.553159 0.983912 0.589788 0.173465
H31   H     H_    0.983932 0.446834 0.589789 0.173464
H32   H     H_    0.446841 0.016088 0.589788 0.173465
C105  C     C_R   0.500000 0.000000 0.914208 -0.048334
C106  C     C_R   0.000000 0.500000 0.914209 -0.048321
C107  C     C_R   0.500000 0.000000 0.085792 -0.048380
C108  C     C_R   0.999999 0.500001 0.085779 -0.047467
C109  C     C_R   0.999999 0.500001 0.414197 -0.048844
C110  C     C_R   0.500000 0.000000 0.414209 -0.048272
C111  C     C_R   0.000000 0.500000 0.585792 -0.048341
C112  C     C_R   0.500000 0.000000 0.585791 -0.048330
Cu9   Cu    Cu3+1 1.000000 0.000000 0.971840 1.234615
Cu10  Cu    Cu3+1 0.000000 0.000000 0.028160 1.234565
Cu11  Cu    Cu3+1 0.500000 0.500000 0.471840 1.234671
Cu12  Cu    Cu3+1 0.500000 0.500000 0.528160 1.234621
C113  C     C_R   0.500000 0.000000 0.854648 0.310468
C114  C     C_R   0.000000 0.500000 0.854649 0.310455
C115  C     C_R   0.500001 0.000001 0.145353 0.310488
C116  C     C_R   0.999996 0.500004 0.145336 0.310361
C117  C     C_R   0.999996 0.500003 0.354634 0.310836
C118  C     C_R   0.500001 0.000000 0.354649 0.310461
C119  C     C_R   0.000000 0.500000 0.645352 0.310488
C120  C     C_R   0.500000 0.000000 0.645352 0.310473
C121  C     C_R   0.622972 0.027127 0.013087 0.126328
C122  C     C_R   0.027116 0.377031 0.013104 0.126373
C123  C     C_R   0.377028 0.972873 0.013087 0.126328
C124  C     C_R   0.972884 0.622969 0.013104 0.126372
C125  C     C_R   0.622971 0.972875 0.986912 0.126330
C126  C     C_R   0.027119 0.622971 0.986905 0.126340
C127  C     C_R   0.377029 0.027125 0.986911 0.126330
C128  C     C_R   0.972881 0.377029 0.986905 0.126339
C129  C     C_R   0.122972 0.527131 0.513084 0.126323
C130  C     C_R   0.527123 0.877029 0.513091 0.126329
C131  C     C_R   0.877028 0.472869 0.513084 0.126323
C132  C     C_R   0.472877 0.122971 0.513091 0.126329
C133  C     C_R   0.122972 0.472871 0.486919 0.126306
C134  C     C_R   0.527125 0.122971 0.486910 0.126331
C135  C     C_R   0.877028 0.527129 0.486919 0.126306
C136  C     C_R   0.472875 0.877029 0.486910 0.126332
C137  C     C_R   0.659048 0.027016 0.012604 -0.153063
C138  C     C_R   0.027005 0.340955 0.012621 -0.153202
C139  C     C_R   0.340952 0.972984 0.012603 -0.153064
C140  C     C_R   0.972995 0.659045 0.012622 -0.153197
C141  C     C_R   0.659047 0.972987 0.987395 -0.153069
C142  C     C_R   0.027008 0.659048 0.987390 -0.153077
C143  C     C_R   0.340953 0.027013 0.987395 -0.153069
C144  C     C_R   0.972992 0.340952 0.987390 -0.153078
C145  C     C_R   0.159048 0.527019 0.512602 -0.153068
C146  C     C_R   0.527011 0.840953 0.512607 -0.153074
C147  C     C_R   0.840952 0.472981 0.512601 -0.153067
C148  C     C_R   0.472989 0.159047 0.512607 -0.153075
C149  C     C_R   0.159048 0.472984 0.487403 -0.152962
C150  C     C_R   0.527014 0.159048 0.487393 -0.153083
C151  C     C_R   0.840952 0.527016 0.487402 -0.152958
C152  C     C_R   0.472986 0.840952 0.487393 -0.153083
H33   H     H_    0.672983 0.047766 0.022704 0.173907
H34   H     H_    0.047750 0.327020 0.022731 0.173875
H35   H     H_    0.327016 0.952233 0.022703 0.173907
H36   H     H_    0.952250 0.672979 0.022731 0.173876
H37   H     H_    0.672982 0.952236 0.977294 0.173906
H38   H     H_    0.047752 0.672984 0.977281 0.173913
H39   H     H_    0.327018 0.047764 0.977294 0.173906
H40   H     H_    0.952248 0.327016 0.977282 0.173913
H41   H     H_    0.172983 0.547773 0.522698 0.173898
H42   H     H_    0.547760 0.827018 0.522709 0.173904
H43   H     H_    0.827017 0.452227 0.522698 0.173898
H44   H     H_    0.452240 0.172982 0.522709 0.173904
H45   H     H_    0.172983 0.452230 0.477306 0.173930
H46   H     H_    0.547763 0.172983 0.477291 0.173902
H47   H     H_    0.827017 0.547770 0.477306 0.173931
H48   H     H_    0.452237 0.827017 0.477291 0.173901
C153  C     C_R   0.677232 0.000001 0.999999 -0.004000
C154  C     C_R   0.999999 0.322769 0.000006 -0.003997
C155  C     C_R   0.322768 0.999999 0.999999 -0.004000
C156  C     C_R   0.000001 0.677230 0.000006 -0.003998
C157  C     C_R   0.177232 0.500002 0.500002 -0.004001
C158  C     C_R   0.499999 0.822768 0.500000 -0.003998
C159  C     C_R   0.822768 0.499998 0.500002 -0.004001
C160  C     C_R   0.500001 0.177231 0.500000 -0.003998
C161  C     C_R   0.604567 0.000001 0.999999 -0.061299
C162  C     C_R   0.999999 0.395434 0.000003 -0.061246
C163  C     C_R   0.395433 0.999999 0.999999 -0.061299
C164  C     C_R   0.000001 0.604566 0.000003 -0.061246
C165  C     C_R   0.104568 0.500001 0.500001 -0.061328
C166  C     C_R   0.499999 0.895433 0.500000 -0.061291
C167  C     C_R   0.895432 0.499999 0.500001 -0.061328
C168  C     C_R   0.500001 0.104567 0.500000 -0.061290
N9    N     N_R   0.732984 0.970262 0.996588 -0.195454
N10   N     N_R   0.970262 0.267015 0.996589 -0.195468
N11   N     N_R   0.267016 0.029738 0.996588 -0.195455
N12   N     N_R   0.029738 0.732984 0.996589 -0.195467
N13   N     N_R   0.732985 0.029740 0.003411 -0.195453
N14   N     N_R   0.970262 0.732983 0.003422 -0.195467
N15   N     N_R   0.267014 0.970259 0.003410 -0.195453
N16   N     N_R   0.029738 0.267017 0.003422 -0.195468
N17   N     N_R   0.232985 0.470262 0.496593 -0.195443
N18   N     N_R   0.470260 0.767015 0.496588 -0.195458
N19   N     N_R   0.767015 0.529737 0.496593 -0.195442
N20   N     N_R   0.529740 0.232985 0.496588 -0.195458
N21   N     N_R   0.232986 0.529742 0.503411 -0.195442
N22   N     N_R   0.470262 0.232984 0.503412 -0.195456
N23   N     N_R   0.767014 0.470258 0.503411 -0.195441
N24   N     N_R   0.529737 0.767016 0.503412 -0.195456
N25   N     N_R   0.767200 0.970245 0.996691 -0.145702
N26   N     N_R   0.970246 0.232799 0.996690 -0.145717
N27   N     N_R   0.232799 0.029755 0.996691 -0.145703
N28   N     N_R   0.029754 0.767201 0.996690 -0.145717
N29   N     N_R   0.767202 0.029757 0.003308 -0.145697
N30   N     N_R   0.970245 0.767199 0.003318 -0.145703
N31   N     N_R   0.232798 0.970243 0.003308 -0.145697
N32   N     N_R   0.029755 0.232801 0.003318 -0.145704
N33   N     N_R   0.267201 0.470246 0.496695 -0.145698
N34   N     N_R   0.470243 0.732798 0.496690 -0.145704
N35   N     N_R   0.732799 0.529754 0.496695 -0.145697
N36   N     N_R   0.529757 0.267201 0.496690 -0.145704
N37   N     N_R   0.267202 0.529758 0.503308 -0.145683
N38   N     N_R   0.470246 0.267200 0.503310 -0.145699
N39   N     N_R   0.732798 0.470241 0.503308 -0.145683
N40   N     N_R   0.529754 0.732800 0.503309 -0.145699
C169  C     C_R   0.784979 0.000001 1.000000 0.554064
C170  C     C_R   0.000001 0.215022 0.000004 0.554051
C171  C     C_R   0.215021 0.999999 0.999999 0.554064
C172  C     C_R   0.999999 0.784978 0.000004 0.554050
C173  C     C_R   0.284979 0.500002 0.500002 0.554072
C174  C     C_R   0.499999 0.715021 0.500000 0.554064
C175  C     C_R   0.715021 0.499998 0.500001 0.554071
C176  C     C_R   0.500001 0.284979 0.500000 0.554064
C177  C     C_R   0.715192 0.000001 0.999999 0.426755
C178  C     C_R   1.000000 0.284809 0.000006 0.426710
C179  C     C_R   0.284808 0.999999 0.999999 0.426754
C180  C     C_R   0.000000 0.715190 0.000006 0.426711
C181  C     C_R   0.215192 0.500002 0.500003 0.426792
C182  C     C_R   0.499999 0.784809 0.500000 0.426753
C183  C     C_R   0.784808 0.499998 0.500002 0.426793
C184  C     C_R   0.500001 0.215191 0.500000 0.426753
C185  C     C_R   0.841293 0.019529 0.020264 0.236503
C186  C     C_R   0.019526 0.158707 0.020268 0.236520
C187  C     C_R   0.158707 0.980471 0.020264 0.236502
C188  C     C_R   0.980474 0.841293 0.020268 0.236519
C189  C     C_R   0.841292 0.980473 0.979736 0.236498
C190  C     C_R   0.019523 0.841292 0.979735 0.236498
C191  C     C_R   0.158708 0.019527 0.979735 0.236498
C192  C     C_R   0.980477 0.158708 0.979735 0.236498
C193  C     C_R   0.341294 0.519530 0.520265 0.236505
C194  C     C_R   0.519525 0.658708 0.520265 0.236504
C195  C     C_R   0.658706 0.480469 0.520265 0.236507
C196  C     C_R   0.480475 0.341292 0.520265 0.236503
C197  C     C_R   0.341292 0.480474 0.479737 0.236484
C198  C     C_R   0.519527 0.341293 0.479735 0.236500
C199  C     C_R   0.658708 0.519526 0.479736 0.236482
C200  C     C_R   0.480473 0.658707 0.479735 0.236499
C201  C     C_R   0.877498 0.019906 0.020015 0.227139
C202  C     C_R   0.019904 0.122502 0.020018 0.227137
C203  C     C_R   0.122502 0.980094 0.020015 0.227140
C204  C     C_R   0.980096 0.877498 0.020018 0.227135
C205  C     C_R   0.877497 0.980095 0.979985 0.227132
C206  C     C_R   0.019901 0.877497 0.979984 0.227131
C207  C     C_R   0.122503 0.019905 0.979985 0.227132
C208  C     C_R   0.980099 0.122503 0.979984 0.227131
C209  C     C_R   0.377499 0.519907 0.520015 0.227139
C210  C     C_R   0.519903 0.622503 0.520016 0.227136
C211  C     C_R   0.622501 0.480093 0.520015 0.227138
C212  C     C_R   0.480096 0.377497 0.520016 0.227136
C213  C     C_R   0.377497 0.480096 0.479985 0.227133
C214  C     C_R   0.519904 0.377498 0.479984 0.227130
C215  C     C_R   0.622503 0.519904 0.479985 0.227134
C216  C     C_R   0.480096 0.622502 0.479984 0.227131
C217  C     C_R   0.895743 0.000000 0.000000 -0.306360
C218  C     C_R   0.000001 0.104257 0.000000 -0.306363
C219  C     C_R   0.104257 1.000000 1.000000 -0.306361
C220  C     C_R   0.999999 0.895743 0.000000 -0.306362
C221  C     C_R   0.395744 0.500001 0.500000 -0.306348
C222  C     C_R   0.500000 0.604256 0.500000 -0.306352
C223  C     C_R   0.604256 0.499999 0.500000 -0.306348
C224  C     C_R   0.500000 0.395743 0.500000 -0.306351
C225  C     C_R   0.823052 0.000001 1.000000 -0.264050
C226  C     C_R   0.000001 0.176948 0.000002 -0.264052
C227  C     C_R   0.176947 0.999999 1.000000 -0.264050
C228  C     C_R   0.999998 0.823052 0.000002 -0.264052
C229  C     C_R   0.323053 0.500002 0.500001 -0.264044
C230  C     C_R   0.499999 0.676948 0.500000 -0.264046
C231  C     C_R   0.676947 0.499998 0.500001 -0.264044
C232  C     C_R   0.500001 0.323052 0.500000 -0.264046
O49   O     O_R   0.000030 0.049790 0.976210 -0.544061
O50   O     O_R   0.049790 0.999970 0.976210 -0.544065
O51   O     O_R   0.999970 0.950210 0.976210 -0.544061
O52   O     O_R   0.950210 0.000030 0.976210 -0.544064
O53   O     O_R   0.000030 0.950210 0.023790 -0.544072
O54   O     O_R   0.049790 0.000030 0.023790 -0.544071
O55   O     O_R   0.999970 0.049790 0.023790 -0.544073
O56   O     O_R   0.950210 0.999970 0.023790 -0.544071
O57   O     O_R   0.500030 0.549790 0.476210 -0.544060
O58   O     O_R   0.549790 0.499970 0.476210 -0.544056
O59   O     O_R   0.499970 0.450210 0.476210 -0.544060
O60   O     O_R   0.450210 0.500030 0.476210 -0.544056
O61   O     O_R   0.500030 0.450210 0.523790 -0.544065
O62   O     O_R   0.549790 0.500030 0.523790 -0.544069
O63   O     O_R   0.499970 0.549790 0.523790 -0.544066
O64   O     O_R   0.450210 0.499970 0.523790 -0.544069
C233  C     C_R   0.000000 0.066197 0.000000 0.926954
C234  C     C_R   0.066197 1.000000 1.000000 0.926954
C235  C     C_R   0.999999 0.933803 0.000000 0.926955
C236  C     C_R   0.933803 1.000000 0.000000 0.926954
C237  C     C_R   0.500000 0.566197 0.500000 0.926941
C238  C     C_R   0.566197 0.500000 0.500000 0.926940
C239  C     C_R   0.500000 0.433803 0.500000 0.926941
C240  C     C_R   0.433803 0.500000 0.500000 0.926941
N41   N     N_R   0.433684 0.931422 0.720918 0.194236
O65   O     O_R   0.400724 0.936988 0.720270 -0.239862
O66   O     O_R   0.445712 0.902035 0.712289 -0.234653
N42   N     N_R   0.931379 0.566269 0.720918 0.194236
O67   O     O_R   0.936919 0.599233 0.720273 -0.239855
O68   O     O_R   0.902002 0.554217 0.712286 -0.234665
N43   N     N_R   0.566316 0.068577 0.720918 0.194237
O69   O     O_R   0.599276 0.063012 0.720270 -0.239863
O70   O     O_R   0.554288 0.097965 0.712289 -0.234654
N44   N     N_R   0.068621 0.433731 0.720918 0.194236
O71   O     O_R   0.063081 0.400767 0.720273 -0.239855
O72   O     O_R   0.097998 0.445783 0.712285 -0.234666
N45   N     N_R   0.433557 0.068452 0.279083 0.194237
O73   O     O_R   0.400606 0.062832 0.279722 -0.239864
O74   O     O_R   0.445535 0.097857 0.287720 -0.234651
N46   N     N_R   0.929613 0.435605 0.279071 0.194245
O75   O     O_R   0.934109 0.402479 0.279571 -0.239514
O76   O     O_R   0.900675 0.448528 0.287855 -0.234962
N47   N     N_R   0.566457 0.931561 0.279083 0.194238
O77   O     O_R   0.599404 0.937197 0.279732 -0.239883
O78   O     O_R   0.554490 0.902148 0.287711 -0.234634
N48   N     N_R   0.070322 0.564463 0.279073 0.194261
O79   O     O_R   0.065760 0.597579 0.279606 -0.239598
O80   O     O_R   0.099294 0.551585 0.287824 -0.234889
N49   N     N_R   0.931824 0.433272 0.220903 0.194280
O81   O     O_R   0.899024 0.439718 0.220302 -0.239857
O82   O     O_R   0.943047 0.403587 0.212225 -0.234610
N50   N     N_R   0.431299 0.066185 0.220918 0.194242
O83   O     O_R   0.436798 0.099156 0.220274 -0.239836
O84   O     O_R   0.401937 0.054097 0.212285 -0.234671
N51   N     N_R   0.068112 0.566795 0.220904 0.194264
O85   O     O_R   0.100924 0.560408 0.220333 -0.239778
O86   O     O_R   0.056845 0.596451 0.212199 -0.234682
N52   N     N_R   0.568711 0.933825 0.220918 0.194239
O87   O     O_R   0.563218 0.900853 0.220276 -0.239826
O88   O     O_R   0.598070 0.945917 0.212283 -0.234681
N53   N     N_R   0.933638 0.568530 0.779082 0.194239
O89   O     O_R   0.900683 0.562937 0.779733 -0.239859
O90   O     O_R   0.945644 0.597928 0.787709 -0.234643
N54   N     N_R   0.431424 0.933682 0.779082 0.194239
O91   O     O_R   0.436991 0.900722 0.779730 -0.239854
O92   O     O_R   0.402036 0.945710 0.787711 -0.234653
N55   N     N_R   0.066363 0.431470 0.779082 0.194239
O93   O     O_R   0.099318 0.437063 0.779733 -0.239860
O94   O     O_R   0.054356 0.402072 0.787709 -0.234644
N56   N     N_R   0.568576 0.066318 0.779082 0.194238
O95   O     O_R   0.563009 0.099278 0.779730 -0.239854
O96   O     O_R   0.597963 0.054290 0.787710 -0.234653
N57   N     N_3   0.605003 0.054314 0.027456 -0.533118
H49   H     H_    0.622140 0.073249 0.034353 0.238720
H50   H     H_    0.593870 0.043734 0.045612 0.218810
N58   N     N_3   0.054293 0.395003 0.027484 -0.533186
H51   H     H_    0.073221 0.377866 0.034393 0.238685
H52   H     H_    0.043700 0.406140 0.045633 0.218402
N59   N     N_3   0.394997 0.945686 0.027456 -0.533118
H53   H     H_    0.377859 0.926751 0.034352 0.238719
H54   H     H_    0.406129 0.956265 0.045612 0.218810
N60   N     N_3   0.945707 0.604997 0.027484 -0.533185
H55   H     H_    0.926779 0.622134 0.034394 0.238688
H56   H     H_    0.956300 0.593860 0.045633 0.218404
N61   N     N_3   0.605001 0.945688 0.972543 -0.533126
H57   H     H_    0.622138 0.926753 0.965646 0.238716
H58   H     H_    0.593869 0.956268 0.954387 0.218790
N62   N     N_3   0.054297 0.605002 0.972525 -0.533081
H59   H     H_    0.073227 0.622141 0.965620 0.238732
H60   H     H_    0.043706 0.593869 0.954374 0.218766
N63   N     N_3   0.394999 0.054312 0.972543 -0.533126
H61   H     H_    0.377862 0.073247 0.965646 0.238716
H62   H     H_    0.406131 0.043732 0.954387 0.218790
N64   N     N_3   0.945703 0.394998 0.972525 -0.533079
H63   H     H_    0.926773 0.377859 0.965620 0.238732
H64   H     H_    0.956294 0.406131 0.954374 0.218766
N65   N     N_3   0.105002 0.554321 0.527448 -0.533169
H65   H     H_    0.122140 0.573258 0.534342 0.238698
H66   H     H_    0.093870 0.543746 0.545606 0.218804
N66   N     N_3   0.554307 0.894999 0.527462 -0.533132
H67   H     H_    0.573241 0.877862 0.534361 0.238711
H68   H     H_    0.543725 0.906132 0.545617 0.218786
N67   N     N_3   0.894998 0.445679 0.527448 -0.533170
H69   H     H_    0.877860 0.426742 0.534342 0.238698
H70   H     H_    0.906129 0.456254 0.545606 0.218805
N68   N     N_3   0.445692 0.105000 0.527462 -0.533132
H71   H     H_    0.426759 0.122138 0.534361 0.238710
H72   H     H_    0.456274 0.093868 0.545617 0.218786
N69   N     N_3   0.105003 0.445680 0.472555 -0.533096
H73   H     H_    0.122141 0.426742 0.465664 0.238735
H74   H     H_    0.093873 0.456254 0.454396 0.219052
N70   N     N_3   0.554310 0.105002 0.472539 -0.533141
H75   H     H_    0.573243 0.122140 0.465640 0.238706
H76   H     H_    0.543727 0.093869 0.454384 0.218763
N71   N     N_3   0.894997 0.554320 0.472555 -0.533094
H77   H     H_    0.877859 0.573258 0.465664 0.238737
H78   H     H_    0.906127 0.543746 0.454396 0.219055
N72   N     N_3   0.445690 0.894998 0.472538 -0.533142
H79   H     H_    0.426757 0.877860 0.465640 0.238706
H80   H     H_    0.456273 0.906131 0.454384 0.218763
N73   N     N_R   0.823142 0.038932 0.041364 0.175887
O97   O     O_R   0.828820 0.071704 0.044263 -0.227079
O98   O     O_R   0.801784 0.023630 0.058399 -0.277913
N74   N     N_R   0.038927 0.176859 0.041370 0.175877
O99   O     O_R   0.071698 0.171183 0.044272 -0.227103
O100  O     O_R   0.023621 0.198214 0.058406 -0.278050
N75   N     N_R   0.176858 0.961067 0.041364 0.175886
O101  O     O_R   0.171180 0.928296 0.044263 -0.227079
O102  O     O_R   0.198216 0.976370 0.058399 -0.277915
N76   N     N_R   0.961073 0.823141 0.041371 0.175877
O103  O     O_R   0.928302 0.828817 0.044272 -0.227100
O104  O     O_R   0.976379 0.801786 0.058406 -0.278043
N77   N     N_R   0.823140 0.961069 0.958635 0.175889
O105  O     O_R   0.828816 0.928297 0.955736 -0.227064
O106  O     O_R   0.801783 0.976372 0.941600 -0.277899
N78   N     N_R   0.038923 0.823139 0.958633 0.175890
O107  O     O_R   0.071694 0.828816 0.955731 -0.227064
O108  O     O_R   0.023618 0.801781 0.941600 -0.277893
N79   N     N_R   0.176860 0.038931 0.958635 0.175888
O109  O     O_R   0.171184 0.071702 0.955736 -0.227065
O110  O     O_R   0.198217 0.023628 0.941600 -0.277899
N80   N     N_R   0.961077 0.176861 0.958633 0.175890
O111  O     O_R   0.928306 0.171184 0.955731 -0.227065
O112  O     O_R   0.976382 0.198219 0.941600 -0.277893
N81   N     N_R   0.323143 0.538935 0.541365 0.175886
O113  O     O_R   0.328821 0.571706 0.544264 -0.227060
O114  O     O_R   0.301784 0.523633 0.558400 -0.277905
N82   N     N_R   0.538927 0.676860 0.541366 0.175887
O115  O     O_R   0.571699 0.671184 0.544267 -0.227061
O116  O     O_R   0.523623 0.698218 0.558401 -0.277900
N83   N     N_R   0.676857 0.461065 0.541364 0.175885
O117  O     O_R   0.671178 0.428293 0.544263 -0.227060
O118  O     O_R   0.698215 0.476366 0.558400 -0.277905
N84   N     N_R   0.461073 0.323139 0.541366 0.175887
O119  O     O_R   0.428301 0.328815 0.544267 -0.227062
O120  O     O_R   0.476376 0.301782 0.558401 -0.277900
N85   N     N_R   0.323139 0.461070 0.458637 0.175897
O121  O     O_R   0.328815 0.428298 0.455738 -0.227028
O122  O     O_R   0.301781 0.476372 0.441602 -0.277760
N86   N     N_R   0.538930 0.323142 0.458634 0.175890
O123  O     O_R   0.571701 0.328819 0.455733 -0.227049
O124  O     O_R   0.523626 0.301783 0.441599 -0.277887
N87   N     N_R   0.676861 0.538930 0.458637 0.175898
O125  O     O_R   0.671185 0.571702 0.455737 -0.227025
O126  O     O_R   0.698219 0.523628 0.441602 -0.277754
N88   N     N_R   0.461070 0.676858 0.458634 0.175889
O127  O     O_R   0.428299 0.671180 0.455733 -0.227049
O128  O     O_R   0.476374 0.698217 0.441599 -0.277887
N89   N     N_R   0.895632 0.040756 0.040167 0.177321
O129  O     O_R   0.890275 0.036786 0.067139 -0.226314
O130  O     O_R   0.916505 0.064703 0.031552 -0.300357
N90   N     N_R   0.040752 0.104368 0.040170 0.177324
O131  O     O_R   0.036779 0.109723 0.067142 -0.226344
O132  O     O_R   0.064701 0.083497 0.031557 -0.300336
N91   N     N_R   0.104367 0.959244 0.040166 0.177321
O133  O     O_R   0.109725 0.963213 0.067139 -0.226314
O134  O     O_R   0.083494 0.935297 0.031552 -0.300356
N92   N     N_R   0.959248 0.895632 0.040170 0.177324
O135  O     O_R   0.963221 0.890277 0.067142 -0.226340
O136  O     O_R   0.935299 0.916503 0.031557 -0.300335
N93   N     N_R   0.895631 0.959244 0.959833 0.177325
O137  O     O_R   0.890274 0.963214 0.932861 -0.226268
O138  O     O_R   0.916503 0.935297 0.968448 -0.300338
N94   N     N_R   0.040749 0.895630 0.959830 0.177327
O139  O     O_R   0.036775 0.890273 0.932858 -0.226268
O140  O     O_R   0.064698 0.916502 0.968442 -0.300327
N95   N     N_R   0.104369 0.040756 0.959833 0.177325
O141  O     O_R   0.109726 0.036786 0.932861 -0.226268
O142  O     O_R   0.083497 0.064703 0.968448 -0.300339
N96   N     N_R   0.959251 0.104370 0.959830 0.177327
O143  O     O_R   0.963225 0.109727 0.932858 -0.226268
O144  O     O_R   0.935302 0.083498 0.968442 -0.300327
N97   N     N_R   0.395634 0.540757 0.540167 0.177326
O145  O     O_R   0.390276 0.536788 0.567139 -0.226266
O146  O     O_R   0.416507 0.564704 0.531552 -0.300338
N98   N     N_R   0.540753 0.604369 0.540168 0.177326
O147  O     O_R   0.536781 0.609726 0.567141 -0.226264
O148  O     O_R   0.564701 0.583498 0.531555 -0.300328
N99   N     N_R   0.604366 0.459242 0.540166 0.177326
O149  O     O_R   0.609723 0.463212 0.567139 -0.226265
O150  O     O_R   0.583493 0.435296 0.531552 -0.300338
N100  N     N_R   0.459247 0.395630 0.540169 0.177326
O151  O     O_R   0.463219 0.390274 0.567141 -0.226264
O152  O     O_R   0.435299 0.416502 0.531555 -0.300328
N101  N     N_R   0.395630 0.459245 0.459834 0.177326
O153  O     O_R   0.390272 0.463214 0.432861 -0.226193
O154  O     O_R   0.416502 0.435298 0.468448 -0.300327
N102  N     N_R   0.540753 0.395633 0.459831 0.177332
O155  O     O_R   0.536781 0.390276 0.432859 -0.226221
O156  O     O_R   0.564701 0.416505 0.468445 -0.300316
N103  N     N_R   0.604370 0.540755 0.459833 0.177326
O157  O     O_R   0.609728 0.536785 0.432861 -0.226191
O158  O     O_R   0.583498 0.564702 0.468448 -0.300328
N104  N     N_R   0.459246 0.604367 0.459831 0.177331
O159  O     O_R   0.463218 0.609724 0.432859 -0.226221
O160  O     O_R   0.435299 0.583495 0.468445 -0.300316

loop_
_geom_bond_atom_site_label_1
_geom_bond_atom_site_label_2
_geom_bond_distance
_ccdc_geom_bond_type
C210  N98   1.436346 S    
N59   H53   1.045679 S    
C188  C228  1.413610 A    
C208  C218  1.413756 A    
N43   O70   1.300956 A    
O25   C13   1.294089 A    
N101  O153  1.301114 A    
C215  N103  1.436347 S    
N71   H77   1.045680 S    
C156  C180  1.476782 S    
C79   C95   1.396404 A    
N95   O141  1.301115 A    
N66   H67   1.045676 S    
C134  C150  1.403692 A    
C99   H27   1.082958 S    
C204  C220  1.413760 A    
C97   H25   1.082963 S    
C138  H34   1.083310 S    
C144  C154  1.399998 A    
O31   C15   1.294000 A    
N46   O75   1.300776 A    
C101  C111  1.405409 A    
C136  C152  1.403692 A    
O18   Cu2   1.952399 S    
N60   H56   1.045728 S    
N75   O102  1.301251 A    
O10   Cu6   1.953853 S    
N96   O144  1.301198 A    
C209  C221  1.413762 A    
C160  C184  1.476782 S    
O32   C16   1.294005 A    
O1    Cu1   1.953857 S    
O11   C7    1.295019 A    
C138  C154  1.399999 A    
C5    C165  1.484641 S    
O24   Cu4   1.952394 S    
Cu11  O59   1.948005 S    
N83   O117  1.301165 A    
C47   C55   1.417799 A    
N82   O115  1.301166 A    
Cu1   Cu3   2.664902 S    
C194  C230  1.413609 A    
Cu2   Cu4   2.664924 S    
C17   C35   1.415469 A    
C75   C91   1.396404 A    
N100  O151  1.301114 A    
C170  C226  1.481217 S    
C150  C160  1.399997 A    
C80   H8    1.082853 S    
C19   N1    1.366009 A    
C124  N60   1.438304 S    
C100  H28   1.082977 S    
C44   C54   1.417803 A    
C32   C46   1.415464 A    
C74   H2    1.082838 S    
N49   O82   1.300975 A    
N40   C174  1.357526 A    
C69   N53   1.433102 S    
C23   C37   1.415469 A    
Cu10  O53   1.948006 S    
N44   O72   1.300956 A    
C142  H38   1.083310 S    
C77   C115  1.402856 A    
Cu11  O60   1.948021 S    
C195  C231  1.413611 A    
O14   C8    1.295019 A    
C78   H6    1.082853 S    
C48   C72   1.417164 A    
C131  C147  1.403699 A    
C41   C65   1.417179 A    
C18   O34   1.348502 S    
N14   N30   1.331155 A    
C206  N94   1.436345 S    
C146  C158  1.399998 A    
N31   C171  1.357526 A    
N47   O78   1.300960 A    
C129  N65   1.438305 S    
C22   O38   1.348504 S    
C63   N47   1.433100 S    
C47   C71   1.417159 A    
C22   C40   1.415510 A    
C202  C218  1.413761 A    
C135  C167  1.417422 A    
C121  C137  1.403695 A    
C211  C223  1.413756 A    
N55   O94   1.300954 A    
C83   C117  1.402772 A    
C98   H26   1.082979 S    
C132  C148  1.403692 A    
C25   O41   1.348555 S    
C128  C144  1.403689 A    
C129  C165  1.417427 A    
N4    C117  1.442224 S    
C16   C112  1.475478 S    
N72   H79   1.045676 S    
C73   H1    1.082841 S    
C44   C68   1.417154 A    
C198  C214  1.408631 A    
C76   H4    1.082839 S    
C77   H5    1.082838 S    
N50   O83   1.300775 A    
C197  C229  1.413607 A    
C71   N55   1.433103 S    
O26   Cu6   1.952399 S    
O7    C3    1.295017 A    
C48   C56   1.417801 A    
C139  H35   1.083309 S    
C87   C119  1.402864 A    
C57   C70   1.402181 A    
C147  C159  1.399997 A    
O27   C13   1.294086 A    
C151  H47   1.083311 S    
C59   C72   1.402181 A    
N74   O99   1.301163 A    
C79   C115  1.402858 A    
C137  H33   1.083312 S    
C25   C43   1.415509 A    
N17   C181  1.357851 A    
N92   O135  1.301113 A    
C153  C177  1.476794 S    
C38   C62   1.417181 A    
C203  N91   1.436345 S    
C64   N48   1.433139 S    
N78   O107  1.301167 A    
C29   C47   1.415464 A    
N35   C175  1.357525 A    
C31   C45   1.415469 A    
C130  C166  1.417412 A    
C197  N85   1.436439 S    
C93   C107  1.405412 A    
C128  C162  1.417411 A    
N98   O147  1.301109 A    
N89   O130  1.301198 A    
C123  C139  1.403695 A    
N41   O65   1.300777 A    
O9    C5    1.295019 A    
N64   H63   1.045674 S    
C81   H9    1.082835 S    
N24   N40   1.331151 A    
C87   H15   1.082836 S    
C98   C110  1.405395 A    
C185  C201  1.408635 A    
C102  C112  1.405406 A    
C42   C66   1.417162 A    
N68   H71   1.045678 S    
C59   N43   1.433107 S    
C90   C106  1.405405 A    
C82   C118  1.402873 A    
N81   O114  1.301253 A    
C83   C99   1.396439 A    
C39   C63   1.417163 A    
N65   H66   1.045718 S    
N104  O159  1.301114 A    
C30   O46   1.348509 S    
C70   N54   1.433106 S    
N84   O119  1.301165 A    
O5    Cu3   1.953864 S    
Cu11  O58   1.948018 S    
C123  N59   1.438306 S    
Cu9   O49   1.948002 S    
N13   N29   1.331154 A    
C72   N56   1.433104 S    
N5    C116  1.442370 S    
C148  H44   1.083309 S    
N15   C179  1.357850 A    
N56   O96   1.300956 A    
C99   C109  1.405524 A    
C103  C111  1.405408 A    
C191  N79   1.436441 S    
C144  H40   1.083311 S    
C190  C228  1.413611 A    
C101  H29   1.082977 S    
C176  C232  1.481205 S    
C31   N7    1.366012 A    
Cu12  O62   1.948017 S    
N49   O81   1.300778 A    
N59   H54   1.045722 S    
C188  N76   1.436440 S    
N26   C170  1.357527 A    
C58   N42   1.433106 S    
C131  C167  1.417425 A    
N83   O118  1.301250 A    
N102  O156  1.301196 A    
C185  C225  1.413613 A    
N63   H62   1.045724 S    
C126  C142  1.403693 A    
C123  C163  1.417420 A    
C124  C164  1.417409 A    
C189  C225  1.413612 A    
C82   C98   1.396405 A    
N57   H50   1.045723 S    
C85   C119  1.402861 A    
C17   N1    1.366013 A    
C42   C54   1.417800 A    
N76   O104  1.301253 A    
C21   C39   1.415468 A    
C212  C224  1.413757 A    
C126  N62   1.438305 S    
N67   H69   1.045678 S    
C43   C67   1.417181 A    
N58   H51   1.045675 S    
C104  H32   1.082976 S    
O17   Cu1   1.952399 S    
C174  C230  1.481205 S    
O28   C14   1.293999 A    
O26   C14   1.294000 A    
O29   C15   1.294003 A    
O8    Cu4   1.953846 S    
O30   C16   1.294004 A    
C129  C145  1.403699 A    
N90   O132  1.301197 A    
C158  C182  1.476782 S    
C61   N45   1.433110 S    
N73   O97   1.301162 A    
C190  C206  1.408635 A    
C45   C69   1.417158 A    
C43   C53   1.417821 A    
N45   O74   1.300954 A    
O19   Cu3   1.952399 S    
N9    C177  1.357851 A    
C24   N4    1.365938 A    
O58   C238  1.293073 A    
C33   C57   1.417162 A    
C140  H36   1.083313 S    
Cu10  O56   1.948021 S    
C84   H12   1.082838 S    
C199  C215  1.408636 A    
C85   H13   1.082838 S    
C6    C166  1.484613 S    
C80   C116  1.402941 A    
C26   C44   1.415469 A    
N93   O138  1.301200 A    
N21   C181  1.357849 A    
Cu9   O51   1.948005 S    
N20   C184  1.357845 A    
N9    N25   1.331158 A    
N54   O91   1.300775 A    
N77   O106  1.301254 A    
O4    C4    1.295015 A    
C30   C48   1.415464 A    
O16   Cu8   1.953846 S    
C37   C51   1.417798 A    
N69   H74   1.045723 S    
C28   C42   1.415464 A    
N87   O125  1.301165 A    
C75   H3    1.082836 S    
C80   C96   1.396441 A    
C94   C108  1.405256 A    
Cu9   Cu10  2.662272 S    
C78   C116  1.402937 A    
O6    Cu2   1.953842 S    
C92   C106  1.405399 A    
C124  C140  1.403695 A    
C61   C66   1.402187 A    
C209  N97   1.436346 S    
C195  C211  1.408639 A    
C134  C168  1.417420 A    
C10   C106  1.475464 S    
C60   N44   1.433104 S    
C193  C209  1.408635 A    
Cu12  O64   1.948021 S    
O21   Cu3   1.952394 S    
C136  N72   1.438306 S    
C14   C110  1.475445 S    
O63   C237  1.293069 A    
C86   C120  1.402863 A    
C93   H21   1.082977 S    
C73   C89   1.396400 A    
C4    C164  1.484602 S    
N66   H68   1.045724 S    
N6    C115  1.442304 S    
C224  C239  1.480672 S    
C137  C153  1.399997 A    
C87   C103  1.396404 A    
N8    C113  1.442309 S    
C194  N82   1.436441 S    
C7    C167  1.484641 S    
N85   O122  1.301254 A    
O12   C8    1.295020 A    
C205  N93   1.436346 S    
C172  C228  1.481217 S    
N46   O76   1.300987 A    
C130  N66   1.438304 S    
C32   N8    1.366013 A    
C203  C219  1.413757 A    
O13   C5    1.295021 A    
C46   C70   1.417162 A    
C134  N70   1.438305 S    
N50   O84   1.300956 A    
C52   C53   1.421524 A    
N61   H58   1.045722 S    
C141  C153  1.399997 A    
C185  N73   1.436441 S    
C34   C58   1.417163 A    
C18   C36   1.415469 A    
C95   H23   1.082974 S    
C147  H43   1.083311 S    
C29   N7    1.366018 A    
N80   O111  1.301163 A    
C46   C56   1.417799 A    
O29   Cu7   1.952394 S    
N62   H59   1.045677 S    
N82   O116  1.301252 A    
N93   O137  1.301111 A    
C12   C108  1.475100 S    
C62   N46   1.433149 S    
N100  O152  1.301196 A    
N51   O86   1.300975 A    
C133  C165  1.417421 A    
C196  N84   1.436440 S    
C1    C161  1.484633 S    
O56   C236  1.293073 A    
C3    C163  1.484633 S    
C31   O47   1.348510 S    
Cu10  O54   1.948017 S    
C34   C50   1.417799 A    
C96   C108  1.405259 A    
C199  N87   1.436442 S    
C196  C232  1.413609 A    
C22   N4    1.365936 A    
N22   N38   1.331151 A    
C133  C149  1.403696 A    
C86   C102  1.396400 A    
O10   C6    1.295020 A    
C82   H10   1.082839 S    
C223  C238  1.480680 S    
O18   C10   1.294005 A    
C211  N99   1.436349 S    
C15   C111  1.475478 S    
O15   Cu5   1.953868 S    
C221  C240  1.480676 S    
C213  C221  1.413757 A    
N86   O123  1.301160 A    
C28   N6    1.366008 A    
C37   C61   1.417162 A    
N53   O90   1.300958 A    
O5    C1    1.295017 A    
N48   O79   1.300776 A    
C125  C141  1.403699 A    
C50   C55   1.421491 A    
N30   C172  1.357526 A    
N70   H75   1.045679 S    
C65   N49   1.433118 S    
N88   O127  1.301162 A    
C28   O44   1.348517 S    
N52   O87   1.300775 A    
C219  C234  1.480684 S    
C88   H16   1.082838 S    
C207  N95   1.436344 S    
C152  H48   1.083310 S    
N7    C114  1.442313 S    
C125  C161  1.417418 A    
O32   Cu8   1.952394 S    
C27   N5    1.366004 A    
N72   H80   1.045722 S    
C18   N2    1.366012 A    
C193  C229  1.413611 A    
C63   C68   1.402185 A    
N19   C183  1.357851 A    
C38   C52   1.417827 A    
C146  H42   1.083311 S    
N13   C177  1.357850 A    
N17   N33   1.331154 A    
N11   C179  1.357851 A    
O22   Cu2   1.952395 S    
C145  H41   1.083308 S    
C84   C100  1.396405 A    
C199  C231  1.413608 A    
O21   C11   1.294004 A    
C85   C101  1.396400 A    
N101  O154  1.301199 A    
C60   C71   1.402186 A    
O22   C12   1.293911 A    
C198  C232  1.413610 A    
O23   Cu1   1.952395 S    
C24   C38   1.415517 A    
C196  C212  1.408632 A    
N74   O100  1.301253 A    
C19   O35   1.348507 S    
C26   N6    1.366002 A    
N92   O136  1.301198 A    
C191  C207  1.408640 A    
C206  C220  1.413755 A    
C188  C204  1.408633 A    
C190  N78   1.436438 S    
N55   O93   1.300778 A    
C192  C208  1.408635 A    
N75   O101  1.301162 A    
C25   N5    1.365999 A    
C150  H46   1.083308 S    
N78   O108  1.301250 A    
N37   C173  1.357528 A    
O3    Cu3   1.953861 S    
N60   H55   1.045677 S    
N96   O143  1.301112 A    
N36   C176  1.357524 A    
C169  C225  1.481217 S    
C198  N86   1.436442 S    
C67   N51   1.433127 S    
N99   O149  1.301110 A    
N1    C120  1.442313 S    
C68   N52   1.433109 S    
N94   O140  1.301199 A    
C142  C156  1.399999 A    
C216  N104  1.436346 S    
N91   O133  1.301111 A    
C136  C166  1.417419 A    
N65   H65   1.045680 S    
O28   Cu8   1.952400 S    
C171  C227  1.481217 S    
N64   H64   1.045723 S    
Cu11  Cu12  2.662272 S    
O30   Cu6   1.952395 S    
C207  C219  1.413760 A    
C90   H18   1.082975 S    
C201  N89   1.436348 S    
C143  H39   1.083311 S    
N68   H72   1.045722 S    
O52   C236  1.293075 A    
C40   C52   1.417829 A    
C193  N81   1.436441 S    
C94   H22   1.083036 S    
N67   H70   1.045718 S    
O59   C239  1.293074 A    
N95   O142  1.301197 A    
C58   C69   1.402181 A    
N15   N31   1.331154 A    
N44   O71   1.300775 A    
N84   O120  1.301251 A    
Cu11  O57   1.948002 S    
O57   C237  1.293074 A    
C9    C105  1.475474 S    
O11   Cu7   1.953861 S    
N18   C182  1.357849 A    
N79   O110  1.301253 A    
C74   C114  1.402867 A    
C13   C109  1.475814 S    
C186  C226  1.413611 A    
O55   C233  1.293071 A    
N22   C184  1.357849 A    
N10   N26   1.331155 A    
C19   C33   1.415469 A    
C222  C237  1.480672 S    
C143  C155  1.399995 A    
C175  C231  1.481213 S    
C208  N96   1.436345 S    
C79   H7    1.082835 S    
N34   C174  1.357524 A    
C139  C155  1.400001 A    
C189  C205  1.408636 A    
O6    C4    1.295013 A    
C213  N101  1.436344 S    
C104  C112  1.405406 A    
C89   H17   1.082974 S    
C66   N50   1.433106 S    
C95   C107  1.405416 A    
N27   C171  1.357526 A    
O31   Cu5   1.952395 S    
C133  N69   1.438303 S    
C186  C202  1.408633 A    
C152  C158  1.399996 A    
C159  C183  1.476794 S    
C36   C60   1.417157 A    
O50   C234  1.293073 A    
C217  C236  1.480684 S    
O8    C2    1.295013 A    
C49   C56   1.421486 A    
C96   H24   1.083038 S    
C191  C227  1.413611 A    
C89   C105  1.405405 A    
C40   C64   1.417176 A    
C51   C54   1.421486 A    
C81   C117  1.402774 A    
N42   O67   1.300775 A    
N58   H52   1.045728 S    
C35   C49   1.417799 A    
C197  C213  1.408639 A    
N43   O69   1.300781 A    
C33   C49   1.417796 A    
C83   H11   1.082833 S    
C127  C163  1.417420 A    
C92   H20   1.082980 S    
N98   O148  1.301199 A    
O13   Cu7   1.953864 S    
C86   H14   1.082840 S    
C74   C90   1.396400 A    
O23   C11   1.294008 A    
C121  C161  1.417425 A    
C102  H30   1.082975 S    
C135  C151  1.403695 A    
N63   H61   1.045678 S    
O16   C6    1.295019 A    
N45   O73   1.300779 A    
C128  N64   1.438307 S    
N79   O109  1.301164 A    
C78   C94   1.396436 A    
O17   C9    1.294000 A    
C21   N3    1.366015 A    
C97   C109  1.405523 A    
N89   O129  1.301111 A    
C125  N61   1.438304 S    
O4    Cu4   1.953849 S    
C210  C222  1.413755 A    
C220  C235  1.480680 S    
N54   O92   1.300956 A    
C41   C53   1.417821 A    
N25   C169  1.357526 A    
N28   C172  1.357527 A    
C151  C159  1.399993 A    
C148  C160  1.399997 A    
N41   O66   1.300960 A    
C127  C143  1.403699 A    
C32   O48   1.348507 S    
C130  C146  1.403692 A    
C202  N90   1.436344 S    
C27   C41   1.415503 A    
C205  C217  1.413759 A    
C145  C157  1.399995 A    
N77   O105  1.301164 A    
C216  C222  1.413757 A    
C20   N2    1.366011 A    
C20   O36   1.348506 S    
N39   C175  1.357529 A    
C2    C162  1.484602 S    
C20   C34   1.415464 A    
C200  C216  1.408631 A    
N19   N35   1.331154 A    
C8    C168  1.484613 S    
O49   C233  1.293076 A    
C24   O40   1.348499 S    
C187  C227  1.413610 A    
N2    C119  1.442304 S    
C154  C178  1.476782 S    
C186  N74   1.436439 S    
N87   O126  1.301255 A    
C173  C229  1.481213 S    
Cu9   O50   1.948018 S    
C88   C104  1.396400 A    
O2    Cu2   1.953853 S    
N69   H73   1.045680 S    
C132  N68   1.438301 S    
N16   N32   1.331155 A    
C76   C114  1.402865 A    
O64   C240  1.293073 A    
O15   C7    1.295021 A    
N56   O95   1.300777 A    
C76   C92   1.396400 A    
N11   N27   1.331158 A    
C157  C181  1.476794 S    
N12   N28   1.331155 A    
N97   O145  1.301109 A    
C195  N83   1.436439 S    
C204  N92   1.436346 S    
C100  C110  1.405393 A    
C189  N77   1.436443 S    
N10   C178  1.357849 A    
N16   C178  1.357849 A    
Cu12  O61   1.948006 S    
C39   C51   1.417797 A    
Cu5   Cu7   2.664902 S    
O25   Cu5   1.952399 S    
N104  O160  1.301195 A    
Cu6   Cu8   2.664924 S    
N29   C169  1.357526 A    
O27   Cu7   1.952399 S    
N102  O155  1.301111 A    
O7    Cu1   1.953868 S    
C214  N102  1.436348 S    
N47   O77   1.300774 A    
N103  O158  1.301199 A    
O51   C235  1.293075 A    
N3    C118  1.442313 S    
N20   N36   1.331151 A    
N85   O121  1.301165 A    
C141  H37   1.083308 S    
C131  N67   1.438304 S    
C122  C138  1.403699 A    
C103  H31   1.082975 S    
N103  O157  1.301109 A    
C214  C224  1.413758 A    
N99   O150  1.301197 A    
N23   C183  1.357853 A    
C91   C105  1.405405 A    
C218  C233  1.480680 S    
N24   C182  1.357845 A    
C187  C203  1.408639 A    
N76   O103  1.301167 A    
C192  N80   1.436438 S    
C200  C230  1.413611 A    
O19   C9    1.293998 A    
C121  N57   1.438302 S    
N18   N34   1.331151 A    
C215  C223  1.413758 A    
O3    C3    1.295016 A    
N61   H57   1.045680 S    
O24   C12   1.293912 A    
N71   H78   1.045722 S    
C30   N8    1.366013 A    
C126  C164  1.417408 A    
C132  C168  1.417416 A    
N91   O134  1.301198 A    
C62   C65   1.402246 A    
O12   Cu8   1.953849 S    
N80   O112  1.301250 A    
N90   O131  1.301113 A    
O14   Cu6   1.953842 S    
N62   H60   1.045721 S    
N73   O98   1.301251 A    
C135  N71   1.438300 S    
C11   C107  1.475497 S    
C149  C157  1.399994 A    
C122  C162  1.417407 A    
C149  H45   1.083308 S    
C81   C97   1.396448 A    
C194  C210  1.408632 A    
N14   C180  1.357846 A    
N33   C173  1.357526 A    
N94   O139  1.301112 A    
C23   N3    1.366014 A    
N38   C176  1.357526 A    
C75   C113  1.402864 A    
C29   O45   1.348509 S    
C73   C113  1.402867 A    
Cu10  O55   1.948002 S    
C187  N75   1.436441 S    
O61   C239  1.293070 A    
C27   O43   1.348553 S    
N42   O68   1.300958 A    
O2    C2    1.295015 A    
N97   O146  1.301197 A    
O53   C235  1.293072 A    
N23   N39   1.331154 A    
C155  C179  1.476794 S    
C122  N58   1.438305 S    
C91   H19   1.082976 S    
C36   C50   1.417796 A    
C140  C156  1.399998 A    
N86   O124  1.301251 A    
N21   N37   1.331154 A    
N32   C170  1.357525 A    
C57   N41   1.433104 S    
O20   Cu4   1.952400 S    
N53   O89   1.300778 A    
C84   C118  1.402870 A    
O62   C238  1.293075 A    
C88   C120  1.402864 A    
O20   C10   1.294004 A    
C35   C59   1.417162 A    
N88   O128  1.301254 A    
Cu9   O52   1.948021 S    
N57   H49   1.045676 S    
O54   C234  1.293075 A    
N48   O80   1.300982 A    
N52   O88   1.300952 A    
N12   C180  1.357850 A    
C17   O33   1.348505 S    
N51   O85   1.300778 A    
C77   C93   1.396400 A    
O9    Cu5   1.953857 S    
O1    C1    1.295016 A    
C192  C226  1.413613 A    
C200  N88   1.436442 S    
N70   H76   1.045722 S    
C127  N63   1.438304 S    
C21   O37   1.348508 S    
O60   C240  1.293075 A    
N81   O113  1.301162 A    
C212  N100  1.436349 S    
C64   C67   1.402246 A    
C23   O39   1.348505 S    
Cu12  O63   1.948002 S    
C201  C217  1.413758 A    
C45   C55   1.417795 A    
C26   O42   1.348515 S    
