data_mof_unit_42794.cif
_audit_creation_date              2013-03-05T15:45:46-0500
_audit_creation_method            fapswitch 2.2
_symmetry_space_group_name_H-M    P1
_symmetry_Int_Tables_number       1
_space_group_crystal_system       triclinic
_cell_length_a                    19.083998
_cell_length_b                    10.952349
_cell_length_c                    18.805381
_cell_angle_alpha                 90.289306
_cell_angle_beta                  90.762796
_cell_angle_gamma                 90.08297
_cell_volume                      3930.19636007

loop_
_atom_site_label
_atom_site_type_symbol
_atom_site_description
_atom_site_fract_x
_atom_site_fract_y
_atom_site_fract_z
_atom_type_partial_charge
O1    O     O_R   0.214270 0.709000 0.827470 -0.532377
O2    O     O_R   0.785730 0.709000 0.172530 -0.517936
O3    O     O_R   0.714270 0.209000 0.827470 -0.532376
O4    O     O_R   0.285730 0.209000 0.172530 -0.517881
O5    O     O_R   0.236160 0.958490 0.823130 -0.495843
O6    O     O_R   0.763840 0.958490 0.176870 -0.478577
O7    O     O_R   0.736160 0.458490 0.823130 -0.495857
O8    O     O_R   0.263840 0.458490 0.176870 -0.478544
C1    C     C_R   0.273194 0.040514 0.854398 0.587373
C2    C     C_R   0.728159 0.043788 0.147152 0.584594
C3    C     C_R   0.773192 0.540516 0.854397 0.587314
C4    C     C_R   0.228158 0.543783 0.147150 0.584646
O9    O     O_R   0.332080 0.075470 0.831280 -0.517787
O10   O     O_R   0.667920 0.075470 0.168720 -0.524802
O11   O     O_R   0.832080 0.575470 0.831280 -0.517766
O12   O     O_R   0.167920 0.575470 0.168720 -0.525039
O13   O     O_R   0.446300 0.918110 0.826620 -0.473448
O14   O     O_R   0.553700 0.918110 0.173380 -0.459241
O15   O     O_R   0.946300 0.418110 0.826620 -0.473442
O16   O     O_R   0.053700 0.418110 0.173380 -0.459086
C5    C     C_R   0.469302 0.821663 0.855769 0.616168
C6    C     C_R   0.562001 0.817231 0.137647 0.605925
C7    C     C_R   0.969281 0.321655 0.855778 0.616188
C8    C     C_R   0.062004 0.317235 0.137648 0.606018
O17   O     O_R   0.457110 0.716200 0.831760 -0.514573
O18   O     O_R   0.542890 0.716200 0.168240 -0.498993
O19   O     O_R   0.957110 0.216200 0.831760 -0.514606
O20   O     O_R   0.042890 0.216200 0.168240 -0.499007
O21   O     O_R   0.320980 0.624310 0.823030 -0.502728
O22   O     O_R   0.679020 0.624310 0.176970 -0.521633
O23   O     O_R   0.820980 0.124310 0.823030 -0.502776
O24   O     O_R   0.179020 0.124310 0.176970 -0.521668
C9    C     C_R   0.262292 0.642217 0.853769 0.597777
C10   C     C_R   0.739263 0.636041 0.148374 0.581151
C11   C     C_R   0.762293 0.142223 0.853771 0.597826
C12   C     C_R   0.239265 0.136039 0.148375 0.581223
O25   O     O_R   0.213890 0.710430 0.665540 -0.465631
O26   O     O_R   0.786110 0.710430 0.334460 -0.502194
O27   O     O_R   0.713890 0.210430 0.665540 -0.465798
O28   O     O_R   0.286110 0.210430 0.334460 -0.502132
O29   O     O_R   0.235810 0.959820 0.673020 -0.448064
O30   O     O_R   0.764190 0.959820 0.326980 -0.456149
O31   O     O_R   0.735810 0.459820 0.673020 -0.448017
O32   O     O_R   0.264190 0.459820 0.326980 -0.456089
C13   C     C_R   0.270748 0.044606 0.646087 0.550894
C14   C     C_R   0.725433 0.038835 0.356843 0.577127
C15   C     C_R   0.770744 0.544613 0.646090 0.550912
C16   C     C_R   0.225419 0.538814 0.356840 0.577349
O33   O     O_R   0.331700 0.076900 0.669350 -0.526647
O34   O     O_R   0.668300 0.076900 0.330650 -0.525666
O35   O     O_R   0.831700 0.576900 0.669350 -0.526657
O36   O     O_R   0.168300 0.576900 0.330650 -0.525556
O37   O     O_R   0.445950 0.919440 0.676520 -0.510069
O38   O     O_R   0.554050 0.919440 0.323480 -0.512923
O39   O     O_R   0.945950 0.419440 0.676520 -0.510084
O40   O     O_R   0.054050 0.419440 0.323480 -0.512850
C17   C     C_R   0.471605 0.823603 0.647968 0.560762
C18   C     C_R   0.531159 0.822655 0.354167 0.576377
C19   C     C_R   0.971602 0.323605 0.647967 0.560811
C20   C     C_R   0.031157 0.322651 0.354166 0.576190
O41   O     O_R   0.456730 0.717630 0.669840 -0.483184
O42   O     O_R   0.543270 0.717630 0.330160 -0.459241
O43   O     O_R   0.956730 0.217630 0.669840 -0.483102
O44   O     O_R   0.043270 0.217630 0.330160 -0.459323
O45   O     O_R   0.320620 0.625640 0.672920 -0.520073
O46   O     O_R   0.679380 0.625640 0.327080 -0.505903
O47   O     O_R   0.820620 0.125640 0.672920 -0.519994
O48   O     O_R   0.179380 0.125640 0.327080 -0.505893
C21   C     C_R   0.259537 0.632754 0.645463 0.551335
C22   C     C_R   0.739281 0.641365 0.357506 0.544412
C23   C     C_R   0.759522 0.132718 0.645479 0.551371
C24   C     C_R   0.239278 0.141381 0.357508 0.544431
Cr1   Cr    Cr6+3 0.229630 0.835900 0.747350 1.105752
Cr2   Cr    Cr6+3 0.770370 0.835900 0.252650 1.096900
Cr3   Cr    Cr6+3 0.729630 0.335900 0.747350 1.105702
Cr4   Cr    Cr6+3 0.270370 0.335900 0.252650 1.097023
Cr5   Cr    Cr6+3 0.387410 0.989850 0.750850 1.071857
Cr6   Cr    Cr6+3 0.612590 0.989850 0.249150 1.071575
Cr7   Cr    Cr6+3 0.887410 0.489850 0.750850 1.071927
Cr8   Cr    Cr6+3 0.112590 0.489850 0.249150 1.071502
Cr9   Cr    Cr6+3 0.385800 0.677120 0.749340 1.068947
Cr10  Cr    Cr6+3 0.614200 0.677120 0.250660 1.078085
Cr11  Cr    Cr6+3 0.885800 0.177120 0.749340 1.068975
Cr12  Cr    Cr6+3 0.114200 0.177120 0.250660 1.078025
O49   O     O_3   0.334280 0.834290 0.749180 -0.273045
O50   O     O_3   0.665720 0.834290 0.250820 -0.309165
O51   O     O_3   0.834280 0.334290 0.749180 -0.273057
O52   O     O_3   0.165720 0.334290 0.250820 -0.309230
C25   C     C_3   0.494365 0.927796 0.029181 0.021002
C26   C     C_3   0.541186 0.929953 0.962621 0.010028
C27   C     C_3   0.994379 0.427821 0.029168 0.021030
C28   C     C_3   0.041195 0.429927 0.962598 0.009988
C29   C     C_3   0.448800 0.827969 0.994423 0.025471
C30   C     C_3   0.587968 0.829932 0.995624 0.008815
C31   C     C_3   0.948804 0.327989 0.994429 0.025472
C32   C     C_3   0.087968 0.329902 0.995619 0.008719
C33   C     C_3   0.495981 0.829418 0.928773 -0.015081
C34   C     C_3   0.540908 0.826733 0.061900 -0.023447
C35   C     C_3   0.995977 0.329395 0.928775 -0.015011
C36   C     C_3   0.040914 0.326757 0.061902 -0.023489
C37   C     C_3   0.542534 0.729075 0.960937 -0.163855
C38   C     C_3   0.494680 0.726842 0.026997 -0.149532
C39   C     C_3   0.042522 0.229049 0.960948 -0.163816
C40   C     C_3   0.994674 0.226864 0.027014 -0.149523
H1    H     H_    0.562431 0.647891 0.932016 0.148948
H2    H     H_    0.474490 0.642933 0.052611 0.158200
H3    H     H_    0.062407 0.147844 0.932037 0.148957
H4    H     H_    0.974472 0.142973 0.052638 0.158204
C41   C     C_R   0.308193 0.547558 0.966109 -0.122462
C42   C     C_R   0.695586 0.533951 0.037165 -0.153333
C43   C     C_R   0.808202 0.047585 0.966115 -0.122464
C44   C     C_R   0.195586 0.033964 0.037165 -0.153359
H5    H     H_    0.351665 0.506730 0.938269 0.121368
H6    H     H_    0.649167 0.500854 0.063426 0.130549
H7    H     H_    0.851675 0.006762 0.938276 0.121412
H8    H     H_    0.149160 0.000891 0.063423 0.130512
C45   C     C_R   0.303794 0.533822 0.039740 -0.071882
C46   C     C_R   0.700620 0.521534 0.963468 -0.115543
C47   C     C_R   0.803803 0.033849 0.039746 -0.071929
C48   C     C_R   0.200621 0.021546 0.963469 -0.115577
H9    H     H_    0.342001 0.477405 0.067099 0.138188
H10   H     H_    0.659745 0.473330 0.934319 0.127211
H11   H     H_    0.842012 0.977436 0.067106 0.138216
H12   H     H_    0.159738 0.973366 0.934317 0.127217
C49   C     C_R   0.247148 0.585395 0.076343 0.068651
C50   C     C_R   0.758767 0.570338 0.928273 0.076027
C51   C     C_R   0.747155 0.085416 0.076348 0.068530
C52   C     C_R   0.258776 0.070325 0.928277 0.076124
C53   C     C_R   0.198628 0.658035 0.039588 -0.140287
C54   C     C_R   0.811995 0.628689 0.967503 -0.109193
C55   C     C_R   0.698634 0.158055 0.039593 -0.140172
C56   C     C_R   0.312014 0.128644 0.967509 -0.109384
H13   H     H_    0.155297 0.701873 0.066171 0.163451
H14   H     H_    0.858101 0.666284 0.942654 0.159106
H15   H     H_    0.655302 0.201888 0.066176 0.163749
H16   H     H_    0.358129 0.166210 0.942664 0.158784
C57   C     C_R   0.203069 0.671349 0.967257 -0.079225
C58   C     C_R   0.807740 0.638514 0.039852 -0.053845
C59   C     C_R   0.703069 0.171354 0.967259 -0.079122
C60   C     C_R   0.307760 0.138470 0.039859 -0.053807
H17   H     H_    0.165242 0.730578 0.941606 0.173526
H18   H     H_    0.848526 0.690256 0.066755 0.167326
H19   H     H_    0.665232 0.230561 0.941606 0.173459
H20   H     H_    0.348566 0.190167 0.066764 0.167044
C61   C     C_R   0.255855 0.612326 0.929049 0.091784
C62   C     C_R   0.749437 0.593025 0.075754 0.070567
C63   C     C_R   0.755859 0.112339 0.929052 0.091803
C64   C     C_R   0.249443 0.093014 0.075757 0.070809
C65   C     C_R   0.517831 0.720113 0.542278 0.133490
C66   C     C_R   0.514981 0.715096 0.468468 0.159565
C67   C     C_R   0.017872 0.220139 0.542290 0.133669
C68   C     C_R   0.015026 0.215091 0.468478 0.159629
C69   C     C_R   0.509907 0.824998 0.428852 -0.002670
C70   C     C_R   0.501769 0.830517 0.577092 -0.017931
C71   C     C_R   0.009899 0.324978 0.428849 -0.002952
C72   C     C_R   0.001757 0.330530 0.577088 -0.018004
C73   C     C_R   0.500601 0.936295 0.464228 -0.188285
C74   C     C_R   0.494823 0.938730 0.537848 -0.180517
C75   C     C_R   0.000523 0.436267 0.464211 -0.188361
C76   C     C_R   0.994749 0.438717 0.537830 -0.180520
H21   H     H_    0.497168 0.020993 0.434907 0.162493
H22   H     H_    0.482286 0.024388 0.563723 0.169602
H23   H     H_    0.997046 0.520949 0.434880 0.162629
H24   H     H_    0.982167 0.524363 0.563694 0.169719
C77   C     C_R   0.182792 0.568917 0.547278 -0.093174
C78   C     C_R   0.778196 0.701184 0.475994 -0.133803
C79   C     C_R   0.682732 0.069246 0.547256 -0.093234
C80   C     C_R   0.278164 0.201235 0.475999 -0.133883
H25   H     H_    0.136421 0.581991 0.579083 0.166350
H26   H     H_    0.802001 0.782794 0.455158 0.193286
H27   H     H_    0.636355 0.082655 0.579011 0.166708
H28   H     H_    0.301940 0.282877 0.455173 0.193182
C81   C     C_R   0.176202 0.562802 0.474328 -0.120321
C82   C     C_R   0.779267 0.684718 0.548154 -0.171828
C83   C     C_R   0.676194 0.063228 0.474301 -0.120306
C84   C     C_R   0.279243 0.184742 0.548158 -0.171883
H29   H     H_    0.124098 0.564639 0.451128 0.161867
H30   H     H_    0.807886 0.749176 0.581530 0.154357
H31   H     H_    0.624103 0.065458 0.451069 0.162138
H32   H     H_    0.307831 0.249220 0.581545 0.154313
C85   C     C_R   0.236127 0.557764 0.431806 0.017656
C86   C     C_R   0.747126 0.582105 0.576446 0.011868
C87   C     C_R   0.736147 0.057769 0.431827 0.017357
C88   C     C_R   0.247144 0.082078 0.576436 0.011884
C89   C     C_R   0.302696 0.545082 0.463159 0.168115
C90   C     C_R   0.707607 0.500489 0.531635 0.205667
C91   C     C_R   0.802668 0.044551 0.463257 0.167911
C92   C     C_R   0.207675 0.000420 0.531613 0.205646
C93   C     C_R   0.308786 0.551308 0.536329 -0.135077
C94   C     C_R   0.712889 0.513476 0.458601 -0.106801
C95   C     C_R   0.808688 0.050627 0.536447 -0.135116
C96   C     C_R   0.212937 0.013455 0.458585 -0.106707
H33   H     H_    0.360528 0.551368 0.559887 0.178335
H34   H     H_    0.687624 0.449163 0.422547 0.175526
H35   H     H_    0.860400 0.050158 0.560083 0.178638
H36   H     H_    0.187692 0.949129 0.422525 0.175557
C97   C     C_R   0.249523 0.573777 0.577585 -0.014967
C98   C     C_R   0.746720 0.613589 0.431249 -0.012754
C99   C     C_R   0.749445 0.073618 0.577635 -0.015307
C100  C     C_R   0.246719 0.113619 0.431247 -0.012693
C101  C     C_2   0.371112 0.831005 0.997649 0.567038
O53   O     O_2   0.336347 0.838060 0.943042 -0.547448
O54   O     O_R   0.339095 0.829507 0.063893 -0.657063
H37   H     H_    0.286724 0.841685 0.060343 0.329226
C102  C     C_2   0.665256 0.832940 0.990350 0.564925
O55   O     O_2   0.701230 0.836159 0.044197 -0.564650
O56   O     O_R   0.695621 0.832965 0.923203 -0.668842
H38   H     H_    0.748550 0.836287 0.925413 0.322782
C103  C     C_2   0.871118 0.331046 0.997684 0.566932
O57   O     O_2   0.836332 0.338069 0.943089 -0.547454
O58   O     O_R   0.839128 0.329608 0.063943 -0.657300
H39   H     H_    0.786750 0.341720 0.060410 0.329201
C104  C     C_2   0.165258 0.332893 0.990351 0.564891
O59   O     O_2   0.201227 0.336132 0.044201 -0.564701
O60   O     O_R   0.195630 0.332888 0.923207 -0.668757
H40   H     H_    0.248559 0.336232 0.925423 0.322788
N1    N     N_R   0.364082 0.526853 0.421616 0.081403
O61   O     O_R   0.403758 0.432501 0.433662 -0.324299
O62   O     O_R   0.377168 0.597862 0.368075 -0.311378
N2    N     N_R   0.662464 0.405062 0.557620 0.105172
O63   O     O_R   0.645396 0.314888 0.515703 -0.361445
O64   O     O_R   0.623710 0.423467 0.612961 -0.281924
N3    N     N_R   0.864080 0.025942 0.421794 0.081418
O65   O     O_R   0.904018 0.932127 0.434431 -0.324600
O66   O     O_R   0.877313 0.096652 0.368157 -0.311097
N4    N     N_R   0.162605 0.904886 0.557582 0.105187
O67   O     O_R   0.145694 0.814607 0.515683 -0.361196
O68   O     O_R   0.123750 0.923256 0.612849 -0.281797
C105  C     C_2   0.467771 0.033830 0.072169 0.600682
O69   O     O_2   0.485500 0.138031 0.058194 -0.513679
O70   O     O_R   0.425327 0.011387 0.130702 -0.638247
H41   H     H_    0.414869 0.088074 0.158984 0.333807
C106  C     C_2   0.562011 0.034800 0.916460 0.590317
O71   O     O_2   0.541572 0.138000 0.929416 -0.508198
O72   O     O_R   0.599948 0.011254 0.854924 -0.666301
H42   H     H_    0.603194 0.085311 0.823127 0.343694
C107  C     C_2   0.967703 0.533909 0.072064 0.600418
O73   O     O_2   0.984883 0.638246 0.057597 -0.514032
O74   O     O_R   0.925614 0.511482 0.130884 -0.637930
H43   H     H_    0.914947 0.588337 0.158940 0.333677
C108  C     C_2   0.062082 0.534668 0.916378 0.590424
O75   O     O_2   0.041686 0.637921 0.929256 -0.507888
O76   O     O_R   0.100031 0.510954 0.854870 -0.666288
H44   H     H_    0.103321 0.584941 0.823023 0.343696
N5    N     N_R   0.532912 0.612001 0.582513 -0.149049
O77   O     O_R   0.490666 0.518604 0.580570 -0.000008
O78   O     O_R   0.490667 0.518602 0.580568 -0.000008
N6    N     N_R   0.511965 0.598704 0.432927 -0.080369
O79   O     O_R   0.557653 0.513406 0.445386 -0.000025
O80   O     O_R   0.557651 0.513393 0.445381 -0.000025
N7    N     N_R   0.032992 0.112063 0.582540 -0.148989
O81   O     O_R   0.990719 0.018705 0.580685 -0.000040
O82   O     O_R   0.990725 0.018688 0.580694 -0.000040
N8    N     N_R   0.012071 0.098686 0.432940 -0.080080
O83   O     O_R   0.057692 0.013323 0.445502 -0.000108
O84   O     O_R   0.057711 0.013365 0.445529 -0.000108

loop_
_geom_bond_atom_site_label_1
_geom_bond_atom_site_label_2
_geom_bond_distance
_ccdc_geom_bond_type
O7    Cr3   1.955639 S    
C18   O42   1.256446 A    
C7    C35   1.459863 S    
O54   H37   1.009876 S    
O4    C12   1.270729 A    
O47   Cr11  1.967904 S    
C73   C74   1.390416 A    
C6    C34   1.479275 S    
O39   C19   1.277678 A    
O20   Cr12  2.095170 S    
C101  O53   1.217980 D    
C35   C39   1.535632 S    
N3    O65   1.301172 A    
C36   C40   1.542944 S    
C65   C70   1.408227 A    
C60   C64   1.401403 A    
C42   C46   1.396461 A    
C77   H25   1.083960 S    
N2    O64   1.299793 A    
O1    C9    1.270030 A    
N7    O81   1.301548 A    
C102  O55   1.216148 D    
C31   C40   1.537494 S    
O7    C3    1.278298 A    
C84   H32   1.084354 S    
C59   C63   1.401939 A    
C37   C38   1.551888 S    
C89   N1    1.430390 S    
C96   H36   1.083418 S    
C57   C61   1.401933 A    
O74   H43   1.013518 S    
C95   C99   1.401336 A    
C70   C74   1.404836 A    
C43   C63   1.405373 A    
C86   C90   1.432293 A    
C16   C85   1.435796 S    
C31   C35   1.537784 S    
N7    O82   1.301620 A    
O47   C23   1.271405 A    
C85   C89   1.400803 A    
C30   C34   1.546386 S    
C77   C81   1.377224 A    
O76   H44   1.012429 S    
C51   C55   1.399557 A    
C107  O74   1.398171 S    
O21   C9    1.282098 A    
O8    Cr4   1.965742 S    
O23   Cr11  1.958774 S    
C43   C47   1.397183 A    
C108  O75   1.220661 D    
O30   C14   1.272547 A    
C73   H21   1.083161 S    
O32   Cr4   1.948204 S    
C1    O9    1.269603 A    
O44   Cr12  2.076823 S    
N8    O84   1.298842 A    
C3    O11   1.269614 A    
C12   C64   1.457908 S    
O11   Cr7   2.076798 S    
C4    O12   1.272264 A    
C30   C37   1.540243 S    
O33   Cr5   2.088683 S    
C66   C69   1.421526 A    
C25   C105  1.504304 S    
C65   N5    1.435820 S    
O72   H42   1.012423 S    
O6    Cr2   1.965742 S    
C7    O19   1.258217 A    
C27   C36   1.545302 S    
O3    Cr3   2.078329 S    
C106  O71   1.220685 D    
Cr4   O52   1.997030 S    
C26   C33   1.528839 S    
C91   C95   1.380879 A    
O2    Cr2   2.068699 S    
C94   C98   1.377013 A    
C56   H16   1.083469 S    
Cr9   O49   1.983618 S    
O2    C10   1.270741 A    
C40   H4    1.110599 S    
C104  O60   1.396339 S    
O24   C12   1.282282 A    
O42   Cr10  2.076823 S    
C81   C85   1.405122 A    
C22   C98   1.426517 S    
C8    C36   1.479257 S    
N5    O77   1.301596 A    
Cr8   O52   1.984061 S    
C21   C97   1.438044 S    
C101  O54   1.394957 S    
C82   C86   1.391082 A    
C54   H14   1.083475 S    
C30   C102  1.479945 S    
C59   H19   1.081603 S    
C15   C86   1.441280 S    
O8    C4    1.282851 A    
O34   Cr6   2.080195 S    
Cr7   O51   1.981266 S    
N2    O63   1.298940 A    
N6    O80   1.298913 A    
C58   C62   1.401373 A    
C26   C30   1.541830 S    
C94   H34   1.083425 S    
C88   C92   1.432225 A    
C23   C99   1.438213 S    
C102  O56   1.396342 S    
C28   C32   1.541887 S    
C37   H1    1.110036 S    
O24   Cr12  1.955696 S    
O9    Cr5   2.076798 S    
O30   Cr2   1.948204 S    
C1    C52   1.455465 S    
C78   C82   1.369724 A    
O22   C10   1.282265 A    
C71   C75   1.398388 A    
O56   H38   1.011001 S    
O48   Cr12  1.973085 S    
C104  O59   1.216149 D    
C8    O20   1.303597 A    
C72   C76   1.404833 A    
C3    C50   1.455469 S    
C103  O57   1.217984 D    
C5    O17   1.258304 A    
C58   H18   1.080864 S    
C42   C62   1.405291 A    
C27   C28   1.547881 S    
C44   C48   1.396452 A    
O16   Cr8   1.963214 S    
O15   C7    1.268778 A    
C96   C100  1.376909 A    
C67   N7    1.435802 S    
C4    C49   1.459655 S    
C95   H35   1.076980 S    
N1    O61   1.300987 A    
C34   C38   1.542928 S    
C90   N2    1.444669 S    
C25   C29   1.534183 S    
O13   C5    1.268764 A    
C32   C104  1.479964 S    
O40   C20   1.288086 A    
C26   C106  1.499360 S    
O43   Cr11  2.079208 S    
O48   C24   1.282516 A    
O12   Cr8   2.082305 S    
C31   C103  1.485056 S    
C14   C87   1.436111 S    
C90   C94   1.386478 A    
O37   Cr5   1.956990 S    
O60   H40   1.011006 S    
C78   C98   1.402128 A    
O58   H39   1.009884 S    
O5    C1    1.278306 A    
C105  O69   1.220765 D    
C18   C69   1.467143 S    
C93   H33   1.076864 S    
C24   C100  1.426422 S    
O39   Cr7   1.956990 S    
O25   C21   1.277818 A    
C29   C33   1.537815 S    
O45   Cr9   1.967904 S    
C75   C76   1.390396 A    
C68   C71   1.421570 A    
O3    C11   1.270029 A    
C67   C68   1.389225 A    
C27   C107  1.504364 S    
C48   C52   1.405890 A    
C13   O33   1.285782 A    
C66   N6    1.437081 S    
N4    O67   1.298885 A    
C11   C63   1.461360 S    
C67   C72   1.408202 A    
Cr2   O50   1.997030 S    
O15   Cr7   1.970262 S    
C41   H5    1.082861 S    
C106  O72   1.396289 S    
Cr1   O49   1.997084 S    
C46   H10   1.082690 S    
C9    C61   1.461349 S    
C89   C93   1.380686 A    
C53   H13   1.083485 S    
C43   H7    1.082861 S    
Cr3   O51   1.997084 S    
O26   C22   1.253134 A    
O70   H41   1.013383 S    
O21   Cr9   1.958774 S    
C78   H26   1.079773 S    
N4    O68   1.299750 A    
N5    O78   1.301596 A    
C49   C53   1.399552 A    
C83   H31   1.080889 S    
C75   H23   1.083159 S    
C41   C45   1.397179 A    
C27   C31   1.534171 S    
N1    O62   1.301920 A    
C79   C99   1.389165 A    
C45   H9    1.082905 S    
C2    C51   1.459675 S    
C54   C58   1.367775 A    
C76   H24   1.083174 S    
C42   H6    1.082853 S    
C44   H8    1.082849 S    
C29   C101  1.485050 S    
N6    O79   1.298850 A    
C28   C108  1.499445 S    
O31   Cr3   1.957776 S    
O14   Cr6   1.963214 S    
O38   C18   1.288048 A    
C80   H28   1.079771 S    
C93   C97   1.401370 A    
C84   C88   1.391058 A    
C57   H17   1.081598 S    
C52   C56   1.399268 A    
O37   C17   1.277708 A    
O22   Cr10  1.955696 S    
O28   C24   1.253077 A    
O14   C6    1.301237 A    
C83   C87   1.405233 A    
C19   O43   1.266445 A    
C55   H15   1.083483 S    
C82   H30   1.084385 S    
C80   C100  1.402116 A    
Cr12  O52   1.981118 S    
O31   C15   1.255113 A    
C92   C96   1.386401 A    
O17   Cr9   2.091163 S    
Cr11  O51   1.983618 S    
O6    C2    1.282861 A    
C15   O35   1.285817 A    
C19   C72   1.461123 S    
N3    O66   1.301946 A    
C17   O41   1.266430 A    
C41   C61   1.405368 A    
C47   H11   1.082905 S    
C56   C60   1.367778 A    
O5    Cr1   1.955639 S    
C17   C70   1.461148 S    
C14   O34   1.262668 A    
O25   Cr1   2.076214 S    
O40   Cr8   1.961273 S    
O29   C13   1.255128 A    
C79   H27   1.084001 S    
C25   C34   1.545284 S    
C20   O44   1.256412 A    
C81   H29   1.080776 S    
O1    Cr1   2.078329 S    
N8    O83   1.298856 A    
C60   H20   1.080905 S    
C92   N4    1.444572 S    
C20   C71   1.467153 S    
C68   N8    1.437136 S    
C105  O70   1.397866 S    
O32   C16   1.272527 A    
Cr10  O50   1.981118 S    
C65   C66   1.389178 A    
O46   Cr10  1.973085 S    
C44   C64   1.405290 A    
O13   Cr5   1.970262 S    
C10   C62   1.457899 S    
Cr6   O50   1.984061 S    
O46   C22   1.282521 A    
C91   N3    1.430569 S    
Cr5   O49   1.981266 S    
O45   C21   1.271290 A    
C107  O73   1.221389 D    
C32   C36   1.546425 S    
O19   Cr11  2.091163 S    
C103  O58   1.394977 S    
O26   Cr2   2.087046 S    
C38   H2    1.110594 S    
C79   C83   1.377182 A    
O23   C11   1.282102 A    
O10   Cr6   2.082305 S    
C69   C73   1.398425 A    
O35   Cr7   2.088683 S    
O4    Cr4   2.068699 S    
C55   C59   1.372481 A    
C5    C33   1.459905 S    
C74   H22   1.083181 S    
O29   Cr1   1.957776 S    
O28   Cr4   2.087046 S    
C16   O36   1.262494 A    
C53   C57   1.372471 A    
C28   C35   1.528774 S    
C29   C38   1.537525 S    
O18   Cr10  2.095170 S    
O27   Cr3   2.076214 S    
C6    O18   1.303551 A    
C32   C39   1.540229 S    
C39   C40   1.551881 S    
O41   Cr9   2.079208 S    
C50   C54   1.399258 A    
C39   H3    1.110036 S    
C46   C50   1.405905 A    
C80   C84   1.369743 A    
C108  O76   1.396311 S    
C25   C26   1.547801 S    
O36   Cr8   2.080195 S    
C45   C49   1.406819 A    
O16   C8    1.301194 A    
C77   C97   1.389106 A    
C33   C37   1.535624 S    
C87   C91   1.401187 A    
C48   H12   1.082688 S    
C13   C88   1.441248 S    
C2    O10   1.272267 A    
O38   Cr6   1.961273 S    
O27   C23   1.277801 A    
C47   C51   1.406815 A    
