data_mof_unit_15262.cif
_audit_creation_date              2012-10-26T19:30:09-0400
_audit_creation_method            fapswitch 2.2
_symmetry_space_group_name_H-M    P1
_symmetry_Int_Tables_number       1
_space_group_crystal_system       triclinic
_cell_length_a                    15.835877
_cell_length_b                    10.625789
_cell_length_c                    9.45596
_cell_angle_alpha                 89.172935
_cell_angle_beta                  89.954152
_cell_angle_gamma                 90.540745
_cell_volume                      1590.90465701

loop_
_atom_site_label
_atom_site_type_symbol
_atom_type_description
_atom_site_fract_x
_atom_site_fract_y
_atom_site_fract_z
_atom_type_partial_charge
C1    C     C_R   0.499324 0.259634 0.500930 0.541288
C2    C     C_3   0.448902 0.416516 0.952634 0.165060
C3    C     C_3   0.477025 0.608413 0.947264 -0.027647
C4    C     C_3   0.522975 0.391587 0.052736 -0.027646
C5    C     C_3   0.574634 0.476002 0.949433 -0.039456
C6    C     C_3   0.425366 0.523997 0.050567 -0.039457
C7    C     C_R   0.339989 0.500068 0.500054 0.547624
C8    C     C_R   0.660011 0.499932 0.499946 0.547624
C9    C     C_3   0.971303 0.384209 0.469204 -0.101774
C10   C     C_3   0.028697 0.615791 0.530795 -0.101774
C11   C     C_3   0.028041 0.467322 0.371666 -0.099554
C12   C     C_R   0.500675 0.740366 0.499070 0.541287
C13   C     C_3   0.971959 0.532678 0.628334 -0.099554
C14   C     C_1   0.250163 0.500196 0.500243 -0.018941
C15   C     C_1   0.749837 0.499804 0.499757 -0.018941
C16   C     C_3   0.027514 0.417030 0.597696 -0.097600
C17   C     C_3   0.972486 0.582970 0.402304 -0.097600
C18   C     C_3   0.082702 0.500145 0.500161 0.051250
C19   C     C_3   0.917298 0.499855 0.499839 0.051250
C20   C     C_1   0.174492 0.500228 0.500297 -0.057935
C21   C     C_1   0.825508 0.499772 0.499703 -0.057935
C22   C     C_3   0.493018 0.037739 0.635335 -0.107620
C23   C     C_3   0.566069 0.957644 0.576517 -0.124849
C24   C     C_3   0.506982 0.962261 0.364665 -0.107620
C25   C     C_3   0.347005 0.899235 0.616989 -0.243615
C26   C     C_3   0.285440 0.002036 0.660125 -0.301778
C27   C     C_3   0.203866 0.945083 0.719745 -0.452070
C28   C     C_3   0.652994 0.100764 0.383010 -0.243614
C29   C     C_3   0.714561 0.997963 0.339881 -0.301778
C30   C     C_3   0.796133 0.054916 0.280252 -0.452069
C31   C     C_2   0.612078 0.680532 0.099839 0.589516
C32   C     C_2   0.387923 0.319466 0.900162 0.589515
C33   C     C_3   0.433930 0.042356 0.423483 -0.124850
C34   C     C_3   0.500653 0.877249 0.497475 0.030886
C35   C     C_3   0.499346 0.122751 0.502525 0.030886
C36   C     C_3   0.428434 0.955782 0.555538 -0.006420
C37   C     C_3   0.571566 0.044218 0.444462 -0.006420
C38   C     C_3   0.551098 0.583484 0.047366 0.165060
Cu1   Cu    Cu3+1 0.500020 0.499990 0.643150 0.969027
Cu2   Cu    Cu3+1 0.499980 0.500010 0.356850 0.969028
H1    H     H_    0.052446 0.440510 0.266325 0.108634
H2    H     H_    0.512527 0.930126 0.254111 0.177616
H3    H     H_    0.457973 0.699761 0.899214 0.129798
H4    H     H_    0.542027 0.300239 0.100786 0.129799
H5    H     H_    0.637569 0.456457 0.903350 0.124503
H6    H     H_    0.362431 0.543543 0.096650 0.124502
H7    H     H_    0.172115 0.886318 0.638988 0.148135
H8    H     H_    0.217430 0.886155 0.814889 0.161503
H9    H     H_    0.160541 0.021651 0.750297 0.140853
H10   H     H_    0.315143 0.061805 0.741880 0.204792
H11   H     H_    0.269967 0.062454 0.566938 0.158440
H12   H     H_    0.947554 0.559490 0.733675 0.108635
H13   H     H_    0.317187 0.838410 0.536041 0.140561
H14   H     H_    0.363025 0.839824 0.710687 0.159134
H15   H     H_    0.782566 0.113832 0.185100 0.161504
H16   H     H_    0.827882 0.113694 0.361000 0.148136
H17   H     H_    0.839461 0.978349 0.249711 0.140852
H18   H     H_    0.730037 0.937554 0.433073 0.158438
H19   H     H_    0.684858 0.938187 0.258132 0.204791
H20   H     H_    0.636975 0.160172 0.289309 0.159135
H21   H     H_    0.682811 0.161594 0.463956 0.140561
H22   H     H_    0.723713 0.717005 0.193936 0.316915
H23   H     H_    0.946352 0.289180 0.443932 0.098115
H24   H     H_    0.276288 0.282992 0.806062 0.316915
H25   H     H_    0.053648 0.710820 0.556068 0.098115
H26   H     H_    0.948468 0.651048 0.322123 0.106852
H27   H     H_    0.051532 0.348952 0.677876 0.106853
H28   H     H_    0.620215 0.920215 0.638057 0.121558
H29   H     H_    0.379785 0.079784 0.361943 0.121558
H30   H     H_    0.487472 0.069874 0.745889 0.177614
N1    N     N_3   0.500060 0.499970 0.858290 -0.268001
N2    N     N_3   0.499940 0.500030 0.141710 -0.268002
O1    O     O_R   0.500040 0.316850 0.620870 -0.491512
O2    O     O_R   0.687058 0.643083 0.164877 -0.693110
O3    O     O_2   0.402355 0.207931 0.920216 -0.582394
O4    O     O_R   0.312943 0.356914 0.835120 -0.693108
O5    O     O_R   0.499960 0.683150 0.379130 -0.491512
O6    O     O_R   0.500000 0.316860 0.379090 -0.513601
O7    O     O_R   0.500000 0.683140 0.620910 -0.513601
O8    O     O_R   0.379090 0.499980 0.620870 -0.452000
O9    O     O_R   0.620910 0.500020 0.379130 -0.452001
O10   O     O_R   0.379060 0.499990 0.379090 -0.512184
O11   O     O_R   0.620940 0.500010 0.620910 -0.512183
O12   O     O_2   0.597645 0.792069 0.079788 -0.582393

loop_
_geom_bond_atom_site_label_1
_geom_bond_atom_site_label_2
_ccdc_geom_bond_type
C27   H8    S    
C30   H17   S    
C11   C18   S    
C8    O11   A    
C24   H2    S    
C2    C4    S    
C3    C6    S    
C32   O3    D    
C6    N2    S    
C22   C35   S    
C3    H3    S    
C17   H26   S    
C28   C29   S    
C35   C37   S    
C9    C16   S    
C25   H13   S    
C26   H10   S    
C10   C17   S    
C12   O7    A    
C33   C36   S    
C2    C32   S    
C17   C19   S    
C9    C19   S    
C7    C14   S    
C29   H19   S    
C3    C38   S    
Cu2   N2    S    
C34   C36   S    
C33   H29   S    
C28   H21   S    
C5    C38   S    
C1    O6    A    
C2    C6    S    
C28   H20   S    
C38   N2    S    
C13   C19   S    
C8    O9    A    
C14   C20   T    
C25   H14   S    
Cu1   Cu2   S    
C31   O2    S    
C4    H4    S    
C25   C26   S    
C23   C37   S    
C5    H5    S    
C24   C34   S    
C31   O12   D    
Cu1   O7    S    
C23   H28   S    
C3    N1    S    
C29   C30   S    
Cu2   O10   S    
C13   H12   S    
C23   C34   S    
C12   O5    A    
C24   C37   S    
H24   O4    S    
C16   H27   S    
C9    C11   S    
C8    C15   S    
C26   C27   S    
Cu2   O6    S    
C12   C34   S    
C2    N1    S    
C4    N2    S    
C1    C35   S    
C10   H25   S    
C27   H7    S    
C11   C17   S    
C6    H6    S    
C19   C21   S    
C9    H23   S    
Cu2   O9    S    
C4    C5    S    
C10   C13   S    
C32   O4    S    
C22   C36   S    
C30   H15   S    
C24   C33   S    
C31   C38   S    
C1    O1    A    
Cu1   O8    S    
Cu1   O11   S    
C5    N1    S    
C26   H11   S    
Cu2   O5    S    
C30   H16   S    
C28   C37   S    
C10   C18   S    
C33   C35   S    
C11   H1    S    
C18   C20   S    
Cu1   O1    S    
C25   C36   S    
C15   C21   T    
C7    O10   A    
C29   H18   S    
C16   C18   S    
C13   C16   S    
Cu1   N1    S    
C22   C23   S    
H22   O2    S    
C22   H30   S    
C27   H9    S    
C7    O8    A    
