data_mof_unit_61494.cif
_audit_creation_date              2012-12-10T16:38:33-0500
_audit_creation_method            fapswitch 2.2
_symmetry_space_group_name_H-M    P1
_symmetry_Int_Tables_number       1
_space_group_crystal_system       triclinic
_cell_length_a                    18.934709
_cell_length_b                    18.741951
_cell_length_c                    18.976806
_cell_angle_alpha                 108.828189
_cell_angle_beta                  109.365212
_cell_angle_gamma                 108.772178
_cell_volume                      5274.59758034

loop_
_atom_site_label
_atom_site_type_symbol
_atom_type_description
_atom_site_fract_x
_atom_site_fract_y
_atom_site_fract_z
_atom_type_partial_charge
C1    C     C_R   0.387549 0.882535 0.004548 0.849225
C2    C     C_R   0.612441 0.116848 0.994882 0.850164
C3    C     C_2   0.332174 0.813947 0.011800 -0.288822
C4    C     C_2   0.667897 0.179109 0.981461 -0.288797
C5    C     C_R   0.997827 0.118145 0.615169 0.798522
C6    C     C_R   0.002229 0.882974 0.383882 0.797391
C7    C     C_R   0.882728 0.001964 0.384062 0.843145
C8    C     C_R   0.117276 0.998002 0.615903 0.845309
C9    C     C_R   0.994047 0.611999 0.116264 0.846274
C10   C     C_R   0.996362 0.378155 0.883951 0.850404
C11   C     C_R   0.116498 0.619909 0.001109 0.814352
C12   C     C_R   0.883383 0.384176 0.002904 0.786181
C13   C     C_2   0.922733 0.245893 0.746949 -0.181927
C14   C     C_2   0.007112 0.680635 0.257760 -0.185171
C15   C     C_2   0.991495 0.303109 0.823338 -0.295006
C16   C     C_2   0.978788 0.666286 0.177305 -0.292748
C17   C     C_2   0.926233 0.175121 0.687127 -0.217326
C18   C     C_2   0.996565 0.743916 0.318009 -0.216741
C19   C     C_2   0.994014 0.188919 0.673676 -0.152325
C20   C     C_2   0.011503 0.821006 0.321923 -0.142933
C21   C     C_R   0.619820 0.001495 0.116538 0.850118
C22   C     C_R   0.380176 0.998498 0.883462 0.850402
C23   C     C_2   0.825275 0.074146 0.312059 -0.167574
C24   C     C_2   0.174656 0.925826 0.688006 -0.167644
C25   C     C_2   0.815091 0.004119 0.321149 -0.317500
C26   C     C_2   0.184921 0.995790 0.678760 -0.315401
C27   C     C_2   0.752682 0.074580 0.251422 -0.158893
C28   C     C_2   0.247217 0.925371 0.748666 -0.155997
C29   C     C_2   0.691023 0.002819 0.178770 -0.310627
C30   C     C_2   0.308996 0.997185 0.821214 -0.313344
C31   C     C_2   0.251746 0.753013 0.073611 -0.219421
C32   C     C_2   0.746669 0.321034 0.999840 -0.214223
C33   C     C_2   0.177186 0.692775 0.001875 -0.146303
C34   C     C_2   0.822339 0.323228 0.013875 -0.140417
C35   C     C_2   0.314693 0.826637 0.076197 -0.185323
C36   C     C_2   0.683576 0.260764 0.010462 -0.186590
Cu1   Cu    Cu3+1 0.500010 0.938980 0.938990 0.944795
Cu2   Cu    Cu3+1 0.499990 0.061020 0.061010 0.936300
Cu3   Cu    Cu3+1 0.061010 0.061020 0.499990 0.954028
Cu4   Cu    Cu3+1 0.938990 0.938980 0.500010 0.937742
Cu5   Cu    Cu3+1 0.061030 0.500010 0.061020 0.946564
Cu6   Cu    Cu3+1 0.938970 0.499990 0.938980 0.949091
H1    H     H_    0.885658 0.133332 0.353150 0.159096
H2    H     H_    0.114204 0.866701 0.647064 0.156144
H3    H     H_    0.045999 0.292169 0.844205 0.161589
H4    H     H_    0.940184 0.694143 0.154106 0.164948
H5    H     H_    0.871636 0.111241 0.652544 0.166610
H6    H     H_    0.979520 0.728204 0.362401 0.159259
H7    H     H_    0.752343 0.948096 0.286561 0.155015
H8    H     H_    0.247717 0.051727 0.713219 0.154053
H9    H     H_    0.752006 0.135207 0.265013 0.157768
H10   H     H_    0.247757 0.864694 0.735200 0.161001
H11   H     H_    0.696607 0.944512 0.160403 0.149460
H12   H     H_    0.303541 0.055567 0.839493 0.148945
H13   H     H_    0.266142 0.749403 0.132334 0.161705
H14   H     H_    0.731601 0.366217 0.982500 0.162465
H15   H     H_    0.346601 0.890060 0.130777 0.165685
H16   H     H_    0.650046 0.283373 0.041076 0.167211
H17   H     H_    0.306272 0.748797 0.962363 0.162814
H18   H     H_    0.695265 0.155597 0.943138 0.165384
H19   H     H_    0.864072 0.250108 0.728590 0.166282
H20   H     H_    0.037989 0.646427 0.279737 0.167438
O1    O     O_R   0.410990 0.859440 0.948490 -0.593682
O2    O     O_R   0.589010 0.140560 0.051510 -0.588480
O3    O     O_R   0.948450 0.589020 0.037490 -0.591151
O4    O     O_R   0.051550 0.410980 0.962510 -0.588658
O5    O     O_R   0.140550 0.589040 0.051520 -0.583922
O6    O     O_R   0.859450 0.410960 0.948480 -0.591457
O7    O     O_R   0.037480 0.589020 0.948460 -0.576072
O8    O     O_R   0.962520 0.410980 0.051540 -0.584444
O9    O     O_R   0.410980 0.962500 0.051530 -0.584854
O10   O     O_R   0.589020 0.037500 0.948470 -0.588317
O11   O     O_R   0.589050 0.948480 0.037510 -0.589309
O12   O     O_R   0.410950 0.051520 0.962490 -0.592202
O13   O     O_R   0.589030 0.051540 0.140550 -0.583494
O14   O     O_R   0.410970 0.948460 0.859450 -0.580517
O15   O     O_R   0.051510 0.140560 0.589010 -0.581886
O16   O     O_R   0.948490 0.859440 0.410990 -0.588758
O17   O     O_R   0.948470 0.037500 0.589020 -0.586181
O18   O     O_R   0.051530 0.962500 0.410980 -0.578177
O19   O     O_R   0.962480 0.051520 0.410960 -0.582213
O20   O     O_R   0.037520 0.948480 0.589040 -0.582565
O21   O     O_R   0.859440 0.948460 0.410980 -0.588080
O22   O     O_R   0.140560 0.051540 0.589020 -0.587571
O23   O     O_R   0.051520 0.589040 0.140540 -0.586618
O24   O     O_R   0.948480 0.410960 0.859460 -0.580116
C37   C     C_R   0.061914 0.277769 0.706622 0.161648
C38   C     C_R   0.147480 0.304492 0.760833 -0.143622
C39   C     C_R   0.211024 0.387609 0.791608 -0.134863
C40   C     C_R   0.189780 0.444171 0.767752 -0.121030
C41   C     C_R   0.105012 0.417574 0.712735 -0.161904
C42   C     C_R   0.041231 0.334699 0.682095 -0.108744
H21   H     H_    0.164641 0.261235 0.779816 0.115400
H22   H     H_    0.276755 0.408158 0.833925 0.128497
H23   H     H_    0.239019 0.508487 0.791628 0.125771
H24   H     H_    0.088701 0.461108 0.693685 0.121907
H25   H     H_    0.975812 0.314785 0.639297 0.127216
C43   C     C_R   0.051026 0.852959 0.274474 0.153366
C44   C     C_R   0.009799 0.879298 0.219714 -0.147980
C45   C     C_R   0.045592 0.907816 0.173955 -0.135493
C46   C     C_R   0.123017 0.910928 0.183006 -0.112605
C47   C     C_R   0.165268 0.886380 0.238518 -0.154206
C48   C     C_R   0.129905 0.858147 0.284666 -0.109451
H26   H     H_    0.949460 0.876584 0.211671 0.115371
H27   H     H_    0.013142 0.927241 0.131240 0.126846
H28   H     H_    0.150410 0.932617 0.147220 0.121076
H29   H     H_    0.225413 0.889190 0.245754 0.126899
H30   H     H_    0.163459 0.839599 0.327697 0.131422
C49   C     C_R   0.146524 0.703813 0.924712 0.156284
C50   C     C_R   0.124687 0.640080 0.845374 -0.154789
C51   C     C_R   0.097444 0.650691 0.773183 -0.142018
C52   C     C_R   0.091083 0.724529 0.779504 -0.111234
C53   C     C_R   0.111189 0.787535 0.857873 -0.150190
C54   C     C_R   0.138271 0.777119 0.930188 -0.109856
H31   H     H_    0.129990 0.582945 0.839923 0.121044
H32   H     H_    0.081506 0.601812 0.712366 0.120036
H33   H     H_    0.070337 0.732815 0.723639 0.121483
H34   H     H_    0.105827 0.844480 0.862590 0.132670
H35   H     H_    0.153391 0.826294 0.990495 0.126008
C55   C     C_R   0.853837 0.275194 0.054070 0.152956
C56   C     C_R   0.879638 0.219573 0.013623 -0.148001
C57   C     C_R   0.908542 0.173903 0.050486 -0.137233
C58   C     C_R   0.912556 0.183890 0.128194 -0.106311
C59   C     C_R   0.888356 0.240123 0.169568 -0.152990
C60   C     C_R   0.859708 0.286164 0.133116 -0.114718
H36   H     H_    0.876407 0.210939 0.953166 0.115858
H37   H     H_    0.927669 0.130612 0.018703 0.128244
H38   H     H_    0.934690 0.148279 0.156491 0.128197
H39   H     H_    0.891863 0.248087 0.229933 0.126001
H40   H     H_    0.841645 0.329925 0.166111 0.129936

loop_
_geom_bond_atom_site_label_1
_geom_bond_atom_site_label_2
_ccdc_geom_bond_type
C7    O21   A    
C37   C38   A    
C4    C36   D    
C46   C47   A    
C27   C29   D    
C8    C26   S    
Cu5   Cu6   S    
C14   C18   S    
C51   C52   A    
C22   O14   A    
C58   H38   S    
C58   C59   A    
Cu5   O5    S    
C30   H12   S    
C45   H27   S    
C1    O9    A    
C8    O20   A    
C32   C36   S    
C9    C16   S    
C24   C26   D    
Cu3   O22   S    
C19   C37   S    
C10   C15   S    
C26   H8    S    
C52   H33   S    
C6    O16   A    
C43   C48   A    
C14   H20   S    
C21   O11   A    
C57   H37   S    
C23   H1    S    
C11   O5    A    
C39   H22   S    
C50   C51   A    
Cu1   O11   S    
C9    O23   A    
C41   H24   S    
Cu2   O9    S    
C60   H40   S    
C17   H5    S    
C2    O2    A    
Cu6   O3    S    
C31   C33   D    
C48   H30   S    
Cu6   O24   S    
C23   C27   S    
C5    O17   A    
C18   C20   D    
C54   H35   S    
C44   H26   S    
C37   C42   A    
Cu6   O6    S    
Cu4   O21   S    
C2    O10   A    
C1    O1    A    
C52   C53   A    
Cu1   O1    S    
C27   H9    S    
C42   H25   S    
Cu2   O2    S    
Cu2   O13   S    
C10   O4    A    
C34   C55   S    
Cu4   O20   S    
C40   H23   S    
Cu3   O19   S    
C16   H4    S    
Cu3   Cu4   S    
C55   C60   A    
C21   C29   S    
Cu6   O7    S    
C1    C3    S    
C32   C34   D    
C2    C4    S    
Cu1   Cu2   S    
C12   O6    A    
C6    O18   A    
C44   C45   A    
C3    C35   D    
C4    H18   S    
C9    O3    A    
Cu4   O17   S    
C13   H19   S    
C47   H29   S    
C56   C57   A    
C51   H32   S    
C49   C54   A    
C7    O19   A    
Cu1   O14   S    
C13   C15   D    
C24   H2    S    
C14   C16   D    
C33   C49   S    
C22   O12   A    
C5    O15   A    
Cu3   O15   S    
C41   C42   A    
C6    C20   S    
C55   C56   A    
C53   C54   A    
Cu2   O12   S    
C46   H28   S    
C12   O8    A    
C38   H21   S    
C10   O24   A    
C22   C30   S    
C8    O22   A    
C24   C28   S    
C18   H6    S    
C11   O7    A    
Cu5   O4    S    
C5    C19   S    
C11   C33   S    
Cu5   O23   S    
C21   O13   A    
C36   H16   S    
C7    C25   S    
C13   C17   S    
C35   H15   S    
Cu3   O18   S    
C28   C30   D    
C57   C58   A    
C56   H36   S    
C49   C50   A    
C28   H10   S    
C40   C41   A    
C29   H11   S    
C31   C35   S    
C45   C46   A    
C17   C19   D    
C59   H39   S    
Cu4   O16   S    
C23   C25   D    
C47   C48   A    
C25   H7    S    
C53   H34   S    
C20   C43   S    
C38   C39   A    
C43   C44   A    
Cu1   O10   S    
C15   H3    S    
C59   C60   A    
C31   H13   S    
C39   C40   A    
C12   C34   S    
C50   H31   S    
C32   H14   S    
Cu5   O8    S    
C3    H17   S    
