data_mof_unit_13347.cif
_audit_creation_date              2012-12-10T20:02:22-0500
_audit_creation_method            fapswitch 2.2
_symmetry_space_group_name_H-M    P1
_symmetry_Int_Tables_number       1
_space_group_crystal_system       triclinic
_cell_length_a                    18.298326
_cell_length_b                    18.348843
_cell_length_c                    18.358924
_cell_angle_alpha                 120.11294
_cell_angle_beta                  119.970488
_cell_angle_gamma                 90.02546
_cell_volume                      4352.17088647

loop_
_atom_site_label
_atom_site_type_symbol
_atom_type_description
_atom_site_fract_x
_atom_site_fract_y
_atom_site_fract_z
_atom_type_partial_charge
C1    C     C_R   0.139105 0.139878 0.779919 0.895952
C2    C     C_R   0.734369 0.828807 0.509174 -0.186949
C3    C     C_R   0.868552 0.599498 0.563374 -0.081538
C4    C     C_R   0.859840 0.859600 0.220067 1.046393
C5    C     C_R   0.890117 0.523623 0.554766 0.459210
C6    C     C_R   0.825271 0.438572 0.472833 -0.205047
C7    C     C_R   0.740482 0.429531 0.398541 -0.175484
C8    C     C_R   0.720522 0.505038 0.404410 -0.105500
C9    C     C_R   0.784607 0.590741 0.486865 0.133040
C10   C     C_R   0.737453 0.728975 0.051475 -0.139623
C11   C     C_R   0.803037 0.810309 0.108824 -0.186925
C12   C     C_R   0.646203 0.900579 0.425226 -0.020780
C13   C     C_R   0.808968 0.844649 0.057068 0.315245
C14   C     C_R   0.762270 0.786063 0.947215 0.189307
C15   C     C_R   0.697112 0.701984 0.891902 -0.211255
C16   C     C_R   0.859798 0.139938 0.500239 0.838677
C17   C     C_R   0.683053 0.678177 0.946065 -0.072573
C18   C     C_3   0.666850 0.591520 0.935076 0.503983
C19   C     C_3   0.734992 0.650147 0.057178 0.496668
C20   C     C_R   0.253606 0.806562 0.586619 -0.048889
C21   C     C_R   0.195881 0.805064 0.499897 -0.006195
C22   C     C_R   0.194210 0.748019 0.411283 -0.164710
C23   C     C_R   0.630053 0.976576 0.429218 -0.113145
C24   C     C_R   0.248749 0.694229 0.411939 -0.118842
C25   C     C_R   0.305740 0.696731 0.501206 -0.031917
C26   C     C_R   0.306322 0.754783 0.587712 -0.050546
C27   C     C_3   0.349619 0.793153 0.699478 0.545562
C28   C     C_R   0.140181 0.860491 0.500257 0.858270
C29   C     C_3   0.287924 0.852206 0.696923 0.146511
C30   C     C_R   0.206113 0.159804 0.946891 -0.015179
C31   C     C_R   0.196560 0.195024 0.891498 -0.015184
C32   C     C_R   0.248868 0.283926 0.946190 -0.121380
C33   C     C_R   0.303299 0.337934 0.054013 -0.167796
C34   C     C_R   0.683967 0.061639 0.521463 -0.099114
C35   C     C_R   0.305288 0.303998 0.108449 0.005328
C36   C     C_R   0.257596 0.214096 0.052867 -0.070506
C37   C     C_3   0.198918 0.165213 0.060450 0.050479
C38   C     C_3   0.142130 0.101410 0.940788 0.580124
C39   C     C_R   0.224903 0.288814 0.566984 0.038382
C40   C     C_R   0.140412 0.140070 0.500384 0.806602
C41   C     C_R   0.201645 0.195973 0.505952 -0.035383
C42   C     C_R   0.240933 0.157999 0.452660 -0.143392
C43   C     C_R   0.293901 0.211878 0.451720 -0.207383
C44   C     C_R   0.307038 0.304024 0.502800 -0.089839
C45   C     C_R   0.682352 0.777497 0.514222 0.420156
C46   C     C_R   0.274163 0.341405 0.562838 0.050266
C47   C     C_3   0.221107 0.404007 0.571166 0.220787
C48   C     C_3   0.168249 0.346388 0.578050 -0.434756
C49   C     C_R   0.826313 0.273550 0.593831 0.040057
C50   C     C_R   0.802275 0.194079 0.502100 -0.126777
C51   C     C_R   0.716326 0.162356 0.412145 -0.189335
C52   C     C_R   0.859734 0.859988 0.499715 0.955871
C53   C     C_R   0.662233 0.216123 0.411974 -0.207301
C54   C     C_R   0.693816 0.302198 0.501621 -0.060514
C55   C     C_R   0.773248 0.326736 0.593248 0.028541
C56   C     C_R   0.697132 0.697689 0.502475 -0.228225
C57   C     C_3   0.851222 0.411245 0.677596 -0.415930
C58   C     C_3   0.910373 0.352472 0.678925 0.289522
C59   C     C_R   0.361102 0.640845 0.501079 0.913351
C60   C     C_R   0.639874 0.359784 0.499818 0.786812
C61   C     C_R   0.640377 0.641701 0.779963 0.994324
C62   C     C_R   0.359406 0.359968 0.220007 0.873310
C63   C     C_R   0.359438 0.359894 0.499429 0.908864
C64   C     C_R   0.754553 0.070958 0.609679 -0.114927
C65   C     C_R   0.640211 0.640543 0.500786 0.905544
C66   C     C_R   0.770767 0.995129 0.606014 -0.063209
C67   C     C_R   0.765824 0.671456 0.491359 -0.154566
C68   C     C_R   0.716602 0.909477 0.513813 0.169128
C69   C     C_R   0.816864 0.722357 0.484797 0.393987
C70   C     C_R   0.802722 0.802517 0.497642 -0.224028
H1    H     H_    0.246707 0.312180 0.905892 0.182609
H2    H     H_    0.447038 0.600980 0.888636 0.379816
H3    H     H_    0.643591 0.414416 0.696307 0.360959
H4    H     H_    0.661427 0.572010 0.166630 0.383644
H5    H     H_    0.966206 0.698380 0.265191 0.374581
H6    H     H_    0.150417 0.744268 0.341515 0.183094
H7    H     H_    0.796137 0.136863 0.681047 0.178838
H8    H     H_    0.245593 0.650274 0.342510 0.189148
H9    H     H_    0.369652 0.612067 0.735011 0.370294
H10   H     H_    0.579106 0.797060 0.816357 0.385030
H11   H     H_    0.234548 0.834384 0.703631 0.153658
H12   H     H_    0.598065 0.192319 0.340656 0.188269
H13   H     H_    0.394909 0.063400 0.757133 0.385390
H14   H     H_    0.342087 0.406501 0.094467 0.177312
H15   H     H_    0.235783 0.133528 0.099217 0.139220
H16   H     H_    0.227168 0.241810 0.262284 0.344405
H17   H     H_    0.117588 0.872474 0.754137 0.398195
H18   H     H_    0.823607 0.002696 0.675264 0.207497
H19   H     H_    0.953396 0.182251 0.847434 0.377900
H20   H     H_    0.228398 0.086628 0.408929 0.190568
H21   H     H_    0.321710 0.180861 0.408145 0.184494
H22   H     H_    0.261760 0.472507 0.643312 0.117608
H23   H     H_    0.851729 0.449047 0.747871 0.277772
H24   H     H_    0.136223 0.272003 0.336699 0.369047
H25   H     H_    0.181087 0.381279 0.655389 0.212646
H26   H     H_    0.096310 0.310242 0.512370 0.249925
H27   H     H_    0.692718 0.098111 0.340975 0.198665
H28   H     H_    0.858221 0.451246 0.650618 0.199226
H29   H     H_    0.604186 0.834951 0.353393 0.161415
H30   H     H_    0.953888 0.359597 0.655531 0.148956
H31   H     H_    0.929465 0.343026 0.882386 0.410778
H32   H     H_    0.575694 0.969554 0.360867 0.159448
H33   H     H_    0.572686 0.937061 0.602454 0.405238
H34   H     H_    0.670926 0.120334 0.524680 0.163947
H35   H     H_    0.913231 0.554773 0.385056 0.418385
H36   H     H_    0.918231 0.665281 0.627543 0.205928
H37   H     H_    0.132616 0.607825 0.705862 0.412336
H38   H     H_    0.840346 0.379282 0.465876 0.181092
H39   H     H_    0.690701 0.363730 0.335239 0.166734
H40   H     H_    0.655569 0.496786 0.344441 0.121225
H41   H     H_    0.922734 0.080400 0.281830 0.375834
H42   H     H_    0.884053 0.735531 0.890738 0.373908
O1    O     O_3   1.000000 1.000000 0.500000 -0.540749
O2    O     O_R   0.384160 0.323450 0.268320 -0.628380
O3    O     O_R   0.384130 0.444860 0.560610 -0.578973
O4    O     O_R   0.115780 0.055050 0.731580 -0.545922
O5    O     O_R   0.555060 0.615780 0.439210 -0.607370
O6    O     O_R   0.384140 0.323430 0.439180 -0.656767
O7    O     O_R   0.676490 0.615760 0.560640 -0.609214
O8    O     O_R   0.676470 0.615740 0.731500 -0.563136
O9    O     O_R   0.384180 0.444900 0.268330 -0.650080
O10   O     O_R   0.384150 0.615750 0.560620 -0.553132
O11   O     O_R   0.555030 0.323430 0.439190 -0.648319
O12   O     O_R   0.823480 0.055090 0.439280 -0.641665
O13   O     O_R   0.823490 0.884220 0.268410 -0.586428
O14   O     O_R   0.944920 0.176520 0.560720 -0.621943
O15   O     O_R   0.115810 0.884200 0.439290 -0.653687
O16   O     O_R   0.115820 0.176530 0.560730 -0.645008
O17   O     O_R   0.944890 0.884180 0.560700 -0.542371
O18   O     O_R   0.115830 0.055100 0.439300 -0.630179
O19   O     O_R   0.823460 0.884190 0.439270 -0.630324
O20   O     O_2   0.958773 0.972340 0.150378 -0.240749
O21   O     O_2   0.816090 0.997246 0.068663 -0.167027
O22   O     O_3   0.878967 0.020948 0.242205 -0.604208
O23   O     O_R   0.115790 0.884180 0.560710 -0.585040
O24   O     O_2   0.708365 0.801008 0.790694 -0.237750
O25   O     O_2   0.859428 0.899147 0.943187 -0.126584
O26   O     O_3   0.834252 0.732256 0.830595 -0.479884
O27   O     O_2   0.495751 0.487617 0.763458 -0.267573
O28   O     O_2   0.537661 0.492099 0.914245 -0.218222
O29   O     O_3   0.507205 0.630029 0.911800 -0.492910
O30   O     O_2   0.785258 0.549459 0.881702 -0.266638
O31   O     O_2   0.707402 0.437947 0.878740 -0.182033
O32   O     O_3   0.620259 0.457228 0.731376 -0.568249
O33   O     O_2   0.764356 0.727843 0.244344 -0.252958
O34   O     O_R   0.115790 0.176500 0.731590 -0.631037
O35   O     O_2   0.611628 0.685278 0.103467 -0.243894
O36   O     O_3   0.671639 0.559742 0.113997 -0.445928
O37   O     O_2   0.837602 0.545189 0.081912 -0.160174
O38   O     O_2   0.894988 0.663519 0.078182 -0.277616
O39   O     O_3   0.907758 0.708312 0.241806 -0.522480
O40   O     O_2   0.321780 0.762515 0.814069 -0.251212
O41   O     O_2   0.228451 0.647454 0.627409 -0.276161
O42   O     O_3   0.394667 0.658966 0.733856 -0.443987
O43   O     O_2   0.492328 0.910859 0.758007 -0.188434
O44   O     O_2   0.504982 0.897342 0.890058 -0.202515
O45   O     O_R   0.944940 0.884220 0.268420 -0.594885
O46   O     O_3   0.519014 0.770687 0.751156 -0.512639
O47   O     O_2   0.266084 0.012566 0.769782 -0.299522
O48   O     O_2   0.411721 0.009993 0.879967 -0.176226
O49   O     O_3   0.374797 0.997266 0.716231 -0.520760
O50   O     O_2   0.130937 0.302688 0.099125 -0.182999
O51   O     O_2   0.065905 0.179271 0.090405 -0.158418
O52   O     O_3   0.223467 0.289369 0.250812 -0.539830
O53   O     O_2   0.250875 0.001317 0.950537 -0.282495
O54   O     O_2   0.111162 0.948426 0.924297 -0.224727
O55   O     O_3   0.102470 0.927887 0.769350 -0.445392
O56   O     O_3   0.499960 0.499960 0.499910 -0.536513
O57   O     O_2   0.986934 0.031058 0.753996 -0.347941
O58   O     O_2   0.973496 0.056607 0.889338 -0.176282
O59   O     O_3   0.018211 0.193890 0.892892 -0.501944
O60   O     O_2   0.087586 0.449153 0.467438 -0.152293
O61   O     O_2   0.208462 0.447356 0.444933 -0.263273
O62   O     O_3   0.093148 0.294903 0.351953 -0.477520
O63   O     O_2   0.010200 0.286361 0.782131 -0.279672
O64   O     O_2   0.037783 0.447743 0.882985 -0.212454
O65   O     O_3   0.893543 0.340631 0.818717 -0.526236
O66   O     O_2   0.511707 0.771998 0.434924 -0.295902
O67   O     O_R   0.384170 0.615770 0.439200 -0.623439
O68   O     O_2   0.591422 0.785998 0.597585 -0.237842
O69   O     O_3   0.626404 0.925794 0.604522 -0.518351
O70   O     O_2   0.904199 0.714430 0.397415 -0.248142
O71   O     O_2   0.983964 0.717035 0.552590 -0.279378
O72   O     O_3   0.859331 0.570063 0.378466 -0.516720
O73   O     O_2   0.013785 0.573146 0.745625 -0.271761
O74   O     O_2   0.014801 0.447456 0.605456 -0.336189
O75   O     O_3   0.072971 0.608012 0.660324 -0.449982
O76   O     O_R   0.676480 0.444870 0.560630 -0.639978
O77   O     O_R   0.555020 0.615730 0.731490 -0.558378
S1    S     S_3+6 0.867337 0.960874 0.129103 0.103462
S2    S     S_3+6 0.150402 0.234740 0.122729 0.118673
S3    S     S_3+6 0.153357 0.992341 0.897614 0.104509
S4    S     S_3+6 0.026518 0.093665 0.866830 0.089764
S5    S     S_3+6 0.152007 0.401148 0.457151 0.108573
S6    S     S_3+6 0.967051 0.357359 0.794605 0.072891
S7    S     S_3+6 0.600300 0.814047 0.537448 0.074787
S8    S     S_3+6 0.894095 0.682520 0.453882 0.066435
S9    S     S_3+6 0.999748 0.536041 0.643981 0.043209
S10   S     S_3+6 0.791381 0.809028 0.878914 0.133829
S11   S     S_3+6 0.549237 0.546740 0.879018 0.113419
S12   S     S_3+6 0.698742 0.508170 0.858169 0.100334
S13   S     S_3+6 0.693869 0.658520 0.131859 0.129822
S14   S     S_3+6 0.845630 0.639116 0.112362 0.113183
S15   S     S_3+6 0.320652 0.713645 0.718690 0.075162
S16   S     S_3+6 0.469194 0.847411 0.778043 0.159191
S17   S     S_3+6 0.336935 0.971536 0.770038 0.094601
Zn1   Zn    Zn3+2 0.869870 0.956630 0.413250 1.091638
Zn2   Zn    Zn3+2 0.043380 0.130130 0.586750 1.038115
Zn3   Zn    Zn3+2 0.043390 0.956630 0.413260 1.072447
Zn4   Zn    Zn3+2 0.043360 0.956610 0.586740 1.164490
Zn5   Zn    Zn3+2 0.630090 0.543330 0.586660 1.086612
Zn6   Zn    Zn3+2 0.456570 0.543320 0.586650 1.182943
Zn7   Zn    Zn3+2 0.456580 0.369830 0.413160 1.014531
Zn8   Zn    Zn3+2 0.456590 0.543350 0.413170 1.081730

loop_
_geom_bond_atom_site_label_1
_geom_bond_atom_site_label_2
_ccdc_geom_bond_type
C51   H27   S    
C66   C68   A    
C41   C42   A    
O45   Zn3   S    
C48   H25   S    
C27   C29   S    
C28   O23   A    
C64   H7    S    
O56   Zn6   S    
C47   S5    S    
O60   S5    D    
C35   C36   A    
O56   Zn5   S    
C22   H6    S    
O59   S4    S    
O19   Zn1   S    
O1    Zn2   S    
O36   S13   S    
C7    C8    A    
C39   C41   A    
C54   C60   S    
C53   C54   A    
O55   S3    S    
C12   C68   A    
C12   C23   A    
C27   S16   S    
C26   C27   S    
O71   S8    D    
O3    Zn6   S    
C52   O17   A    
O1    Zn1   S    
H4    O36   S    
C36   C37   S    
C16   C50   S    
O1    Zn4   S    
C62   O2    A    
C2    C68   S    
C66   H18   S    
C30   C31   A    
O76   Zn5   S    
C23   H32   S    
C10   C17   A    
C56   C65   S    
C40   O16   A    
H37   O75   S    
C58   S6    S    
C1    C31   S    
O53   S3    D    
C30   C38   S    
C59   O10   A    
C31   C32   A    
C18   C19   S    
C47   H22   S    
O56   Zn8   S    
O69   S7    S    
C12   H29   S    
O4    Zn4   S    
C46   C47   S    
O15   Zn3   S    
H17   O55   S    
C4    O45   A    
C45   C56   A    
O14   Zn2   S    
C8    C9    A    
O24   S10   D    
C49   C58   S    
O29   S11   S    
O73   S9    D    
C18   S12   S    
O52   S2    S    
C48   H26   S    
O6    Zn7   S    
O37   S14   D    
O54   S3    D    
O68   S7    D    
C28   O15   A    
O41   S15   D    
C63   O3    A    
O26   S10   S    
C45   S7    S    
H13   O49   S    
C44   C63   S    
C57   H23   S    
C13   C14   A    
C61   O8    A    
C69   S8    S    
C52   O19   A    
O2    Zn7   S    
C1    O34   A    
C69   C70   A    
O70   S8    D    
O38   S14   D    
O72   S8    S    
O63   S6    D    
O50   S2    D    
C44   C46   A    
O21   S1    D    
C50   C51   A    
C32   H1    S    
C20   C29   S    
C2    C45   A    
C15   C61   S    
H2    O29   S    
O75   S9    S    
C27   S15   S    
O30   S12   D    
H42   O26   S    
C58   H30   S    
C24   C25   A    
H19   O59   S    
O34   Zn2   S    
H5    O39   S    
C63   O6    A    
O27   S11   D    
O57   S4    D    
C3    C5    A    
C25   C26   A    
C49   C55   A    
O66   S7    D    
O13   Zn1   S    
C19   S13   S    
C34   H34   S    
C13   S1    S    
C7    H39   S    
C53   H12   S    
C42   H20   S    
C64   C66   A    
O56   Zn7   S    
C60   O11   A    
C43   C44   A    
C9    C67   S    
C29   H11   S    
C37   C38   S    
C3    C9    A    
C8    H40   S    
H10   O46   S    
C47   C48   S    
C10   C19   S    
C23   C34   A    
C19   S14   S    
C17   C18   S    
C65   O7    A    
C4    C11   S    
O44   S16   D    
C6    C7    A    
H24   O62   S    
C39   C46   A    
C4    O13   A    
C24   H8    S    
C40   C41   S    
O31   S12   D    
C21   C28   S    
O62   S5    S    
C38   S3    S    
C55   C57   S    
O12   Zn1   S    
C18   S11   S    
C22   C24   A    
O49   S17   S    
H16   O52   S    
C42   C43   A    
O20   S1    D    
O33   S13   D    
O47   S17   D    
C37   H15   S    
C15   C17   A    
C1    O4    A    
C40   O18   A    
C54   C55   A    
C6    H38   S    
O65   S6    S    
C37   S2    S    
H33   O69   S    
O46   S16   S    
O35   S13   D    
O40   S15   D    
O39   S14   S    
O43   S16   D    
O77   Zn6   S    
C52   C70   S    
O58   S4    D    
O42   S15   S    
H41   O22   S    
C5    S9    S    
C56   C67   A    
C25   C59   S    
C14   S10   S    
O7    Zn5   S    
C38   S4    S    
C30   C36   A    
C32   C33   A    
O22   S1    S    
O11   Zn7   S    
C3    H36   S    
O28   S11   D    
O1    Zn3   S    
C2    C70   A    
O9    Zn8   S    
H9    O42   S    
O25   S10   D    
C11   C13   A    
C57   C58   S    
C5    C6    A    
C20   C26   A    
O8    Zn5   S    
C57   H28   S    
O67   Zn8   S    
C59   O67   A    
C33   C35   A    
C35   C62   S    
O10   Zn6   S    
O64   S6    D    
C16   O12   A    
O5    Zn8   S    
C33   H14   S    
C43   H21   S    
H31   O65   S    
C10   C11   A    
C29   S17   S    
C51   C53   A    
O48   S17   D    
O32   S12   S    
O23   Zn4   S    
C20   C21   A    
C60   O76   A    
C49   C50   A    
O61   S5    D    
C65   O5    A    
C14   C15   A    
O74   S9    D    
O18   Zn3   S    
O51   S2    D    
O16   Zn2   S    
C61   O77   A    
C67   C69   A    
O17   Zn4   S    
C21   C22   A    
C16   O14   A    
C34   C64   A    
C62   O9    A    
C39   C48   S    
H35   O72   S    
H3    O32   S    
