data_mof_unit_60166.cif
_audit_creation_date              2012-12-10T18:49:24-0500
_audit_creation_method            fapswitch 2.2
_symmetry_space_group_name_H-M    P1
_symmetry_Int_Tables_number       1
_space_group_crystal_system       triclinic
_cell_length_a                    9.913349
_cell_length_b                    10.662452
_cell_length_c                    13.614967
_cell_angle_alpha                 90.478094
_cell_angle_beta                  82.337701
_cell_angle_gamma                 89.947985
_cell_volume                      1426.20806961

loop_
_atom_site_label
_atom_site_type_symbol
_atom_type_description
_atom_site_fract_x
_atom_site_fract_y
_atom_site_fract_z
_atom_type_partial_charge
C1    C     C_R   0.500399 0.739504 0.498223 1.007921
C2    C     C_R   0.918438 0.592988 0.546807 0.675033
C3    C     C_1   0.544813 0.498431 0.210227 -0.037534
C4    C     C_1   0.455187 0.501569 0.789773 -0.037533
C5    C     C_2   0.558900 0.497693 0.018303 0.494380
C6    C     C_2   0.441100 0.502306 0.981697 0.494380
C7    C     C_1   0.443545 0.502079 0.877743 0.065219
C8    C     C_1   0.556455 0.497921 0.122256 0.065218
C9    C     C_R   0.567348 0.933569 0.567386 0.651370
C10   C     C_R   0.432653 0.066431 0.432614 0.651371
C11   C     C_R   0.566160 0.062895 0.572397 -0.257341
C12   C     C_R   0.499601 0.260496 0.501777 1.007922
C13   C     C_R   0.433840 0.937105 0.427602 -0.257340
C14   C     C_2   0.880063 0.302832 0.400378 1.091892
C15   C     C_2   0.119938 0.697168 0.599622 1.091895
C16   C     C_2   0.631176 0.126428 0.651670 1.056599
C17   C     C_2   0.368826 0.873572 0.348329 1.056603
C18   C     C_R   0.498516 0.127953 0.503771 -0.355052
C19   C     C_R   0.501484 0.872047 0.496229 -0.355052
C20   C     C_R   0.474957 0.500796 0.685729 0.959241
C21   C     C_R   0.525043 0.499204 0.314271 0.959243
C22   C     C_R   0.938396 0.406557 0.452648 -0.262047
C23   C     C_R   0.061604 0.593443 0.547352 -0.262045
C24   C     C_R   0.081562 0.407011 0.453193 0.675036
F1    F     F_    0.159448 0.315582 0.404408 -0.547907
F2    F     F_    0.840552 0.684418 0.595592 -0.547909
F3    F     F_    0.319553 0.507267 0.041443 -0.618507
F4    F     F_    0.680447 0.492733 0.958557 -0.618506
F5    F     F_    0.624991 0.866653 0.635724 -0.560836
F6    F     F_    0.375009 0.133347 0.364276 -0.560835
H1    H     H_    0.854327 0.115962 0.388472 0.353910
H2    H     H_    0.145681 0.884037 0.611524 0.353909
H3    H     H_    0.787041 0.130323 0.733023 0.360206
H4    H     H_    0.212963 0.869678 0.266974 0.360206
N1    N     N_R   0.142790 0.500030 0.500020 -0.206754
N2    N     N_R   0.857210 0.499970 0.499980 -0.206753
O1    O     O_R   0.385380 0.683250 0.500010 -0.646120
O2    O     O_R   0.898642 0.179430 0.429824 -0.721976
O3    O     O_2   0.179456 0.676002 0.670652 -0.586102
O4    O     O_R   0.101366 0.820569 0.570172 -0.721981
O5    O     O_2   0.577275 0.217990 0.695159 -0.657965
O6    O     O_R   0.753028 0.079536 0.678051 -0.668441
O7    O     O_2   0.422725 0.782009 0.304841 -0.657967
O8    O     O_R   0.246976 0.920465 0.321946 -0.668440
O9    O     O_R   0.614620 0.316750 0.499990 -0.646121
O10   O     O_R   0.614710 0.683220 0.500000 -0.526085
O11   O     O_R   0.385290 0.316780 0.500000 -0.526085
O12   O     O_R   0.368830 0.499990 0.640350 -0.598415
O13   O     O_R   0.631170 0.500010 0.359650 -0.598413
O14   O     O_R   0.598160 0.499960 0.640350 -0.555786
O15   O     O_R   0.401840 0.500040 0.359650 -0.555785
O16   O     O_2   0.820539 0.323997 0.329350 -0.586103
Zn1   Zn    Zn3+2 0.346870 0.500020 0.500000 1.091090
Zn2   Zn    Zn3+2 0.653130 0.499980 0.500000 1.091090

loop_
_geom_bond_atom_site_label_1
_geom_bond_atom_site_label_2
_ccdc_geom_bond_type
C5    C8    S    
C17   O7    D    
C11   C18   A    
C6    C7    S    
C13   C17   S    
N1    Zn1   S    
C5    F4    S    
C22   N2    A    
C11   C16   S    
C10   F6    S    
C6    F3    S    
H1    O2    S    
C9    F5    S    
O11   Zn1   S    
O1    Zn1   S    
C14   C22   S    
C3    C21   S    
C15   C23   S    
C17   O8    S    
C2    F2    S    
C20   O12   A    
C9    C11   A    
C15   O3    D    
O14   Zn2   S    
C10   C18   A    
C4    C7    T    
C5    C6    D    
H3    O6    S    
C21   O13   A    
O10   Zn2   S    
O9    Zn2   S    
C23   N1    A    
H2    O4    S    
O12   Zn1   S    
C1    O10   A    
C22   C24   A    
C15   O4    S    
C1    C19   S    
C24   N1    A    
N2    Zn2   S    
C13   C19   A    
C2    N2    A    
C14   O2    S    
C4    C20   S    
C16   O6    S    
C21   O15   A    
H4    O8    S    
C24   F1    S    
C3    C8    T    
C12   C18   S    
C2    C23   A    
C12   O9    A    
C20   O14   A    
C16   O5    D    
C9    C19   A    
C14   O16   D    
O13   Zn2   S    
C12   O11   A    
C1    O1    A    
O15   Zn1   S    
C10   C13   A    
