data_mof_unit_45990.cif
_audit_creation_date              2012-12-11T14:56:03-0500
_audit_creation_method            fapswitch 2.2
_symmetry_space_group_name_H-M    P1
_symmetry_Int_Tables_number       1
_space_group_crystal_system       triclinic
_cell_length_a                    28.054114
_cell_length_b                    17.278799
_cell_length_c                    18.064684
_cell_angle_alpha                 89.944903
_cell_angle_beta                  138.118125
_cell_angle_gamma                 90.109951
_cell_volume                      5845.9351364

loop_
_atom_site_label
_atom_site_type_symbol
_atom_type_description
_atom_site_fract_x
_atom_site_fract_y
_atom_site_fract_z
_atom_type_partial_charge
C1    C     C_R   0.687840 0.898562 0.801560 -0.160925
C2    C     C_3   0.291011 0.701027 0.017862 -0.292402
C3    C     C_3   0.715668 0.739587 0.959887 0.263463
C4    C     C_3   0.205774 0.783496 0.943334 0.261894
C5    C     C_3   0.783517 0.237960 0.040803 0.264852
C6    C     C_3   0.827151 0.710785 0.005146 0.266566
C7    C     C_3   0.166345 0.272733 0.978824 0.255452
C8    C     C_3   0.272351 0.755891 0.060735 -0.233868
C9    C     C_3   0.707347 0.259417 0.931547 -0.216837
C10   C     C_3   0.749492 0.690269 0.893761 -0.269735
C11   C     C_3   0.236471 0.299075 0.097393 -0.224264
C12   C     C_3   0.748973 0.189918 0.106493 -0.266856
C13   C     C_3   0.253628 0.349804 0.047660 -0.213031
C14   C     C_3   0.263918 0.793555 0.906154 -0.223872
C15   C     C_3   0.221118 0.252449 0.937948 -0.232628
C16   C     C_3   0.792105 0.760757 0.068979 -0.217628
C17   C     C_3   0.313917 0.821172 0.069344 0.116985
C18   C     C_3   0.684078 0.178314 0.931997 0.100909
C19   C     C_3   0.727588 0.771006 0.895947 0.115834
C20   C     C_3   0.273579 0.230011 0.102324 0.074716
C21   C     C_3   0.771697 0.270266 0.104466 0.113725
C22   C     C_3   0.222953 0.728757 0.899592 0.077562
C23   C     C_3   0.183371 0.321983 0.930862 0.115243
C24   C     C_3   0.736661 0.658417 0.958442 -0.295749
C25   C     C_3   0.814477 0.679319 0.068129 0.102165
C26   C     C_3   0.542469 0.219794 0.867500 -0.940993
C27   C     C_3   0.431547 0.826606 0.076149 -0.913647
C28   C     C_3   0.401021 0.349170 0.150028 -0.982229
C29   C     C_3   0.648269 0.830801 0.958938 -0.932635
C30   C     C_3   0.095403 0.857517 0.837423 -0.966137
C31   C     C_3   0.852189 0.327990 0.042656 -0.940533
C32   C     C_3   0.956273 0.719011 0.132058 -0.941282
C33   C     C_3   0.072433 0.341047 0.936954 -0.922444
C34   C     C_3   0.246159 0.849497 0.951197 -0.212584
C35   C     C_3   0.761695 0.157167 0.042035 -0.298083
C36   C     C_3   0.805309 0.792456 0.005040 -0.225900
C37   C     C_3   0.203009 0.202672 0.985528 -0.293979
C38   C     C_R   0.650532 0.811144 0.432361 0.137515
C39   C     C_R   0.284616 0.244279 0.381906 0.123827
C40   C     C_R   0.387945 0.852083 0.643021 0.131860
C41   C     C_R   0.312751 0.101262 0.196381 -0.136723
C42   C     C_R   0.615697 0.154680 0.363840 0.131443
C43   C     C_R   0.112656 0.351617 0.357975 0.132044
C44   C     C_R   0.780288 0.743111 0.361426 0.115473
C45   C     C_R   0.783131 0.256414 0.377059 0.122840
C46   C     C_R   0.215714 0.744590 0.618722 0.122567
C47   C     C_R   0.262770 0.373677 0.403143 -0.230326
C48   C     C_R   0.629624 0.719159 0.309426 -0.243110
C49   C     C_R   0.607206 0.255876 0.261686 -0.223651
C50   C     C_R   0.394369 0.749229 0.741444 -0.228895
C51   C     C_R   0.763709 0.864682 0.405298 -0.219706
C52   C     C_R   0.333250 0.924081 0.183118 -0.128209
C53   C     C_R   0.106140 0.248588 0.259779 -0.229672
C54   C     C_R   0.237942 0.874079 0.597918 -0.228931
C55   C     C_R   0.759907 0.127182 0.396548 -0.225105
C56   C     C_R   0.306540 0.321689 0.416934 -0.186610
C57   C     C_R   0.616481 0.744281 0.365554 -0.164066
C58   C     C_R   0.580711 0.219873 0.293995 -0.178211
C59   C     C_R   0.423178 0.787310 0.713885 -0.181429
C60   C     C_R   0.800595 0.820641 0.396312 -0.174980
C61   C     C_R   0.077358 0.286714 0.287216 -0.182441
C62   C     C_R   0.193966 0.821976 0.583789 -0.185072
C63   C     C_R   0.666524 0.076274 0.816876 -0.128835
C64   C     C_R   0.803933 0.178581 0.409878 -0.187665
C65   C     C_R   0.213503 0.224094 0.314094 -0.291510
C66   C     C_R   0.692266 0.856687 0.433268 -0.279803
C67   C     C_R   0.666720 0.116330 0.379889 -0.273728
C68   C     C_R   0.334243 0.888228 0.622093 -0.277428
C69   C     C_R   0.712276 0.719080 0.304290 -0.272466
C70   C     C_R   0.166564 0.387709 0.379157 -0.278444
C71   C     C_R   0.286845 0.724550 0.686810 -0.292486
C72   C     C_R   0.712377 0.277304 0.309701 -0.272065
C73   C     C_R   0.170669 0.274672 0.304728 0.194037
C74   C     C_R   0.166629 0.423693 0.816958 -0.123318
C75   C     C_R   0.709423 0.829089 0.383324 0.188333
C76   C     C_R   0.696462 0.154463 0.353891 0.188828
C77   C     C_R   0.302764 0.848321 0.644113 0.189981
C78   C     C_R   0.680247 0.757920 0.325306 0.191611
C79   C     C_R   0.197948 0.347807 0.357105 0.190162
C80   C     C_R   0.329867 0.775222 0.696434 0.193866
C81   C     C_R   0.669800 0.227810 0.302130 0.190547
C82   C     C_R   0.325543 0.104480 0.405309 -0.146315
C83   C     C_R   0.662165 0.905434 0.553567 -0.138663
C84   C     C_R   0.643348 0.076998 0.513773 -0.119841
C85   C     C_R   0.832351 0.576908 0.182867 -0.130496
C86   C     C_R   0.360795 0.929249 0.492932 -0.128374
C87   C     C_R   0.824646 0.603938 0.400494 -0.118914
C88   C     C_R   0.139439 0.429240 0.507425 -0.127021
C89   C     C_R   0.174498 0.604675 0.594779 -0.147311
C90   C     C_R   0.825580 0.396351 0.406161 -0.116891
C91   C     C_R   0.443029 0.834954 0.579705 -0.135065
C92   C     C_R   0.558416 0.167890 0.423512 -0.144348
C93   C     C_R   0.578669 0.813083 0.464911 -0.131922
C94   C     C_R   0.408805 0.196689 0.496218 -0.140969
C95   C     C_R   0.908080 0.303329 0.494747 -0.139339
C96   C     C_R   0.812103 0.398379 0.198381 -0.163296
C97   C     C_R   0.091359 0.696762 0.503987 -0.143297
C98   C     C_R   0.057040 0.334823 0.420502 -0.133619
C99   C     C_R   0.906920 0.697298 0.489140 -0.128388
C100  C     C_R   0.582477 0.168443 0.726465 -0.153634
C101  C     C_R   0.415445 0.830589 0.271977 -0.121729
C102  C     C_R   0.395590 0.193559 0.286441 -0.162067
C103  C     C_R   0.605043 0.806249 0.713122 -0.119993
C104  C     C_R   0.101809 0.692156 0.715609 -0.148094
C105  C     C_R   0.894735 0.306171 0.286810 -0.119862
C106  C     C_R   0.916660 0.668926 0.272975 -0.155163
C107  C     C_R   0.186189 0.601008 0.805402 -0.138673
C108  C     C_R   0.081738 0.332738 0.726595 -0.127356
C109  C     C_R   0.675696 0.822981 0.805178 0.070342
C110  C     C_R   0.325519 0.176677 0.192000 0.063463
C111  C     C_R   0.359214 0.864636 0.170401 0.047413
C112  C     C_R   0.640204 0.135880 0.829250 0.068414
C113  C     C_R   0.139240 0.365373 0.829152 0.046390
C114  C     C_R   0.858351 0.636781 0.170310 0.070283
C115  C     C_R   0.824013 0.322684 0.194879 0.072826
C116  C     C_R   0.171559 0.675098 0.811065 0.059158
C117  C     C_R   0.337794 0.183505 0.429193 0.077070
C118  C     C_3   0.694196 0.291946 0.995153 -0.225487
C119  C     C_R   0.636445 0.837592 0.491267 0.061421
C120  C     C_R   0.606212 0.133591 0.431009 0.061544
C121  C     C_R   0.397478 0.872412 0.575555 0.062553
C122  C     C_R   0.835234 0.683602 0.416449 0.063478
C123  C     C_R   0.102833 0.372222 0.424954 0.062569
C124  C     C_R   0.162375 0.683706 0.571097 0.076956
C125  C     C_R   0.837099 0.316970 0.427541 0.066814
C126  C     C_3   0.671517 0.210652 0.994819 0.267936
C127  C     C_3   0.331498 0.766908 0.026048 0.250858
C128  C     C_3   0.290146 0.279819 0.053861 0.269341
H1    H     H_    0.784701 0.920758 0.445398 0.118184
H2    H     H_    0.439415 0.775826 0.286148 0.105163
H3    H     H_    0.537371 0.247702 0.272578 0.121245
H4    H     H_    0.031879 0.260512 0.261620 0.123724
H5    H     H_    0.849943 0.843670 0.431424 0.111817
H6    H     H_    0.856493 0.158540 0.455538 0.114616
H7    H     H_    0.140947 0.841300 0.536686 0.114658
H8    H     H_    0.419828 0.250320 0.315348 0.103202
H9    H     H_    0.580532 0.749527 0.685953 0.091337
H10   H     H_    0.076395 0.748161 0.687153 0.107434
H11   H     H_    0.918895 0.249355 0.314542 0.090036
H12   H     H_    0.946192 0.720189 0.291422 0.109873
H13   H     H_    0.051362 0.282392 0.708179 0.113598
H14   H     H_    0.666743 0.346983 0.977044 0.118315
H15   H     H_    0.309513 0.640279 0.044703 0.127626
H16   H     H_    0.272670 0.410638 0.071310 0.125540
H17   H     H_    0.082864 0.194116 0.215371 0.125805
H18   H     H_    0.707972 0.604006 0.938990 0.124976
H19   H     H_    0.229544 0.910858 0.926463 0.127243
H20   H     H_    0.789989 0.102458 0.061758 0.126002
H21   H     H_    0.833138 0.847216 0.022898 0.119167
H22   H     H_    0.181853 0.142626 0.960122 0.128145
H23   H     H_    0.739091 0.926612 0.854231 0.093602
H24   H     H_    0.261116 0.074023 0.143202 0.087505
H25   H     H_    0.285016 0.956725 0.118016 0.098443
H26   H     H_    0.714150 0.042828 0.881841 0.093436
H27   H     H_    0.215252 0.455854 0.882387 0.095813
H28   H     H_    0.217514 0.931022 0.560761 0.127709
H29   H     H_    0.784399 0.543619 0.118232 0.092522
H30   H     H_    0.760880 0.426194 0.146014 0.090526
H31   H     H_    0.238341 0.575099 0.859355 0.087894
H32   H     H_    0.273910 0.076794 0.341923 0.088095
H33   H     H_    0.713764 0.931237 0.603364 0.087127
H34   H     H_    0.688310 0.045237 0.545609 0.087494
H35   H     H_    0.321583 0.969084 0.468739 0.100092
H36   H     H_    0.773880 0.574536 0.337758 0.082722
H37   H     H_    0.178777 0.469146 0.531788 0.099585
H38   H     H_    0.226084 0.577088 0.658133 0.088005
H39   H     H_    0.779834 0.069992 0.432902 0.121119
H40   H     H_    0.774385 0.424846 0.344179 0.082551
H41   H     H_    0.479558 0.788710 0.634336 0.101134
H42   H     H_    0.521526 0.213942 0.369090 0.102477
H43   H     H_    0.551273 0.758397 0.430070 0.081194
H44   H     H_    0.434319 0.251973 0.516798 0.083628
H45   H     H_    0.932964 0.247939 0.513942 0.083013
H46   H     H_    0.065960 0.751992 0.483545 0.082387
H47   H     H_    0.020379 0.288535 0.365826 0.101775
H48   H     H_    0.932055 0.752686 0.508400 0.085523
H49   H     H_    0.275251 0.741536 0.123982 0.135296
H50   H     H_    0.283334 0.430647 0.440335 0.127834
H51   H     H_    0.691011 0.287564 0.860029 0.129205
H52   H     H_    0.732071 0.663320 0.820854 0.132212
H53   H     H_    0.243035 0.315832 0.163913 0.139893
H54   H     H_    0.765935 0.163470 0.179298 0.139408
H55   H     H_    0.259954 0.806400 0.841479 0.139818
H56   H     H_    0.215620 0.234106 0.872930 0.135379
H57   H     H_    0.808950 0.789075 0.140815 0.129210
H58   H     H_    0.610797 0.136928 0.990788 0.171514
H59   H     H_    0.503682 0.216903 0.869034 0.257991
H60   H     H_    0.522791 0.181998 0.799508 0.252556
H61   H     H_    0.606222 0.665069 0.263932 0.127663
H62   H     H_    0.545473 0.280709 0.851510 0.249407
H63   H     H_    0.404425 0.710017 0.043283 0.160468
H64   H     H_    0.486437 0.814192 0.119731 0.260052
H65   H     H_    0.434812 0.873804 0.121439 0.260349
H66   H     H_    0.398551 0.845696 0.990252 0.248439
H67   H     H_    0.383845 0.229307 0.120040 0.167662
H68   H     H_    0.448551 0.344690 0.168659 0.250319
H69   H     H_    0.418769 0.354966 0.228890 0.245851
H70   H     H_    0.371095 0.401713 0.098519 0.256079
H71   H     H_    0.644648 0.711045 0.962056 0.159812
H72   H     H_    0.584432 0.310603 0.218009 0.126760
H73   H     H_    0.595131 0.837929 0.923835 0.255704
H74   H     H_    0.654017 0.875702 0.922048 0.264539
H75   H     H_    0.690161 0.839279 0.050154 0.247415
H76   H     H_    0.109528 0.738570 0.873955 0.171189
H77   H     H_    0.043929 0.854130 0.808243 0.255775
H78   H     H_    0.084317 0.861847 0.764405 0.242918
H79   H     H_    0.124092 0.910318 0.889235 0.253468
H80   H     H_    0.854429 0.208141 0.038956 0.160150
H81   H     H_    0.905425 0.334345 0.077845 0.255256
H82   H     H_    0.847011 0.373268 0.079807 0.266505
H83   H     H_    0.417536 0.694806 0.785864 0.125043
H84   H     H_    0.810419 0.336661 0.951516 0.244933
H85   H     H_    0.887208 0.635858 0.009365 0.167809
H86   H     H_    0.994711 0.715993 0.129832 0.257201
H87   H     H_    0.976167 0.681268 0.200244 0.252708
H88   H     H_    0.953671 0.779967 0.148324 0.250065
H89   H     H_    0.093970 0.223390 0.968258 0.163412
H90   H     H_    0.017703 0.332983 0.896025 0.253156
H91   H     H_    0.070374 0.386356 0.890999 0.259527
H92   H     H_    0.108044 0.360312 0.023767 0.249412
H93   H     H_    0.716034 0.910268 0.479807 0.112954
H94   H     H_    0.553265 0.219911 0.707967 0.110341
H95   H     H_    0.194319 0.166049 0.281416 0.117067
H96   H     H_    0.309614 0.941038 0.574112 0.119036
H97   H     H_    0.690596 0.062873 0.426447 0.114540
H98   H     H_    0.191317 0.440551 0.427181 0.118992
H99   H     H_    0.692693 0.662137 0.267141 0.112440
H100  H     H_    0.693854 0.335549 0.277818 0.114971
H101  H     H_    0.305906 0.666536 0.719460 0.117113
H102  H     H_    0.581316 0.709391 0.358577 0.118193
H103  H     H_    0.359547 0.341129 0.463827 0.115237
H104  H     H_    0.468568 0.761138 0.739391 0.123517
N1    N     N_R   0.625380 0.928280 0.709340 -0.035673
N2    N     N_R   0.613900 0.929750 0.547530 -0.034468
N3    N     N_R   0.613900 0.070250 0.547530 -0.041517
N4    N     N_R   0.386100 0.929750 0.452470 -0.042417
N5    N     N_R   0.886100 0.570250 0.452470 -0.040553
N6    N     N_R   0.113900 0.429750 0.547530 -0.041675
N7    N     N_R   0.113900 0.570250 0.547530 -0.036896
N8    N     N_R   0.886100 0.429750 0.452470 -0.038283
N9    N     N_R   0.437800 0.869550 0.507970 -0.044648
N10   N     N_R   0.562200 0.130450 0.492030 -0.042233
N11   N     N_R   0.562200 0.869550 0.492030 -0.037047
N12   N     N_R   0.374620 0.071720 0.290660 -0.034365
N13   N     N_R   0.437800 0.130450 0.507970 -0.036526
N14   N     N_R   0.937800 0.369550 0.507970 -0.039271
N15   N     N_R   0.062200 0.630450 0.492030 -0.036934
N16   N     N_R   0.062200 0.369550 0.492030 -0.044129
N17   N     N_R   0.937800 0.630450 0.507970 -0.041201
N18   N     N_R   0.573690 0.128980 0.653840 -0.042004
N19   N     N_R   0.426310 0.871020 0.346160 -0.046053
N20   N     N_R   0.426310 0.128980 0.346160 -0.035664
N21   N     N_R   0.573690 0.871020 0.653840 -0.040709
N22   N     N_R   0.073690 0.628980 0.653840 -0.036982
N23   N     N_R   0.374620 0.928280 0.290660 -0.042362
N24   N     N_R   0.926310 0.371020 0.346160 -0.039413
N25   N     N_R   0.926310 0.628980 0.346160 -0.040691
N26   N     N_R   0.073690 0.371020 0.653840 -0.046335
N27   N     N_2   0.611322 0.193315 0.972696 -0.109493
N28   N     N_2   0.401449 0.757545 0.074144 -0.121015
N29   N     N_2   0.356793 0.281174 0.090043 -0.109199
N30   N     N_2   0.653434 0.753999 0.933613 -0.120591
N31   N     N_2   0.137710 0.789669 0.902400 -0.110323
N32   N     N_2   0.846019 0.251461 0.067431 -0.119729
N33   N     N_2   0.887135 0.692498 0.027164 -0.111604
N34   N     N_R   0.625380 0.071720 0.709340 -0.041180
N35   N     N_2   0.097563 0.268765 0.935499 -0.117807
N36   N     N_R   0.125380 0.428280 0.709340 -0.041810
N37   N     N_R   0.874620 0.571720 0.290660 -0.039558
N38   N     N_R   0.874620 0.428280 0.290660 -0.034789
N39   N     N_R   0.125380 0.571720 0.709340 -0.035426
N40   N     N_R   0.386100 0.070250 0.452470 -0.036737
Ni1   Ni    Ni4+2 0.616560 0.000000 0.627280 0.216348
Ni2   Ni    Ni4+2 0.383440 0.000000 0.372720 0.214056
Ni3   Ni    Ni4+2 0.116560 0.500000 0.627280 0.213594
Ni4   Ni    Ni4+2 0.883440 0.500000 0.372720 0.208407
Ni5   Ni    Ni4+2 0.497990 0.870580 0.500000 0.208592
Ni6   Ni    Ni4+2 0.502010 0.129420 0.500000 0.207037
Ni7   Ni    Ni4+2 0.997990 0.370580 0.500000 0.205430
Ni8   Ni    Ni4+2 0.002010 0.629420 0.500000 0.203122

loop_
_geom_bond_atom_site_label_1
_geom_bond_atom_site_label_2
_ccdc_geom_bond_type
N4    N9    A    
C96   H30   S    
C20   C37   S    
N7    Ni3   S    
C16   C25   S    
C89   N7    A    
N24   Ni7   S    
C108  N26   A    
C11   H53   S    
C47   C79   A    
C37   H22   S    
C4    C8    S    
N26   N36   A    
N11   Ni5   S    
H71   N30   S    
C14   H55   S    
C51   H1    S    
C104  N22   A    
C48   C57   A    
C41   H24   S    
C68   H96   S    
C33   H90   S    
N39   Ni3   S    
C27   N28   S    
N38   Ni4   S    
C16   C36   S    
N2    Ni1   S    
C1    N1    A    
C126  N27   S    
C33   N35   S    
C102  N20   A    
C50   C59   A    
N18   Ni6   S    
C82   N40   A    
C85   C114  A    
H67   N29   S    
C52   N23   A    
C51   C75   A    
C20   C128  S    
C97   C124  A    
C100  N18   A    
C19   C36   S    
C103  H9    S    
C95   N14   A    
C54   H28   S    
C94   C117  A    
C103  C109  A    
C36   H21   S    
C33   H92   S    
C6    C25   S    
C105  H11   S    
C67   H97   S    
N34   Ni1   S    
C83   C119  A    
C28   N29   S    
C30   H78   S    
H85   N33   S    
N22   N39   A    
C63   C112  A    
C65   C73   A    
C13   C23   S    
N7    N15   A    
C30   N31   S    
C26   H59   S    
C13   H16   S    
C85   N37   A    
N15   Ni8   S    
C8    C17   S    
N20   Ni6   S    
C108  H13   S    
N16   Ni7   S    
C42   C58   A    
C61   H4    S    
C1    C109  A    
C104  C116  A    
C32   H87   S    
N22   Ni8   S    
C8    H49   S    
C12   H54   S    
C31   H84   S    
C38   C66   A    
C45   C125  S    
H89   N35   S    
C2    C22   S    
C5    N32   S    
C66   C75   A    
C96   C115  A    
C3    C19   S    
N13   Ni6   S    
C27   H65   S    
C55   H39   S    
C18   C112  S    
C86   N4    A    
C18   C35   S    
C10   C19   S    
C48   C78   A    
C72   C81   A    
C9    H51   S    
N1    N21   A    
N2    N11   A    
C54   C77   A    
C94   H44   S    
C2    C127  S    
C22   C116  S    
C87   H36   S    
C83   H33   S    
C88   N6    A    
C47   H50   S    
C40   C59   A    
C15   H56   S    
C45   C72   A    
N12   Ni2   S    
C9    C118  S    
C39   C65   A    
C46   C124  S    
C69   C78   A    
C101  N19   A    
C85   H29   S    
C6    N33   S    
C88   C123  A    
C59   H104  S    
C69   H99   S    
C71   C80   A    
N5    N17   A    
H76   N31   S    
C105  C115  A    
C64   H6    S    
C29   H75   S    
C19   C109  S    
C71   H101  S    
C98   C123  A    
C17   C111  S    
C4    C34   S    
C11   C20   S    
C44   C122  S    
C46   C71   A    
C99   H48   S    
N23   Ni2   S    
C107  N39   A    
C106  C114  A    
C91   N9    A    
C32   N33   S    
C84   N3    A    
C29   H73   S    
C24   C25   S    
N18   N34   A    
C62   H7    S    
C12   C126  S    
C93   N11   A    
C92   H42   S    
C98   N16   A    
C106  N25   A    
C91   H41   S    
C17   C127  S    
C54   C62   A    
C52   C111  A    
C10   C24   S    
C52   H25   S    
C39   C117  S    
C30   H77   S    
C74   N36   A    
C12   C21   S    
N8    N14   A    
C28   H70   S    
C49   C58   A    
N8    Ni4   S    
C56   H103  S    
C97   H46   S    
C31   N32   S    
C66   H93   S    
C108  C113  A    
C87   N5    A    
C7    C11   S    
C99   N17   A    
N19   Ni5   S    
N3    N10   A    
C5    C9    S    
C21   C118  S    
C40   C121  S    
C26   H60   S    
N9    Ni5   S    
C23   C113  S    
C38   C57   A    
C82   H32   S    
C34   H19   S    
C95   C125  A    
N19   N23   A    
C39   C56   A    
C31   H81   S    
C83   N2    A    
C100  H94   S    
C58   H3    S    
C84   C120  A    
C3    N30   S    
N1    Ni1   S    
C55   C64   A    
N13   N40   A    
C86   C121  A    
C53   H17   S    
C29   N30   S    
C7    C37   S    
C44   C69   A    
C27   H66   S    
C60   H5    S    
H63   N28   S    
C12   C35   S    
C7    N35   S    
C51   C60   A    
H58   N27   S    
C48   H61   S    
N21   Ni5   S    
C99   C122  A    
C20   C110  S    
C38   C119  S    
C46   C62   A    
C50   H83   S    
C100  C112  A    
C43   C70   A    
C15   C128  S    
C91   C121  A    
C42   C67   A    
C103  N21   A    
C102  C110  A    
N5    Ni4   S    
N25   N37   A    
C27   H64   S    
C55   C76   A    
C53   C61   A    
N6    Ni3   S    
C43   C123  S    
C128  N29   S    
C26   N27   S    
C84   H34   S    
C43   C61   A    
C65   H95   S    
C106  H12   S    
C68   C77   A    
C63   N34   A    
C4    C22   S    
C93   H43   S    
C29   H74   S    
N12   N20   A    
N37   Ni4   S    
C90   H40   S    
C70   C79   A    
C127  N28   S    
C33   H91   S    
C53   C73   A    
C77   C80   A    
C26   H62   S    
C2    C8    S    
N4    Ni2   S    
C70   H98   S    
C63   H26   S    
C3    C24   S    
C118  H14   S    
C50   C80   A    
C76   C81   A    
C14   C34   S    
C87   C122  A    
C107  H31   S    
N14   Ni7   S    
C2    H15   S    
C67   C76   A    
C89   C124  A    
C101  C111  A    
C73   C79   A    
C118  C126  S    
C45   C64   A    
C72   H100  S    
C21   C115  S    
H80   N32   S    
N17   Ni8   S    
C90   N8    A    
C41   C110  A    
C10   H52   S    
C14   C22   S    
C6    C36   S    
C105  N24   A    
C92   C120  A    
C32   H86   S    
C92   N10   A    
C97   N15   A    
C15   C37   S    
C25   C114  S    
C101  H2    S    
C28   H69   S    
C13   C128  S    
C57   H102  S    
C11   C13   S    
C42   C120  S    
C17   C34   S    
C31   H82   S    
N24   N38   A    
C9    C18   S    
C44   C60   A    
C4    N31   S    
C7    C23   S    
C30   H79   S    
C5    C35   S    
N36   Ni3   S    
C15   C23   S    
C28   H68   S    
C90   C125  A    
C104  H10   S    
C94   N13   A    
C1    H23   S    
C49   C81   A    
C35   H20   S    
C74   C113  A    
C95   H45   S    
N3    Ni1   S    
C75   C78   A    
C102  H8    S    
C89   H38   S    
C6    C10   S    
C14   C127  S    
C32   H88   S    
C107  C116  A    
C5    C21   S    
N25   Ni8   S    
N40   Ni2   S    
C88   H37   S    
C40   C68   A    
N6    N16   A    
N26   Ni7   S    
N10   Ni6   S    
C41   N12   A    
C24   H18   S    
C86   H35   S    
C93   C119  A    
C82   C117  A    
C16   H57   S    
C96   N38   A    
C74   H27   S    
C18   C126  S    
C3    C16   S    
C98   H47   S    
C47   C56   A    
C49   H72   S    
