data_mof_unit_54216.cif
_audit_creation_date              2012-12-10T16:46:21-0500
_audit_creation_method            fapswitch 2.2
_symmetry_space_group_name_H-M    P1
_symmetry_Int_Tables_number       1
_space_group_crystal_system       triclinic
_cell_length_a                    18.538463
_cell_length_b                    18.538396
_cell_length_c                    34.28913
_cell_angle_alpha                 89.999872
_cell_angle_beta                  89.998798
_cell_angle_gamma                 90.000458
_cell_volume                      11784.260801

loop_
_atom_site_label
_atom_site_type_symbol
_atom_type_description
_atom_site_fract_x
_atom_site_fract_y
_atom_site_fract_z
_atom_type_partial_charge
C1    C     C_R   0.499999 1.000000 0.605694 0.497940
C2    C     C_R   0.131433 0.481871 0.229430 -0.021272
C3    C     C_R   0.564638 0.992202 0.667921 -0.127644
C4    C     C_R   0.507787 0.064640 0.167922 -0.127688
C5    C     C_R   0.935360 0.507786 0.167923 -0.127584
C6    C     C_R   0.492211 0.935360 0.167922 -0.127627
C7    C     C_R   0.064640 0.492210 0.167921 -0.127664
C8    C     C_R   0.999998 0.500000 0.647937 0.021339
C9    C     C_R   0.499999 0.999999 0.647937 0.021309
C10   C     C_R   0.499998 0.000000 0.147937 0.021328
C11   C     C_R   1.000000 0.499999 0.147937 0.021298
C12   C     C_R   0.990939 0.434151 0.708873 -0.003660
C13   C     C_R   0.518129 0.131435 0.229431 -0.021266
C14   C     C_R   0.565848 0.990937 0.708872 -0.003662
C15   C     C_R   0.009058 0.565849 0.708873 -0.003672
C16   C     C_R   0.434150 0.009056 0.708874 -0.003675
C17   C     C_R   0.490947 0.934151 0.208873 -0.003678
C18   C     C_R   0.065849 0.490945 0.208873 -0.003670
C19   C     C_R   0.509054 0.065850 0.208873 -0.003662
C20   C     C_R   0.934150 0.509050 0.208874 -0.003674
C21   C     C_R   1.000000 0.500000 0.729485 0.024235
C22   C     C_R   0.499999 0.999997 0.729485 0.024234
C23   C     C_R   0.500001 0.000001 0.229485 0.024236
C24   C     C_R   0.868566 0.518122 0.229433 -0.021280
C25   C     C_R   1.000000 0.499998 0.229485 0.024234
C26   C     C_R   0.976758 0.298844 0.708231 0.031655
C27   C     C_R   0.034702 0.250164 0.709252 -0.078924
C28   C     C_R   0.030075 0.184428 0.689532 -0.110066
C29   C     C_R   0.968056 0.167178 0.668351 -0.109299
C30   C     C_R   0.909965 0.215261 0.667387 -0.118903
C31   C     C_R   0.914006 0.280778 0.687468 -0.108459
C32   C     C_R   0.701154 0.976757 0.708228 0.031668
C33   C     C_R   0.749836 0.034700 0.709250 -0.078855
C34   C     C_R   0.815572 0.030074 0.689531 -0.110006
C35   C     C_R   0.480275 0.868734 0.270583 -0.020687
C36   C     C_R   0.832823 0.968056 0.668348 -0.109281
C37   C     C_R   0.784739 0.909965 0.667383 -0.118892
C38   C     C_R   0.719220 0.914005 0.687464 -0.108456
C39   C     C_R   0.023235 0.701157 0.708230 0.031669
C40   C     C_R   0.965292 0.749839 0.709257 -0.078852
C41   C     C_R   0.969916 0.815576 0.689538 -0.110009
C42   C     C_R   0.031931 0.832828 0.668353 -0.109290
C43   C     C_R   0.090021 0.784744 0.667383 -0.118901
C44   C     C_R   0.085983 0.719224 0.687463 -0.108461
C45   C     C_R   0.298842 0.023225 0.708235 0.031635
C46   C     C_R   0.131266 0.480270 0.270581 -0.020691
C47   C     C_R   0.250166 0.965277 0.709261 -0.078864
C48   C     C_R   0.184425 0.969898 0.689548 -0.110016
C49   C     C_R   0.167163 0.031915 0.668368 -0.109292
C50   C     C_R   0.215242 0.090010 0.667398 -0.118766
C51   C     C_R   0.280766 0.085975 0.687472 -0.108373
C52   C     C_R   0.476780 0.798841 0.208232 0.031619
C53   C     C_R   0.534726 0.750165 0.209257 -0.078931
C54   C     C_R   0.530105 0.684425 0.189542 -0.110076
C55   C     C_R   0.468089 0.667166 0.168360 -0.109317
C56   C     C_R   0.409996 0.715246 0.167392 -0.118786
C57   C     C_R   0.519729 0.131268 0.270581 -0.020697
C58   C     C_R   0.414031 0.780768 0.187469 -0.108380
C59   C     C_R   0.201157 0.476776 0.208229 0.031631
C60   C     C_R   0.249836 0.534722 0.209255 -0.078924
C61   C     C_R   0.315576 0.530100 0.189539 -0.110074
C62   C     C_R   0.332834 0.468083 0.168357 -0.109310
C63   C     C_R   0.284753 0.409990 0.167389 -0.118776
C64   C     C_R   0.219230 0.414026 0.187466 -0.108374
C65   C     C_R   0.523227 0.201159 0.208229 0.031658
C66   C     C_R   0.465285 0.249841 0.209257 -0.078917
C67   C     C_R   0.469908 0.315578 0.189539 -0.110067
C68   C     C_R   0.868734 0.519723 0.270584 -0.020694
C69   C     C_R   0.531922 0.332828 0.168351 -0.109304
C70   C     C_R   0.590010 0.284743 0.167380 -0.118913
C71   C     C_R   0.585974 0.219224 0.187460 -0.108467
C72   C     C_R   0.798841 0.523211 0.208234 0.031625
C73   C     C_R   0.750164 0.465264 0.209264 -0.078867
C74   C     C_R   0.684422 0.469882 0.189551 -0.110016
C75   C     C_R   0.667160 0.531896 0.168368 -0.109295
C76   C     C_R   0.715241 0.589990 0.167395 -0.118777
C77   C     C_R   0.780764 0.585958 0.187469 -0.108382
C78   C     C_R   0.469571 0.799510 0.291754 0.032063
C79   C     C_R   0.980265 0.368734 0.770582 -0.020695
C80   C     C_R   0.402943 0.763641 0.289831 -0.079688
C81   C     C_R   0.393504 0.697609 0.308830 -0.106038
C82   C     C_R   0.450236 0.667348 0.330137 -0.097124
C83   C     C_R   0.516519 0.703008 0.332367 -0.114964
C84   C     C_R   0.526519 0.768549 0.312958 -0.110704
C85   C     C_R   0.200489 0.469565 0.291751 0.032046
C86   C     C_R   0.236357 0.402937 0.289827 -0.079801
C87   C     C_R   0.302389 0.393498 0.308824 -0.106125
C88   C     C_R   0.332652 0.450231 0.330131 -0.097142
C89   C     C_R   0.296994 0.516514 0.332362 -0.114948
C90   C     C_R   0.631265 0.980261 0.770580 -0.020695
C91   C     C_R   0.231452 0.526514 0.312955 -0.110690
C92   C     C_R   0.530432 0.200492 0.291752 0.032033
C93   C     C_R   0.597058 0.236364 0.289827 -0.079694
C94   C     C_R   0.606495 0.302397 0.308825 -0.106046
C95   C     C_R   0.549762 0.332655 0.330134 -0.097171
C96   C     C_R   0.483481 0.296993 0.332366 -0.114980
C97   C     C_R   0.473483 0.231451 0.312958 -0.110676
C98   C     C_R   0.799510 0.530428 0.291756 0.032058
C99   C     C_R   0.763641 0.597055 0.289832 -0.079698
C100  C     C_R   0.697609 0.606494 0.308831 -0.106043
C101  C     C_R   0.019735 0.631266 0.770582 -0.020694
C102  C     C_R   0.667349 0.549762 0.330139 -0.097132
C103  C     C_R   0.703008 0.483479 0.332370 -0.114972
C104  C     C_R   0.768550 0.473480 0.312962 -0.110706
C105  C     C_R   0.969561 0.299511 0.791753 0.032036
C106  C     C_R   0.902932 0.263644 0.789833 -0.079686
C107  C     C_R   0.893493 0.197613 0.808833 -0.106040
C108  C     C_R   0.950226 0.167351 0.830139 -0.097163
C109  C     C_R   0.016511 0.203009 0.832366 -0.114972
C110  C     C_R   0.026510 0.268549 0.812957 -0.110674
C111  C     C_R   0.700488 0.969555 0.791750 0.032039
C112  C     C_R   0.999999 0.500000 0.605694 0.497762
C113  C     C_R   0.368735 0.019732 0.770584 -0.020696
C114  C     C_R   0.736354 0.902926 0.789827 -0.079794
C115  C     C_R   0.802386 0.893487 0.808825 -0.106120
C116  C     C_R   0.832650 0.950221 0.830130 -0.097136
C117  C     C_R   0.796993 0.016505 0.832360 -0.114944
C118  C     C_R   0.731452 0.026504 0.812953 -0.110695
C119  C     C_R   0.030439 0.700490 0.791752 0.032012
C120  C     C_R   0.097066 0.736360 0.789828 -0.079800
C121  C     C_R   0.106503 0.802393 0.808826 -0.106123
C122  C     C_R   0.049770 0.832653 0.830134 -0.097176
C123  C     C_R   0.983488 0.796992 0.832365 -0.114958
C124  C     C_R   0.489160 0.934399 0.291123 -0.004203
C125  C     C_R   0.973490 0.731450 0.812958 -0.110667
C126  C     C_R   0.299512 0.030437 0.791756 0.032016
C127  C     C_R   0.263645 0.097066 0.789834 -0.079810
C128  C     C_R   0.197614 0.106505 0.808834 -0.106126
C129  C     C_R   0.167352 0.049771 0.830141 -0.097181
C130  C     C_R   0.203009 0.983487 0.832370 -0.114961
C131  C     C_R   0.268550 0.973488 0.812961 -0.110662
C132  C     C_R   0.065601 0.489156 0.291123 -0.004208
C133  C     C_R   0.510844 0.065603 0.291123 -0.004201
C134  C     C_R   0.934399 0.510840 0.291124 -0.004205
C135  C     C_R   0.989155 0.434399 0.791123 -0.004200
C136  C     C_R   0.565601 0.989151 0.791122 -0.004206
C137  C     C_R   0.010847 0.565601 0.791123 -0.004197
C138  C     C_R   0.434400 0.010844 0.791124 -0.004201
C139  C     C_R   0.500002 0.000001 0.270511 0.024280
C140  C     C_R   0.000000 0.500000 0.105694 0.497933
C141  C     C_R   1.000000 0.499998 0.270511 0.024281
C142  C     C_R   0.000001 0.500000 0.770511 0.024282
C143  C     C_R   0.500000 0.999998 0.770511 0.024284
C144  C     C_R   0.486984 0.936177 0.332048 -0.128918
C145  C     C_R   0.063824 0.486981 0.332047 -0.129006
C146  C     C_R   0.513020 0.063825 0.332047 -0.128863
C147  C     C_R   0.936176 0.513017 0.332049 -0.128924
C148  C     C_R   0.986980 0.436176 0.832048 -0.128846
C149  C     C_R   0.563824 0.986976 0.832047 -0.128992
C150  C     C_R   0.013024 0.563823 0.832047 -0.128929
C151  C     C_R   0.499999 1.000000 0.105694 0.497757
C152  C     C_R   0.436178 0.013022 0.832048 -0.128933
C153  C     C_R   0.500002 0.000001 0.352042 0.020110
C154  C     C_R   0.000000 0.500000 0.352042 0.020045
C155  C     C_R   0.000002 0.500000 0.852042 0.020138
C156  C     C_R   0.500001 0.000000 0.852042 0.020073
C157  C     C_R   0.500001 0.000001 0.394290 0.498635
C158  C     C_R   0.000000 0.500000 0.394290 0.498619
C159  C     C_R   0.000001 0.500000 0.894289 0.498645
C160  C     C_R   0.500001 0.000000 0.894289 0.498629
C161  C     C_R   0.361619 0.138718 0.499935 0.511212
C162  C     C_R   0.981861 0.368567 0.729432 -0.021266
C163  C     C_R   0.861558 0.361341 0.500146 0.511243
C164  C     C_R   0.638659 0.861558 0.500146 0.511239
C165  C     C_R   0.138441 0.638659 0.500146 0.511329
C166  C     C_R   0.638377 0.138724 0.499930 0.511947
C167  C     C_R   0.138447 0.361347 0.500141 0.512073
C168  C     C_R   0.361623 0.861276 0.499931 0.512021
C169  C     C_R   0.861276 0.638377 0.499931 0.512039
C170  C     C_R   0.861618 0.638718 0.999935 0.511312
C171  C     C_R   0.361281 0.861618 0.999935 0.511325
C172  C     C_R   0.138382 0.361282 0.999935 0.511236
C173  C     C_R   0.631432 0.981858 0.729430 -0.021266
C174  C     C_R   0.638441 0.138659 0.000146 0.511343
C175  C     C_R   0.138653 0.638447 0.000141 0.511967
C176  C     C_R   0.638447 0.861347 0.000141 0.512058
C177  C     C_R   0.861623 0.361276 0.999931 0.511924
C178  C     C_R   0.361553 0.138652 0.000141 0.511976
C179  C     C_2   0.193230 0.750626 0.477041 -0.160267
C180  C     C_2   0.248244 0.192102 0.477896 -0.160316
C181  C     C_2   0.806770 0.249376 0.477040 -0.160183
C182  C     C_2   0.750626 0.806771 0.477041 -0.160251
C183  C     C_2   0.807903 0.751764 0.477898 -0.159552
C184  C     C_R   0.018136 0.631433 0.729431 -0.021266
C185  C     C_2   0.751764 0.192098 0.477898 -0.159528
C186  C     C_2   0.193226 0.249370 0.477044 -0.159528
C187  C     C_2   0.248236 0.807904 0.477899 -0.159612
C188  C     C_2   0.693230 0.250626 0.977040 -0.160192
C189  C     C_2   0.748243 0.692102 0.977896 -0.160334
C190  C     C_2   0.307898 0.748243 0.977895 -0.160276
C191  C     C_2   0.251757 0.307896 0.977894 -0.160251
C192  C     C_2   0.306775 0.250629 0.977043 -0.159520
C193  C     C_2   0.250630 0.693225 0.977043 -0.159591
C194  C     C_2   0.693225 0.749369 0.977044 -0.159604
C195  C     C_R   0.368567 0.018132 0.729434 -0.021273
C196  C     C_2   0.748237 0.307903 0.977899 -0.159593
C197  C     C_2   0.193403 0.694331 0.501622 -0.095707
C198  C     C_2   0.308225 0.195958 0.499680 -0.095991
C199  C     C_2   0.806595 0.305670 0.501622 -0.095725
C200  C     C_2   0.694329 0.806595 0.501621 -0.095733
C201  C     C_2   0.804021 0.691757 0.499661 -0.095063
C202  C     C_2   0.691755 0.195980 0.499659 -0.095091
C203  C     C_2   0.193429 0.305697 0.501604 -0.094924
C204  C     C_2   0.308244 0.804020 0.499660 -0.095060
C205  C     C_2   0.693403 0.194331 0.001622 -0.095695
C206  C     C_R   0.481875 0.868566 0.229432 -0.021279
C207  C     C_2   0.808224 0.695957 0.999681 -0.095959
C208  C     C_2   0.304042 0.808225 0.999680 -0.095961
C209  C     C_2   0.191776 0.304043 0.999680 -0.095991
C210  C     C_2   0.306568 0.194301 0.001603 -0.094954
C211  C     C_2   0.194302 0.693430 0.001603 -0.094962
C212  C     C_2   0.693430 0.805698 0.001603 -0.094936
C213  C     C_2   0.808245 0.304019 0.999660 -0.095092
C214  C     C_R   0.007793 0.564640 0.667921 -0.127608
C215  C     C_R   0.435360 0.007794 0.667923 -0.127583
C216  C     C_R   0.992203 0.435361 0.667922 -0.127687
H1    H     H_    0.150638 0.755949 0.455471 0.155163
H2    H     H_    0.738864 0.645458 0.959400 0.155249
H3    H     H_    0.657828 0.329962 0.307028 0.102445
H4    H     H_    0.557072 0.383656 0.344959 0.099599
H5    H     H_    0.439855 0.320118 0.349156 0.100080
H6    H     H_    0.421637 0.204671 0.314510 0.104242
H7    H     H_    0.786676 0.641392 0.273460 0.105488
H8    H     H_    0.670047 0.657828 0.307035 0.102440
H9    H     H_    0.616348 0.557073 0.344965 0.099608
H10   H     H_    0.679881 0.439854 0.349160 0.100048
H11   H     H_    0.795327 0.421633 0.314512 0.104101
H12   H     H_    0.858594 0.286680 0.773464 0.105505
H13   H     H_    0.354543 0.738863 0.959399 0.155371
H14   H     H_    0.842157 0.170052 0.807041 0.102440
H15   H     H_    0.942915 0.116352 0.844965 0.099604
H16   H     H_    0.060137 0.179881 0.849154 0.100066
H17   H     H_    0.078359 0.295325 0.814504 0.104227
H18   H     H_    0.713317 0.858588 0.773459 0.105495
H19   H     H_    0.829947 0.842151 0.807031 0.102479
H20   H     H_    0.883651 0.942910 0.844955 0.099635
H21   H     H_    0.820122 0.060131 0.849148 0.100076
H22   H     H_    0.704677 0.078353 0.814503 0.104112
H23   H     H_    0.141404 0.713325 0.773458 0.105493
H24   H     H_    0.261138 0.354540 0.959398 0.155398
H25   H     H_    0.157837 0.829957 0.807031 0.102482
H26   H     H_    0.057079 0.883654 0.844959 0.099625
H27   H     H_    0.939861 0.820118 0.849154 0.100112
H28   H     H_    0.921643 0.704672 0.814508 0.104257
H29   H     H_    0.286682 0.141403 0.773465 0.105480
H30   H     H_    0.170054 0.157840 0.807041 0.102476
H31   H     H_    0.116352 0.057082 0.844968 0.099612
H32   H     H_    0.179881 0.939860 0.849158 0.100099
H33   H     H_    0.295325 0.921639 0.814509 0.104247
H34   H     H_    0.349401 0.255985 0.955496 0.155661
H35   H     H_    0.255985 0.650601 0.955495 0.155565
H36   H     H_    0.650600 0.744012 0.955497 0.155543
H37   H     H_    0.738830 0.354574 0.959426 0.155522
H38   H     H_    0.233689 0.687882 0.524138 0.105915
H39   H     H_    0.320579 0.242142 0.517719 0.106241
H40   H     H_    0.766307 0.312119 0.524138 0.105871
H41   H     H_    0.238863 0.145457 0.459401 0.155269
H42   H     H_    0.687876 0.766305 0.524135 0.105890
H43   H     H_    0.757798 0.679373 0.517667 0.106321
H44   H     H_    0.679369 0.242206 0.517662 0.106273
H45   H     H_    0.233761 0.312199 0.524091 0.106023
H46   H     H_    0.320630 0.757793 0.517662 0.106352
H47   H     H_    0.733689 0.187883 0.024138 0.105894
H48   H     H_    0.820577 0.742140 0.017721 0.106288
H49   H     H_    0.257858 0.820579 0.017719 0.106257
H50   H     H_    0.179421 0.257860 0.017721 0.106210
H51   H     H_    0.266234 0.187798 0.024089 0.105998
H52   H     H_    0.849363 0.244053 0.455471 0.155282
H53   H     H_    0.187800 0.733762 0.024090 0.106017
H54   H     H_    0.733764 0.812202 0.024088 0.106043
H55   H     H_    0.820631 0.257793 0.017662 0.106303
H56   H     H_    0.012800 0.613595 0.650942 0.120153
H57   H     H_    0.386404 0.012803 0.650945 0.120239
H58   H     H_    0.987196 0.386405 0.650943 0.120070
H59   H     H_    0.613593 0.987194 0.650941 0.120142
H60   H     H_    0.512789 0.113596 0.150942 0.120072
H61   H     H_    0.886404 0.512789 0.150945 0.120243
H62   H     H_    0.487209 0.886404 0.150944 0.120172
H63   H     H_    0.755952 0.849365 0.455472 0.155184
H64   H     H_    0.113596 0.487208 0.150942 0.120159
H65   H     H_    0.476234 0.888074 0.348974 0.121216
H66   H     H_    0.111926 0.476231 0.348973 0.121127
H67   H     H_    0.523770 0.111928 0.348973 0.121222
H68   H     H_    0.888074 0.523768 0.348975 0.121219
H69   H     H_    0.976227 0.388075 0.848974 0.121221
H70   H     H_    0.611925 0.976223 0.848972 0.121126
H71   H     H_    0.023777 0.611925 0.848973 0.121130
H72   H     H_    0.388077 0.023776 0.848975 0.121134
H73   H     H_    0.083241 0.263134 0.725380 0.105642
H74   H     H_    0.854572 0.761169 0.459424 0.155623
H75   H     H_    0.074589 0.146951 0.690722 0.113903
H76   H     H_    0.964879 0.116386 0.652874 0.098636
H77   H     H_    0.861749 0.201652 0.651181 0.109191
H78   H     H_    0.868672 0.317597 0.686700 0.108164
H79   H     H_    0.736865 0.083239 0.725379 0.105652
H80   H     H_    0.853049 0.074589 0.690721 0.113923
H81   H     H_    0.883616 0.964879 0.652872 0.098624
H82   H     H_    0.798349 0.861748 0.651176 0.109184
H83   H     H_    0.682402 0.868670 0.686695 0.108155
H84   H     H_    0.916756 0.736867 0.725388 0.105660
H85   H     H_    0.761173 0.145427 0.459425 0.155653
H86   H     H_    0.925403 0.853054 0.690733 0.113928
H87   H     H_    0.035107 0.883622 0.652878 0.098616
H88   H     H_    0.138235 0.798354 0.651174 0.109175
H89   H     H_    0.131318 0.682406 0.686691 0.108148
H90   H     H_    0.263144 0.916740 0.725389 0.105659
H91   H     H_    0.146951 0.925380 0.690743 0.113937
H92   H     H_    0.116366 0.035088 0.652896 0.098601
H93   H     H_    0.201624 0.138226 0.651193 0.109214
H94   H     H_    0.317580 0.131314 0.686701 0.108221
H95   H     H_    0.583263 0.763140 0.225386 0.105639
H96   H     H_    0.150602 0.244015 0.455495 0.155648
H97   H     H_    0.574621 0.646950 0.190735 0.113913
H98   H     H_    0.464915 0.616370 0.152887 0.098612
H99   H     H_    0.361781 0.701630 0.151185 0.109222
H100  H     H_    0.368694 0.817583 0.186698 0.108232
H101  H     H_    0.236860 0.583259 0.225384 0.105642
H102  H     H_    0.353052 0.574615 0.190733 0.113919
H103  H     H_    0.383630 0.464908 0.152884 0.098621
H104  H     H_    0.298369 0.361774 0.151182 0.109232
H105  H     H_    0.182414 0.368689 0.186695 0.108230
H106  H     H_    0.416750 0.236871 0.225390 0.105646
H107  H     H_    0.238829 0.854575 0.459427 0.155503
H108  H     H_    0.425395 0.353056 0.190734 0.113918
H109  H     H_    0.535097 0.383622 0.152876 0.098634
H110  H     H_    0.638223 0.298353 0.151169 0.109188
H111  H     H_    0.631307 0.182405 0.186687 0.108156
H112  H     H_    0.763142 0.416729 0.225395 0.105653
H113  H     H_    0.646948 0.425365 0.190749 0.113945
H114  H     H_    0.616363 0.535067 0.152897 0.098598
H115  H     H_    0.701622 0.638203 0.151187 0.109209
H116  H     H_    0.817579 0.631296 0.186695 0.108222
H117  H     H_    0.358606 0.786676 0.273461 0.105494
H118  H     H_    0.650640 0.255948 0.955471 0.155267
H119  H     H_    0.342169 0.670047 0.307036 0.102440
H120  H     H_    0.442925 0.616348 0.344963 0.099618
H121  H     H_    0.560145 0.679881 0.349155 0.100059
H122  H     H_    0.578366 0.795327 0.314508 0.104104
H123  H     H_    0.213320 0.358600 0.273457 0.105481
H124  H     H_    0.329951 0.342163 0.307029 0.102479
H125  H     H_    0.383653 0.442920 0.344955 0.099627
H126  H     H_    0.320121 0.560139 0.349150 0.100087
H127  H     H_    0.204676 0.578361 0.314505 0.104120
H128  H     H_    0.641395 0.213331 0.273455 0.105498
O1    O     O_3   0.500000 0.000000 0.500000 -0.441993
O2    O     O_R   0.560130 0.000000 0.087440 -0.538837
O3    O     O_R   1.000000 0.560130 0.087440 -0.538622
O4    O     O_R   0.439870 0.000000 0.087440 -0.538603
O5    O     O_R   0.439940 0.000000 0.412560 -0.539864
O6    O     O_R   1.000000 0.439940 0.412560 -0.540212
O7    O     O_R   0.560060 0.000000 0.412560 -0.540093
O8    O     O_R   1.000000 0.560060 0.412560 -0.539996
O9    O     O_R   0.939940 0.500000 0.912560 -0.539867
O10   O     O_R   0.500000 0.939940 0.912560 -0.539993
O11   O     O_R   0.060060 0.500000 0.912560 -0.540092
O12   O     O_3   1.000000 0.500000 0.500000 -0.441996
O13   O     O_R   0.500000 0.060060 0.912560 -0.540216
O14   O     O_R   0.415450 0.144560 0.522930 -0.541259
O15   O     O_R   0.855440 0.415450 0.522930 -0.541261
O16   O     O_R   0.584550 0.855440 0.522930 -0.541225
O17   O     O_R   0.144560 0.584550 0.522930 -0.540988
O18   O     O_R   0.584550 0.144560 0.522930 -0.540675
O19   O     O_R   0.144560 0.415450 0.522930 -0.540423
O20   O     O_R   0.415450 0.855440 0.522930 -0.540414
O21   O     O_R   0.855440 0.584550 0.522930 -0.540444
O22   O     O_R   0.915450 0.644560 0.022930 -0.541033
O23   O     O_3   0.000000 0.500000 0.000000 -0.441991
O24   O     O_R   0.355440 0.915450 0.022930 -0.541065
O25   O     O_R   0.084550 0.355440 0.022930 -0.541297
O26   O     O_R   0.644560 0.084550 0.022930 -0.541030
O27   O     O_R   0.084550 0.644560 0.022930 -0.540617
O28   O     O_R   0.644560 0.915450 0.022930 -0.540381
O29   O     O_R   0.915450 0.355440 0.022930 -0.540639
O30   O     O_R   0.355440 0.084550 0.022930 -0.540652
O31   O     O_R   0.644640 0.915430 0.477080 -0.541627
O32   O     O_R   0.084570 0.644640 0.477080 -0.541652
O33   O     O_R   0.355360 0.084570 0.477080 -0.541623
O34   O     O_3   0.500000 0.000000 0.000000 -0.441994
O35   O     O_R   0.915430 0.355360 0.477080 -0.541486
O36   O     O_R   0.355360 0.915430 0.477080 -0.541478
O37   O     O_R   0.915430 0.644640 0.477080 -0.541340
O38   O     O_R   0.644640 0.084570 0.477080 -0.541320
O39   O     O_R   0.084570 0.355360 0.477080 -0.541352
O40   O     O_R   0.144640 0.415430 0.977080 -0.541466
O41   O     O_R   0.584570 0.144640 0.977080 -0.541489
O42   O     O_R   0.855360 0.584570 0.977080 -0.541620
O43   O     O_R   0.415430 0.855360 0.977080 -0.541485
O44   O     O_R   0.855360 0.415430 0.977080 -0.541480
O45   O     O_R   0.500000 0.939870 0.587440 -0.538612
O46   O     O_R   0.415430 0.144640 0.977080 -0.541349
O47   O     O_R   0.144640 0.584570 0.977080 -0.541494
O48   O     O_R   0.584570 0.855360 0.977080 -0.541518
O49   O     O_R   0.060130 0.500000 0.587440 -0.538842
O50   O     O_R   0.500000 0.060130 0.587440 -0.538376
O51   O     O_R   0.939870 0.500000 0.587440 -0.538593
O52   O     O_R   0.000000 0.439870 0.087440 -0.538370
Zn1   Zn    Zn3+2 0.414160 0.000000 0.467250 0.934023
Zn2   Zn    Zn3+2 0.914220 0.500000 0.532750 0.939397
Zn3   Zn    Zn3+2 0.500000 0.914220 0.532750 0.939564
Zn4   Zn    Zn3+2 0.085780 0.500000 0.532750 0.939487
Zn5   Zn    Zn3+2 0.000000 0.585780 0.032750 0.939552
Zn6   Zn    Zn3+2 0.414220 0.000000 0.032750 0.939385
Zn7   Zn    Zn3+2 0.000000 0.414220 0.032750 0.939461
Zn8   Zn    Zn3+2 0.585780 0.000000 0.032750 0.939485
Zn9   Zn    Zn3+2 1.000000 0.414160 0.467250 0.934006
Zn10  Zn    Zn3+2 0.585840 0.000000 0.467250 0.933943
Zn11  Zn    Zn3+2 1.000000 0.585840 0.467250 0.934091
Zn12  Zn    Zn3+2 0.914160 0.500000 0.967250 0.934025
Zn13  Zn    Zn3+2 0.500000 0.914160 0.967250 0.934085
Zn14  Zn    Zn3+2 0.085840 0.500000 0.967250 0.933936
Zn15  Zn    Zn3+2 0.500000 0.085840 0.967250 0.934007
Zn16  Zn    Zn3+2 0.500000 0.085780 0.532750 0.939461

loop_
_geom_bond_atom_site_label_1
_geom_bond_atom_site_label_2
_ccdc_geom_bond_type
C105  C110  A    
O35   Zn9   S    
C126  C127  A    
C87   C88   A    
O23   Zn12  S    
C114  C115  A    
C158  O6    A    
C69   H109  S    
C111  C118  A    
C185  H85   S    
C35   C124  A    
C154  C158  S    
C8    C214  A    
C138  C143  A    
C193  C211  D    
C106  C107  A    
C208  H49   S    
C108  C109  A    
C149  H70   S    
C182  C183  S    
O2    Zn8   S    
C189  C194  S    
C135  C142  A    
C152  C156  A    
C89   H126  S    
O31   Zn10  S    
O10   Zn13  S    
C117  H21   S    
C59   C60   A    
C188  H118  S    
C18   C25   A    
C45   C47   A    
C73   C74   A    
C209  H50   S    
C84   H122  S    
C188  C205  D    
C63   H104  S    
C183  C201  D    
C177  C213  S    
C40   H84   S    
C114  H18   S    
C164  O31   A    
C101  C137  A    
C2    C59   S    
C175  O47   A    
O8    Zn11  S    
C196  H37   S    
C176  O48   A    
C102  H9    S    
C176  C212  S    
C54   H97   S    
C101  C119  S    
C185  C202  D    
C16   C215  A    
C19   C23   A    
C11   C140  S    
C166  O18   A    
C37   C38   A    
O23   Zn7   S    
C10   C151  S    
O30   Zn6   S    
C15   C184  A    
C213  H55   S    
C214  H56   S    
C192  C210  D    
C33   H79   S    
C101  C184  A    
C52   C58   A    
C34   H80   S    
C180  H41   S    
C166  O38   A    
C133  C139  A    
C43   C44   A    
C194  H36   S    
C88   H125  S    
C12   C216  A    
C161  O14   A    
C6    H62   S    
C169  O37   A    
O5    Zn1   S    
O41   Zn15  S    
C129  H31   S    
C17   C206  A    
C204  H46   S    
C72   C73   A    
C8    C216  A    
C152  H72   S    
C165  O17   A    
O12   Zn9   S    
C43   H88   S    
C35   C78   S    
O29   Zn7   S    
C174  O41   A    
C130  C131  A    
C16   C195  A    
C134  C141  A    
C147  H68   S    
C32   C173  S    
O1    Zn1   S    
C82   H120  S    
C94   H3    S    
C53   H95   S    
C69   C70   A    
C68   C98   S    
C180  C198  D    
C120  H23   S    
C194  C212  D    
C88   C89   A    
C98   C99   A    
C144  H65   S    
C211  H53   S    
C165  C197  S    
C30   H77   S    
C137  C142  A    
C62   H103  S    
C57   C92   S    
C124  C139  A    
C49   H92   S    
C128  C129  A    
C123  H27   S    
C5    C20   A    
C85   C86   A    
C9    C215  A    
O6    Zn9   S    
C121  H25   S    
C207  H48   S    
C17   C23   A    
C161  C198  S    
C132  C145  A    
C36   C37   A    
C160  O10   A    
C21   C142  A    
C14   C173  A    
O23   Zn5   S    
C46   C132  A    
C177  O44   A    
C192  H34   S    
C13   C57   A    
C115  C116  A    
C86   H123  S    
C178  C210  S    
C151  O4    A    
C112  O49   A    
C83   C84   A    
C107  C108  A    
C148  C155  A    
C175  C211  S    
C89   C91   A    
C39   C184  S    
C31   H78   S    
C51   H94   S    
C64   H105  S    
C66   C67   A    
C163  C199  S    
C170  O42   A    
C179  H1    S    
C90   C111  S    
C92   C97   A    
C163  O15   A    
C42   H87   S    
O12   Zn11  S    
C99   H7    S    
O45   Zn3   S    
C155  C159  S    
C77   H116  S    
O43   Zn13  S    
C172  C209  S    
C55   H98   S    
C39   C40   A    
C113  C126  S    
C187  H107  S    
O1    Zn3   S    
C177  O29   A    
C1    O50   A    
C168  C204  S    
C29   C30   A    
C3    C9    A    
C181  H52   S    
C35   C206  A    
O46   Zn15  S    
C212  H54   S    
C176  O28   A    
C169  O21   A    
C29   H76   S    
O21   Zn2   S    
C180  C186  S    
C191  C209  D    
C145  C154  A    
O1    Zn10  S    
C197  H38   S    
C96   H5    S    
C150  C155  A    
C168  O36   A    
C137  C150  A    
C58   H100  S    
C181  C199  D    
O15   Zn2   S    
C52   C53   A    
C24   C72   S    
C129  C130  A    
O50   Zn16  S    
C191  H24   S    
C6    C17   A    
C54   C55   A    
C26   C31   A    
C48   H91   S    
C41   H86   S    
C3    H59   S    
C39   C44   A    
C14   C22   A    
C166  C202  S    
C117  C118  A    
O48   Zn13  S    
C112  O51   A    
O9    Zn12  S    
C56   C58   A    
C186  C203  D    
C34   C36   A    
O34   Zn6   S    
C61   C62   A    
O23   Zn14  S    
C76   H115  S    
C50   H93   S    
C12   C162  A    
C63   C64   A    
C49   C50   A    
C91   H127  S    
C178  O30   A    
C131  H33   S    
C55   C56   A    
C71   H111  S    
C210  H51   S    
C41   C42   A    
C57   C133  A    
C115  H19   S    
C136  C149  A    
C170  O22   A    
C70   H110  S    
C120  C121  A    
C157  O5    A    
C134  C147  A    
C26   C27   A    
C28   C29   A    
C66   H106  S    
C5    C11   A    
C8    C112  S    
C30   C31   A    
O51   Zn2   S    
C123  C125  A    
C179  C187  S    
C20   C25   A    
O13   Zn15  S    
O11   Zn14  S    
C132  C141  A    
C97   H6    S    
C125  H28   S    
C178  O46   A    
C160  O13   A    
C190  C193  S    
C70   C71   A    
C167  C203  S    
O22   Zn5   S    
O40   Zn14  S    
C46   C85   S    
C118  H22   S    
C175  O27   A    
C83   H121  S    
C163  O35   A    
C13   C19   A    
C182  C200  D    
O12   Zn4   S    
C130  H32   S    
C86   C87   A    
C205  H47   S    
C138  C152  A    
C53   C54   A    
C26   C162  S    
C191  C192  S    
C60   C61   A    
C201  H43   S    
C62   C63   A    
C74   H113  S    
C202  H44   S    
C168  O20   A    
C116  H20   S    
C171  O43   A    
C95   H4    S    
O16   Zn3   S    
C1    C9    S    
C27   H73   S    
O47   Zn14  S    
C121  C122  A    
C3    C14   A    
C119  C125  A    
C48   C49   A    
O49   Zn4   S    
O18   Zn16  S    
C148  H69   S    
O42   Zn12  S    
O44   Zn12  S    
O34   Zn13  S    
C106  H12   S    
O36   Zn1   S    
C42   C43   A    
C174  O26   A    
C79   C162  A    
C127  C128  A    
O3    Zn5   S    
C189  H2    S    
C104  H11   S    
C37   H82   S    
C157  O7    A    
C16   C22   A    
C215  H57   S    
C25   C141  A    
C28   H75   S    
C6    C10   A    
C119  C120  A    
C182  H63   S    
C156  C160  S    
C136  C143  A    
C79   C135  A    
C105  C106  A    
C203  H45   S    
C190  H13   S    
C128  H30   S    
C32   C33   A    
C68   C134  A    
C151  O2    A    
C80   H117  S    
C109  C110  A    
C146  C153  A    
C189  C207  D    
C1    O45   A    
C187  C204  D    
C92   C93   A    
C109  H16   S    
C111  C114  A    
C78   C80   A    
C153  C157  S    
C94   C95   A    
C24   C68   A    
C169  C201  S    
C82   C83   A    
C107  H14   S    
C103  C104  A    
C100  H8    S    
C113  C138  A    
C172  O40   A    
O12   Zn2   S    
C133  C146  A    
C164  C200  S    
C198  H39   S    
C45   C195  S    
C140  O52   A    
C93   C94   A    
C2    C18   A    
C44   H89   S    
C95   C96   A    
C75   C76   A    
O17   Zn4   S    
C81   C82   A    
C85   C91   A    
C164  O16   A    
C122  H26   S    
C13   C65   S    
C2    C46   A    
C103  H10   S    
C7    C11   A    
C90   C173  A    
C59   C64   A    
C165  O32   A    
C52   C206  S    
C23   C139  A    
C149  C156  A    
C159  O11   A    
C159  O9    A    
C199  H40   S    
C45   C51   A    
C116  C117  A    
C79   C105  S    
C186  H96   S    
C144  C153  A    
C147  C154  A    
O37   Zn11  S    
C4    C19   A    
C20   C24   A    
C22   C143  A    
C172  O25   A    
C174  C205  S    
O34   Zn15  S    
C127  H29   S    
C32   C38   A    
C87   H124  S    
C140  O3    A    
C56   H99   S    
C38   H83   S    
C167  O19   A    
C113  C195  A    
C102  C103  A    
C15   C214  A    
C145  H66   S    
O52   Zn7   S    
C50   C51   A    
C61   H102  S    
C74   C75   A    
O4    Zn6   S    
C4    H60   S    
C47   C48   A    
O33   Zn1   S    
C5    H61   S    
C76   C77   A    
O28   Zn8   S    
C181  C185  S    
O1    Zn16  S    
C158  O8    A    
C179  C197  D    
C65   C71   A    
C12   C21   A    
C67   C69   A    
C72   C77   A    
C90   C136  A    
C99   C100  A    
C81   H119  S    
C7    C18   A    
C96   C97   A    
C100  C102  A    
C33   C34   A    
O7    Zn10  S    
C93   H128  S    
C161  O33   A    
C190  C208  D    
C40   C41   A    
C65   C66   A    
O34   Zn8   S    
C167  O39   A    
C150  H71   S    
C4    C10   A    
O14   Zn16  S    
O32   Zn11  S    
C75   H114  S    
C183  H74   S    
C80   C81   A    
C110  H17   S    
C200  H42   S    
O27   Zn5   S    
O25   Zn7   S    
O19   Zn4   S    
O26   Zn8   S    
C170  C207  S    
O39   Zn9   S    
C196  C213  D    
O38   Zn10  S    
C36   H81   S    
C126  C131  A    
C98   C104  A    
O24   Zn6   S    
C47   H90   S    
C193  H35   S    
C171  O24   A    
C67   H108  S    
C73   H112  S    
C78   C84   A    
C15   C21   A    
C188  C196  S    
C135  C148  A    
C27   C28   A    
C122  C123  A    
C216  H58   S    
C124  C144  A    
C171  C208  S    
O20   Zn3   S    
C146  H67   S    
C7    H64   S    
C60   H101  S    
C108  H15   S    
