data_mof_unit_8320.cif
_audit_creation_date              2012-10-26T21:19:34-0400
_audit_creation_method            fapswitch 2.2
_symmetry_space_group_name_H-M    P1
_symmetry_Int_Tables_number       1
_space_group_crystal_system       triclinic
_cell_length_a                    10.833645
_cell_length_b                    15.097626
_cell_length_c                    13.86983
_cell_angle_alpha                 89.406296
_cell_angle_beta                  90.161003
_cell_angle_gamma                 91.054784
_cell_volume                      2268.0676153

loop_
_atom_site_label
_atom_site_type_symbol
_atom_type_description
_atom_site_fract_x
_atom_site_fract_y
_atom_site_fract_z
_atom_type_partial_charge
C1    C     C_R   0.501867 0.329962 0.500337 0.535816
C2    C     C_R   0.475107 0.814940 0.416895 -0.177597
C3    C     C_R   0.509442 0.233750 0.500659 -0.035902
C4    C     C_R   0.509313 0.766875 0.499231 -0.035471
C5    C     C_R   0.569102 0.191299 0.424981 -0.128675
C6    C     C_R   0.552118 0.811658 0.581201 -0.110683
C7    C     C_R   0.578948 0.098997 0.425410 0.252736
C8    C     C_R   0.561607 0.903875 0.580901 0.253126
C9    C     C_R   0.521666 0.049154 0.499708 0.053340
C10   C     C_R   0.522400 0.951998 0.499125 0.054999
C11   C     C_R   0.586060 0.551973 0.107558 -0.124216
C12   C     C_R   0.502102 0.670211 0.499647 0.541540
C13   C     C_R   0.453073 0.429890 0.894869 -0.125306
C14   C     C_R   0.583539 0.552654 0.209708 0.440277
C15   C     C_R   0.450693 0.429865 0.793301 0.428280
C16   C     C_R   0.262161 0.502964 0.499467 0.528429
C17   C     C_R   0.737612 0.497964 0.500419 0.538213
C18   C     C_R   0.414097 0.451177 0.209685 0.010259
C19   C     C_R   0.547553 0.571509 0.789301 0.009178
C20   C     C_R   0.410171 0.452748 0.108396 -0.162215
C21   C     C_R   0.546124 0.575005 0.890787 -0.166354
C22   C     C_R   0.497658 0.503147 0.054982 -0.017539
C23   C     C_R   0.871270 0.496934 0.501388 -0.018530
C24   C     C_R   0.498458 0.503240 0.945830 -0.024551
C25   C     C_R   0.242268 0.674995 0.236593 -0.124162
C26   C     C_R   0.744622 0.305024 0.730685 -0.101503
C27   C     C_R   0.193286 0.642495 0.323462 -0.100982
C28   C     C_R   0.807643 0.344872 0.653621 -0.116026
C29   C     C_R   0.117315 0.566000 0.324546 0.047268
C30   C     C_R   0.878625 0.422730 0.667253 0.063106
C31   C     C_R   0.089741 0.523046 0.236589 0.281371
C32   C     C_R   0.891436 0.458254 0.760702 0.295822
C33   C     C_R   0.137726 0.557316 0.149904 -0.100740
C34   C     C_R   0.128061 0.505677 0.498404 -0.023609
C35   C     C_R   0.824319 0.418224 0.837467 -0.110321
C36   C     C_R   0.214720 0.632449 0.150091 -0.153804
C37   C     C_R   0.752196 0.342009 0.822242 -0.139526
C38   C     C_R   0.932679 0.530202 0.420073 -0.114151
C39   C     C_R   0.065907 0.474554 0.580820 -0.121329
C40   C     C_3   0.765877 0.076045 0.354959 -0.011230
C41   C     C_3   0.833098 0.013115 0.289168 -0.373369
C42   C     C_3   0.733000 0.958375 0.655160 -0.008782
C43   C     C_3   0.779242 0.013173 0.739707 -0.371733
C44   C     C_3   0.682275 0.689209 0.233432 -0.024601
C45   C     C_R   0.938253 0.466865 0.582475 0.004727
C46   C     C_3   0.812314 0.709605 0.196809 -0.390860
C47   C     C_3   0.279037 0.345323 0.754215 -0.018936
C48   C     C_3   0.244011 0.262991 0.813255 -0.412928
C49   C     C_3   0.074610 0.373127 0.248067 -0.008155
C50   C     C_3   0.983786 0.295630 0.258746 -0.372418
C51   C     C_3   0.033948 0.532986 0.857189 -0.030210
C52   C     C_3   0.147709 0.592414 0.843671 -0.371249
C53   C     C_R   0.060491 0.533631 0.416210 -0.023773
C54   C     C_R   0.461986 0.092174 0.575064 -0.142286
C55   C     C_R   0.480030 0.906911 0.417255 -0.132781
C56   C     C_R   0.457627 0.183920 0.576251 -0.169089
Cu1   Cu    Cu3+1 0.500000 0.499990 0.596430 0.986334
Cu2   Cu    Cu3+1 0.500000 0.500010 0.403570 0.987174
H1    H     H_    0.300466 0.733908 0.235867 0.101982
H2    H     H_    0.759104 0.994344 0.587457 0.124021
H3    H     H_    0.779367 0.893130 0.657454 0.129989
H4    H     H_    0.756896 0.978561 0.808695 0.158416
H5    H     H_    0.880860 0.023029 0.734664 0.089701
H6    H     H_    0.734892 0.078917 0.738679 0.153572
H7    H     H_    0.658467 0.588257 0.070018 0.094375
H8    H     H_    0.422230 0.371067 0.933278 0.100784
H9    H     H_    0.667058 0.730237 0.298125 0.161824
H10   H     H_    0.612961 0.710734 0.178767 0.094021
H11   H     H_    0.832754 0.668830 0.132890 0.150610
H12   H     H_    0.688258 0.246151 0.719034 0.130688
H13   H     H_    0.820800 0.780745 0.176304 0.098939
H14   H     H_    0.881034 0.695154 0.254164 0.156707
H15   H     H_    0.242212 0.335604 0.680272 0.147421
H16   H     H_    0.232189 0.403870 0.784656 0.103212
H17   H     H_    0.270923 0.271282 0.889816 0.132896
H18   H     H_    0.142480 0.251803 0.809858 0.103432
H19   H     H_    0.290136 0.203967 0.784107 0.152942
H20   H     H_    0.347305 0.411331 0.249319 0.112824
H21   H     H_    0.586908 0.626836 0.749237 0.133631
H22   H     H_    0.337776 0.415137 0.072719 0.085861
H23   H     H_    0.252380 0.658116 0.082999 0.113836
H24   H     H_    0.581728 0.634104 0.925328 0.099670
H25   H     H_    0.213935 0.677100 0.389774 0.110506
H26   H     H_    0.799050 0.316157 0.582588 0.092350
H27   H     H_    0.132082 0.375842 0.314836 0.134168
H28   H     H_    0.134843 0.361006 0.184806 0.112479
H29   H     H_    0.925810 0.289781 0.192866 0.158751
H30   H     H_    0.034800 0.233160 0.269560 0.085148
H31   H     H_    0.923161 0.305879 0.321999 0.153088
H32   H     H_    0.066288 0.464983 0.874877 0.105153
H33   H     H_    0.979980 0.558232 0.918840 0.136747
H34   H     H_    0.701289 0.311928 0.881506 0.121205
H35   H     H_    0.119686 0.661954 0.830956 0.161209
H36   H     H_    0.206657 0.589508 0.909231 0.092383
H37   H     H_    0.202182 0.570047 0.781009 0.166208
H38   H     H_    0.115323 0.525397 0.082382 0.103910
H39   H     H_    0.826276 0.446403 0.908866 0.104833
H40   H     H_    0.880682 0.554256 0.358622 0.196864
H41   H     H_    0.116892 0.452493 0.643281 0.128096
H42   H     H_    0.417104 0.054570 0.632387 0.151680
H43   H     H_    0.448811 0.942978 0.354101 0.150911
H44   H     H_    0.410627 0.215697 0.634665 0.168919
H45   H     H_    0.803443 0.067360 0.429341 0.112349
H46   H     H_    0.442592 0.781473 0.352913 0.119553
H47   H     H_    0.609023 0.229759 0.366122 0.127989
H48   H     H_    0.580221 0.775346 0.645116 0.129178
H49   H     H_    0.785241 0.145004 0.329511 0.123688
H50   H     H_    0.799778 0.021119 0.213831 0.156815
H51   H     H_    0.933874 0.027843 0.291428 0.089335
H52   H     H_    0.816229 0.943525 0.313217 0.153257
N1    N     N_R   0.500000 0.500020 0.258690 -0.208172
N2    N     N_R   0.500000 0.499980 0.741310 -0.212980
O1    O     O_R   0.500010 0.371450 0.581430 -0.442485
O2    O     O_3   0.603822 0.946732 0.662475 -0.572233
O3    O     O_3   0.672479 0.598953 0.261891 -0.527134
O4    O     O_3   0.408964 0.354582 0.746941 -0.542807
O5    O     O_3   0.008120 0.451680 0.233998 -0.563056
O6    O     O_3   0.961284 0.535733 0.772264 -0.560935
O7    O     O_R   0.499990 0.628550 0.418570 -0.479848
O8    O     O_R   0.500010 0.371460 0.418560 -0.520636
O9    O     O_R   0.499990 0.628540 0.581440 -0.524837
O10   O     O_R   0.319640 0.500000 0.581430 -0.505835
O11   O     O_R   0.680360 0.500000 0.418570 -0.455678
O12   O     O_R   0.319640 0.500010 0.418560 -0.514259
O13   O     O_R   0.680360 0.499990 0.581440 -0.492930
O14   O     O_3   0.637957 0.056521 0.350991 -0.570706

loop_
_geom_bond_atom_site_label_1
_geom_bond_atom_site_label_2
_ccdc_geom_bond_type
C23   C45   A    
C41   H50   S    
C28   H26   S    
C48   H18   S    
C30   C45   S    
C38   H40   S    
C33   C36   A    
C43   H5    S    
C5    H47   S    
C19   N2    A    
Cu2   O11   S    
C17   C23   S    
C35   C37   A    
C2    C55   A    
C51   H32   S    
Cu1   O13   S    
C11   C14   A    
Cu1   N2    S    
C27   C29   A    
C14   O3    S    
C51   O6    S    
C52   H37   S    
C16   O10   A    
C31   O5    S    
C46   H11   S    
C16   C34   S    
Cu1   O10   S    
C42   O2    S    
C49   O5    S    
C12   O9    A    
C44   O3    S    
C31   C33   A    
C52   H36   S    
C4    C12   S    
C9    C10   S    
C46   H14   S    
C50   H30   S    
C39   C45   A    
C51   H33   S    
C41   H51   S    
C48   H17   S    
C54   H42   S    
C14   N1    A    
C1    O1    A    
C15   N2    A    
C44   C46   S    
C43   H6    S    
C13   H8    S    
C47   O4    S    
C54   C56   A    
C20   H22   S    
C34   C39   A    
C32   C35   A    
C49   H27   S    
C18   N1    A    
C47   H15   S    
C4    C6    A    
C42   H2    S    
C5    C7    A    
C6    C8    A    
Cu2   N1    S    
C13   C24   A    
C1    C3    S    
C1    O8    A    
C48   H19   S    
C2    C4    A    
C12   O7    A    
C3    C56   A    
C50   H31   S    
C39   H41   S    
C47   C48   S    
C2    H46   S    
C36   H23   S    
C18   H20   S    
C40   O14   S    
Cu2   O8    S    
C6    H48   S    
C52   H35   S    
C19   H21   S    
C10   C55   A    
C42   H3    S    
C46   H13   S    
C50   H29   S    
C40   H49   S    
C40   C41   S    
C20   C22   A    
C41   H52   S    
C13   C15   A    
C26   H12   S    
C22   C24   S    
C44   H10   S    
C42   C43   S    
C33   H38   S    
C7    C9    A    
C37   H34   S    
C19   C21   A    
Cu2   O12   S    
C49   H28   S    
C47   H16   S    
C32   O6    S    
C3    C5    A    
Cu1   O1    S    
C26   C37   A    
C8    O2    S    
C25   C27   A    
C23   C38   A    
C55   H43   S    
C11   C22   A    
C26   C28   A    
C27   H25   S    
C16   O12   A    
C56   H44   S    
C51   C52   S    
C29   C31   A    
C40   H45   S    
C30   C32   A    
C17   O13   A    
Cu1   Cu2   S    
C38   C53   A    
C29   C53   S    
C28   C30   A    
Cu2   O7    S    
C18   C20   A    
C7    O14   S    
C25   C36   A    
Cu1   O9    S    
C21   H24   S    
C34   C53   A    
C8    C10   A    
C49   C50   S    
C21   C24   A    
C15   O4    S    
C44   H9    S    
C9    C54   A    
C25   H1    S    
C17   O11   A    
C35   H39   S    
C11   H7    S    
C43   H4    S    
