data_mof_unit_8439.cif
_audit_creation_date              2012-12-11T21:20:23-0500
_audit_creation_method            fapswitch 2.2
_symmetry_space_group_name_H-M    P1
_symmetry_Int_Tables_number       1
_space_group_crystal_system       triclinic
_cell_length_a                    8.256548
_cell_length_b                    18.685257
_cell_length_c                    19.038107
_cell_angle_alpha                 103.876453
_cell_angle_beta                  92.713043
_cell_angle_gamma                 90.987038
_cell_volume                      2846.96511616

loop_
_atom_site_label
_atom_site_type_symbol
_atom_type_description
_atom_site_fract_x
_atom_site_fract_y
_atom_site_fract_z
_atom_type_partial_charge
Ba1   Ba    Ba6+2 0.155460 0.532000 0.467920 1.639009
Ba2   Ba    Ba6+2 0.654730 0.467990 0.532020 1.633587
C1    C     C_3   0.355217 0.713359 0.216043 -0.382604
C2    C     C_R   0.059405 0.916888 0.590402 0.399464
C3    C     C_R   0.216884 0.050180 0.560808 -0.025510
C4    C     C_3   0.921203 0.716205 0.314574 0.371585
C5    C     C_R   0.056320 0.026349 0.536057 0.074626
C6    C     C_R   0.274668 0.120829 0.561730 -0.085618
C7    C     C_R   0.177193 0.169995 0.535027 -0.005458
C8    C     C_R   0.023779 0.144250 0.500832 0.001441
C9    C     C_R   0.964106 0.071760 0.500273 0.018410
C10   C     C_R   0.229424 0.243625 0.539895 -0.015923
C11   C     C_R   0.127990 0.290713 0.512425 -0.303774
C12   C     C_3   0.385337 0.687990 0.285554 0.362326
C13   C     C_R   0.982683 0.264993 0.473462 0.044501
C14   C     C_R   0.931252 0.190485 0.466098 -0.053740
C15   C     C_R   0.843202 0.928963 0.502011 -0.032844
C16   C     C_3   0.938662 0.786547 0.288350 -0.379889
C17   C     C_R   0.785162 0.856131 0.500196 -0.002104
C18   C     C_R   0.876015 0.810669 0.536077 -0.078656
C19   C     C_R   0.007102 0.842664 0.582975 -0.107762
C20   C     C_R   0.791142 0.160381 0.424478 -0.029132
C21   C     C_R   0.732880 0.090007 0.423637 -0.097720
C22   C     C_R   0.813343 0.045278 0.463658 0.003497
C23   C     C_3   0.508037 0.699567 0.650829 0.312944
C24   C     C_R   0.751519 0.974022 0.465352 0.036368
C25   C     C_R   0.597131 0.947150 0.433864 -0.102655
C26   C     C_R   0.633923 0.829422 0.464197 -0.017458
C27   C     C_R   0.539863 0.876840 0.433640 -0.103661
C28   C     C_3   0.805838 0.357191 0.303803 0.315599
C29   C     C_R   0.580281 0.756391 0.460925 -0.013762
C30   C     C_R   0.680892 0.709744 0.489208 -0.292327
C31   C     C_R   0.826183 0.735698 0.527941 0.054649
C32   C     C_R   0.350630 0.540690 0.810776 -0.139839
C33   C     C_R   0.317663 0.527600 0.736149 0.034530
C34   C     C_3   0.587996 0.774852 0.684077 -0.420685
C35   C     C_R   0.165462 0.440004 0.814114 -0.161310
C36   C     C_R   0.102349 0.442507 0.745142 0.000753
C37   C     C_R   0.650429 0.553490 0.188342 -0.136030
C38   C     C_R   0.710871 0.548257 0.256156 0.043648
C39   C     C_R   0.416340 0.479970 0.200642 -0.127846
C40   C     C_3   0.767791 0.322881 0.223265 0.212839
C41   C     C_R   0.475346 0.478246 0.271701 0.080543
C42   C     C_R   0.284468 0.493264 0.850951 0.010508
C43   C     C_R   0.189709 0.479896 0.703829 -0.247052
C44   C     C_R   0.495839 0.524446 0.159360 -0.023441
C45   C     C_3   0.879995 0.271788 0.662181 0.321243
C46   C     C_R   0.619297 0.515715 0.299478 -0.216465
C47   C     C_R   0.048027 0.486952 0.964402 -0.076529
C48   C     C_R   0.939724 0.476412 0.014761 -0.092943
C49   C     C_R   0.988710 0.492779 0.087108 -0.059430
C50   C     C_R   0.145252 0.519757 0.108767 -0.066175
C51   C     C_R   0.265359 0.514992 0.058955 0.006565
C52   C     C_3   0.992233 0.631376 0.690148 0.314094
C53   C     C_R   0.215893 0.500483 0.983536 0.038628
C54   C     C_R   0.428488 0.533881 0.084414 -0.032836
C55   C     C_R   0.525755 0.557839 0.034140 0.038897
C56   C     C_3   0.838945 0.194223 0.671556 0.262969
C57   C     C_R   0.492967 0.528780 0.958722 0.016211
C58   C     C_R   0.332965 0.503336 0.931215 -0.014589
C59   C     C_R   0.641171 0.616905 0.054338 -0.078269
C60   C     C_R   0.750129 0.630695 0.004981 -0.061719
C61   C     C_R   0.744595 0.585941 0.935041 -0.067586
C62   C     C_R   0.619727 0.532997 0.912897 -0.109847
C63   C     C_3   0.002159 0.651947 0.772576 -0.413466
C64   C     C_3   0.307523 0.304460 0.362905 0.314050
C65   C     C_3   0.302960 0.220612 0.340147 -0.397905
C66   C     C_3   0.683709 0.349273 0.113829 0.254989
C67   C     C_3   0.406646 0.310292 0.715408 0.337922
C68   C     C_3   0.803183 0.304537 0.062290 -0.204875
C69   C     C_3   0.732707 0.284632 0.984169 -0.493651
C70   C     C_3   0.031671 0.180302 0.759791 0.288715
C71   C     C_3   0.180295 0.137586 0.773142 -0.313249
C72   C     C_3   0.239975 0.914776 0.691945 0.248994
C73   C     C_3   0.134035 0.902738 0.752658 -0.197581
C74   C     C_3   0.208867 0.848205 0.791896 -0.482284
C75   C     C_3   0.466340 0.300042 0.789223 -0.371547
C76   C     C_R   0.989995 0.956876 0.541947 -0.017451
H1    H     H_    0.330553 0.631756 0.278094 0.065175
H2    H     H_    0.389914 0.322132 0.412119 0.071420
H3    H     H_    0.223351 0.713090 0.201904 0.148016
H4    H     H_    0.217990 0.201125 0.292059 0.118838
H5    H     H_    0.261650 0.197345 0.384832 0.059965
H6    H     H_    0.426084 0.200441 0.326536 0.114864
H7    H     H_    0.518364 0.686658 0.296279 -0.065520
H8    H     H_    0.412691 0.675755 0.170923 0.070003
H9    H     H_    0.602256 0.663779 0.622003 0.022191
H10   H     H_    0.409864 0.705614 0.610964 0.052459
H11   H     H_    0.696676 0.768836 0.718567 0.140202
H12   H     H_    0.653278 0.289146 0.218345 0.026178
H13   H     H_    0.624900 0.801320 0.640823 0.057334
H14   H     H_    0.502874 0.811190 0.718104 0.113294
H15   H     H_    0.407351 0.769916 0.222640 0.108716
H16   H     H_    0.879328 0.832275 0.325836 0.074759
H17   H     H_    0.812575 0.279288 0.612772 0.067599
H18   H     H_    0.011818 0.276998 0.654581 -0.055394
H19   H     H_    0.780196 0.161400 0.619894 0.041703
H20   H     H_    0.747195 0.195631 0.712954 0.061353
H21   H     H_    0.275730 0.294436 0.706854 -0.037562
H22   H     H_    0.424830 0.369509 0.716016 0.055246
H23   H     H_    0.868385 0.286067 0.202760 0.049534
H24   H     H_    0.470976 0.240568 0.788408 0.109759
H25   H     H_    0.383542 0.326874 0.831278 0.062787
H26   H     H_    0.984554 0.724824 0.368922 0.086747
H27   H     H_    0.589443 0.325462 0.804072 0.151885
H28   H     H_    0.167652 0.347287 0.517487 0.073778
H29   H     H_    0.397141 0.135995 0.583386 0.090718
H30   H     H_    0.061267 0.810384 0.616926 0.091156
H31   H     H_    0.723364 0.190568 0.391815 0.101262
H32   H     H_    0.420491 0.860524 0.408859 0.109338
H33   H     H_    0.640852 0.653314 0.484711 0.075772
H34   H     H_    0.108818 0.609514 0.670115 -0.001867
H35   H     H_    0.302852 0.013963 0.577746 0.108966
H36   H     H_    0.624862 0.071945 0.389625 0.057855
H37   H     H_    0.789657 0.706507 0.319723 -0.084615
H38   H     H_    0.514601 0.979734 0.410015 0.063590
H39   H     H_    0.429997 0.587160 0.836214 0.070513
H40   H     H_    0.113188 0.400220 0.840123 0.062775
H41   H     H_    0.733754 0.577374 0.159068 0.061922
H42   H     H_    0.310496 0.445879 0.178529 0.082584
H43   H     H_    0.150810 0.476081 0.647938 0.062492
H44   H     H_    0.667227 0.514383 0.353027 0.050840
H45   H     H_    0.895866 0.588095 0.671978 0.093933
H46   H     H_    0.994107 0.486805 0.912096 0.078407
H47   H     H_    0.814577 0.460553 0.998369 0.077848
H48   H     H_    0.903263 0.486978 0.126143 0.123730
H49   H     H_    0.068507 0.802023 0.286954 0.144217
H50   H     H_    0.174028 0.547227 0.164226 0.125117
H51   H     H_    0.643454 0.655047 0.106937 0.058344
H52   H     H_    0.840710 0.674870 0.021468 0.066454
H53   H     H_    0.833803 0.593591 0.897452 0.078248
H54   H     H_    0.615241 0.499318 0.858487 0.128458
H55   H     H_    0.879713 0.778514 0.233244 0.105992
H56   H     H_    0.108448 0.689500 0.793153 0.116592
H57   H     H_    0.695417 0.382215 0.328508 -0.024450
H58   H     H_    0.904216 0.399815 0.310480 0.081287
H59   H     H_    0.646617 0.396722 0.091842 0.078110
H60   H     H_    0.570516 0.316221 0.114675 0.027951
H61   H     H_    0.918292 0.336980 0.065181 0.135003
H62   H     H_    0.830794 0.252567 0.078374 0.095242
H63   H     H_    0.620310 0.249959 0.979780 0.133105
H64   H     H_    0.822334 0.253175 0.948139 0.137235
H65   H     H_    0.703978 0.335130 0.965548 0.131877
H66   H     H_    0.935587 0.169002 0.795165 0.024338
H67   H     H_    0.015173 0.601609 0.793335 0.071039
H68   H     H_    0.065441 0.240153 0.774788 0.037855
H69   H     H_    0.274613 0.143519 0.735074 0.134340
H70   H     H_    0.230149 0.158740 0.829689 0.038814
H71   H     H_    0.146591 0.078305 0.764518 0.151107
H72   H     H_    0.349575 0.947550 0.718114 0.065236
H73   H     H_    0.288327 0.863145 0.658654 0.030843
H74   H     H_    0.120153 0.956263 0.792354 0.108799
H75   H     H_    0.010643 0.881880 0.730761 0.123127
H76   H     H_    0.222450 0.794103 0.753149 0.169923
H77   H     H_    0.128631 0.840251 0.834759 0.138743
H78   H     H_    0.889749 0.679513 0.793120 0.123522
H79   H     H_    0.329296 0.869473 0.817613 0.127242
H80   H     H_    0.183673 0.323534 0.375232 0.009082
O1    O     O_2   0.114280 0.679350 0.549180 -0.454915
O2    O     O_2   0.771869 0.466060 0.755059 -0.497468
O3    O     O_3   0.833711 0.324882 0.723010 -0.625185
O4    O     O_3   0.866400 0.589600 0.543550 -0.497377
O5    O     O_3   0.444420 0.455520 0.411210 -0.490171
O6    O     O_2   0.612810 0.550740 0.677950 -0.464409
O7    O     O_3   0.441269 0.671939 0.706044 -0.644042
O8    O     O_2   0.561775 0.245369 0.525983 -0.499728
O9    O     O_3   0.494804 0.265527 0.661288 -0.606291
O10   O     O_3   0.362150 0.623490 0.415650 -0.482237
O11   O     O_2   0.247942 0.754718 0.476564 -0.488766
O12   O     O_3   0.362753 0.331971 0.305781 -0.639717
O13   O     O_3   0.958287 0.694153 0.664781 -0.649409
O14   O     O_3   0.312935 0.737316 0.341909 -0.605819
O15   O     O_2   0.197490 0.449210 0.322030 -0.457012
O16   O     O_3   0.950520 0.583920 0.376610 -0.477905
O17   O     O_2   0.031402 0.513639 0.249732 -0.487216
O18   O     O_3   0.755795 0.378283 0.184291 -0.681276
O19   O     O_3   0.980109 0.157246 0.685883 -0.645673
O20   O     O_3   0.157784 0.956660 0.649432 -0.665780
O21   O     O_3   0.989287 0.657040 0.265412 -0.611312
O22   O     O_2   0.696020 0.320600 0.450800 -0.462690
O23   O     O_3   0.943900 0.410390 0.456390 -0.492874
O24   O     O_3   0.448150 0.376500 0.584290 -0.469943
O25   O     O_3   0.855768 0.300559 0.335500 -0.685328
O26   O     O_3   0.365880 0.544470 0.588730 -0.472069
O27   O     O_3   0.859790 0.416060 0.623340 -0.474776
P1    P     P_3+3 0.941030 0.670050 0.569830 0.966146
P2    P     P_3+3 0.370400 0.428500 0.331430 0.982472
P3    P     P_3+3 0.920298 0.575502 0.285263 0.942135
P4    P     P_3+3 0.869270 0.329940 0.430110 0.963044
P5    P     P_3+3 0.893090 0.411985 0.713033 0.930338
P6    P     P_3+3 0.376860 0.718537 0.424275 0.935425
P7    P     P_3+3 0.431772 0.575454 0.679920 0.946721
P8    P     P_3+3 0.431972 0.281845 0.577560 0.928861

loop_
_geom_bond_atom_site_label_1
_geom_bond_atom_site_label_2
_ccdc_geom_bond_type
C34   H11   S    
C52   H45   S    
C40   H23   S    
C68   H62   S    
C33   P7    S    
C30   H33   S    
C4    O21   S    
C25   C27   A    
O9    P8    S    
C10   P8    S    
C60   H52   S    
C66   H60   S    
C17   C18   A    
C56   H20   S    
Ba2   P4    S    
Ba2   O4    S    
C66   O18   S    
O27   P5    S    
C52   C63   S    
Ba1   P1    S    
C5    C9    A    
Ba1   O15   S    
C57   C62   A    
C35   C36   A    
O10   P6    S    
C71   H69   S    
C15   C24   A    
O1    P1    D    
O5    P2    S    
C26   C27   A    
C22   C24   A    
Ba1   Ba2   S    
C63   H78   S    
O22   P4    D    
C46   H44   S    
C70   H68   S    
C55   C57   A    
C13   C14   A    
C29   P6    S    
C9    C22   A    
C23   H9    S    
O7    P7    S    
C54   C55   A    
C16   H55   S    
C70   H66   S    
C32   C33   A    
C28   O25   S    
C74   H76   S    
C36   C43   A    
O16   P3    S    
O17   P3    D    
O23   P4    S    
C35   H40   S    
C62   H54   S    
C6    C7    A    
C36   P5    S    
O12   P2    S    
C1    H3    S    
C45   H18   S    
O26   P7    S    
C68   C69   S    
C61   H53   S    
C7    C8    A    
C48   H47   S    
C63   H56   S    
C59   H51   S    
C69   H63   S    
C71   H71   S    
C25   H38   S    
C34   H14   S    
C32   H39   S    
Ba1   P2    S    
C64   C65   S    
C13   P4    S    
C57   C58   A    
C53   C58   A    
C1    H8    S    
C39   C41   A    
C75   H24   S    
C56   H19   S    
Ba2   O22   S    
C70   O19   S    
O25   P4    S    
Ba1   O26   S    
C3    C5    A    
C51   C53   A    
O14   P6    S    
C50   H50   S    
C4    C16   S    
C66   H59   S    
Ba1   O16   S    
C72   C73   S    
C71   H70   S    
C49   C50   A    
Ba2   O24   S    
C27   H32   S    
Ba1   O1    S    
C32   C42   A    
C70   C71   S    
C12   O14   S    
Ba2   O6    S    
C37   C38   A    
O4    P1    S    
Ba1   O23   S    
C11   H28   S    
O21   P3    S    
C23   C34   S    
Ba1   O10   S    
C43   H43   S    
C47   C53   A    
C47   H46   S    
C23   H10   S    
C40   H12   S    
Ba2   O23   S    
C73   C74   S    
C67   O9    S    
C2    C76   A    
C60   C61   A    
C16   H49   S    
C73   H75   S    
C29   C30   A    
C72   O20   S    
C41   P2    S    
C73   H74   S    
C39   C44   A    
C20   H31   S    
C48   C49   A    
C24   C25   A    
C52   H34   S    
C1    H15   S    
O24   P8    S    
Ba2   O26   S    
C12   H1    S    
C10   C11   A    
C17   C26   A    
C31   P1    S    
C1    C12   S    
C69   H64   S    
C18   C31   A    
C67   H21   S    
C34   H13   S    
Ba1   O4    S    
C47   C48   A    
C28   H58   S    
C37   C44   A    
C16   H16   S    
C72   H73   S    
C75   H25   S    
O11   P6    D    
C63   H67   S    
C33   C43   A    
C6    H29   S    
C64   H80   S    
C65   H5    S    
C50   C51   A    
C69   H65   S    
C41   C46   A    
C51   C54   A    
C38   C46   A    
O15   P2    D    
C14   C20   A    
O13   P1    S    
C3    H35   S    
C49   H48   S    
C52   O13   S    
C64   O12   S    
C26   C29   A    
C72   H72   S    
C12   H7    S    
C2    O20   S    
O3    P5    S    
Ba2   O5    S    
C3    C6    A    
C55   C59   A    
C38   P3    S    
C64   H2    S    
C74   H77   S    
C4    H26   S    
C23   O7    S    
C30   C31   A    
C35   C42   A    
C11   C13   A    
Ba2   O27   S    
O2    P5    D    
C8    C14   A    
C21   H36   S    
C2    C19   A    
C67   C75   S    
C42   C58   S    
C37   H41   S    
C75   H27   S    
C15   C76   A    
C15   C17   A    
C56   O19   S    
C39   H42   S    
C59   C60   A    
C7    C10   A    
C4    H37   S    
C19   H30   S    
C8    C9    A    
C21   C22   A    
C5    C76   A    
C61   C62   A    
C45   O3    S    
C67   H22   S    
C65   H6    S    
O8    P8    D    
C18   C19   A    
Ba1   O5    S    
C65   H4    S    
C66   C68   S    
C28   H57   S    
C44   C54   S    
C45   H17   S    
C20   C21   A    
C28   C40   S    
C40   O18   S    
O6    P7    D    
C74   H79   S    
C45   C56   S    
C68   H61   S    
