data_mof_unit_13553.cif
_audit_creation_date              2012-12-11T15:48:04-0500
_audit_creation_method            fapswitch 2.2
_symmetry_space_group_name_H-M    P1
_symmetry_Int_Tables_number       1
_space_group_crystal_system       triclinic
_cell_length_a                    6.928587
_cell_length_b                    17.634166
_cell_length_c                    19.365133
_cell_angle_alpha                 108.333731
_cell_angle_beta                  89.441723
_cell_angle_gamma                 90.302708
_cell_volume                      2245.81781287

loop_
_atom_site_label
_atom_site_type_symbol
_atom_type_description
_atom_site_fract_x
_atom_site_fract_y
_atom_site_fract_z
_atom_type_partial_charge
O1    O     O_R   0.494330 0.415710 0.413720 -0.542263
O2    O     O_R   0.819360 0.430070 0.560210 -0.551165
O3    O     O_R   0.994320 0.584290 0.586280 -0.542299
C1    C     C_R   0.650177 0.414606 0.581432 0.696488
O4    O     O_R   0.823740 0.406290 0.412670 -0.515706
O5    O     O_R   0.998730 0.560340 0.437690 -0.535166
C2    C     C_R   0.655287 0.382321 0.385158 0.716131
O6    O     O_R   0.489920 0.439660 0.562310 -0.541853
O7    O     O_3   0.662330 0.550570 0.508380 -0.369196
V1    V     V_3+5 0.935370 0.490620 0.498440 1.419264
O8    O     O_R   0.328720 0.569930 0.439790 -0.537641
C3    C     C_R   0.160622 0.584845 0.418144 0.715260
O9    O     O_R   0.324340 0.593710 0.587330 -0.546106
C4    C     C_R   0.154780 0.616205 0.615613 0.704590
V2    V     V_3+5 0.435940 0.509380 0.501560 1.402583
O10   O     O_3   0.159110 0.449430 0.491620 -0.371208
C5    C     C_R   0.310019 0.727603 0.713156 -0.240291
H1    H     H_    0.448192 0.711159 0.686077 0.133769
C6    C     C_R   0.301407 0.794182 0.775967 0.436902
C7    C     C_R   0.124516 0.815235 0.815022 -0.144291
C8    C     C_R   0.959295 0.769502 0.787194 -0.221774
C9    C     C_R   0.968049 0.705481 0.722409 -0.172858
H2    H     H_    0.837104 0.672335 0.702484 0.137277
C10   C     C_R   0.143675 0.684001 0.684461 -0.103644
C11   C     C_R   0.050542 0.604651 0.302660 -0.200810
C12   C     C_R   0.152960 0.632999 0.368056 -0.084653
C13   C     C_R   0.249675 0.706591 0.384819 -0.206722
C14   C     C_R   0.240473 0.752865 0.337644 0.129142
C15   C     C_R   0.139974 0.723592 0.271237 0.022933
C16   C     C_R   0.048157 0.648118 0.252740 0.002359
C17   C     C_R   0.330260 0.827992 0.355761 -0.188142
C18   C     C_R   0.319623 0.874248 0.309039 -0.167415
C19   C     C_R   0.221451 0.845782 0.242775 0.125401
C20   C     C_R   0.132744 0.769752 0.223214 -0.004241
C21   C     C_R   0.037806 0.739832 0.155731 -0.063688
C22   C     C_R   0.946127 0.664918 0.138293 -0.248858
C23   C     C_R   0.956771 0.617790 0.184511 0.412477
C24   C     C_R   0.209227 0.892511 0.196208 -0.299100
C25   C     C_R   0.114389 0.863712 0.129276 -0.156426
C26   C     C_R   0.039009 0.785217 0.106762 0.411856
H3    H     H_    0.976791 0.547642 0.290228 0.142150
H4    H     H_    0.328381 0.728512 0.435398 0.110528
H5    H     H_    0.407696 0.851305 0.406442 0.122985
H6    H     H_    0.388765 0.932378 0.324711 0.119452
H7    H     H_    0.273256 0.951699 0.212035 0.127505
C27   C     C_R   0.764941 0.192706 0.875987 -0.188795
C28   C     C_R   0.622289 0.133909 0.868600 -0.083838
C29   C     C_R   0.482787 0.122247 0.813855 -0.223982
C30   C     C_R   0.488794 0.166798 0.765217 0.117021
C31   C     C_R   0.631595 0.226194 0.773215 0.042978
C32   C     C_R   0.767525 0.240190 0.829717 0.042012
C33   C     C_R   0.353717 0.153403 0.709046 -0.196043
C34   C     C_R   0.360490 0.198180 0.660863 -0.206294
C35   C     C_R   0.500678 0.257997 0.668635 0.109135
C36   C     C_R   0.636360 0.272498 0.725447 -0.015085
C37   C     C_R   0.773433 0.334538 0.735664 -0.004413
C38   C     C_R   0.902353 0.350833 0.794538 0.390583
C39   C     C_R   0.900130 0.302954 0.840381 -0.272369
C40   C     C_R   0.503802 0.305122 0.622005 -0.231876
C41   C     C_R   0.642423 0.365738 0.630931 -0.082457
C42   C     C_R   0.776797 0.379820 0.687457 -0.201531
H8    H     H_    0.371349 0.077430 0.808354 0.111071
H9    H     H_    0.242814 0.108150 0.702310 0.125721
H10   H     H_    0.254217 0.186800 0.618112 0.131802
H11   H     H_    0.881908 0.427265 0.694356 0.156797
H12   H     H_    0.999120 0.316275 0.885524 0.143562
C43   C     C_R   0.806378 0.262178 0.290790 0.430819
C44   C     C_R   0.793883 0.200357 0.224025 -0.244868
H13   H     H_    0.921183 0.164739 0.203304 0.127280
C45   C     C_R   0.620213 0.183792 0.185044 -0.102559
C46   C     C_R   0.458453 0.231372 0.213463 -0.161821
C47   C     C_R   0.471417 0.295164 0.278210 -0.214346
H14   H     H_    0.344687 0.331701 0.297247 0.179095
C48   C     C_R   0.645330 0.312439 0.317311 -0.142434
O11   O     O_R   0.774940 0.060470 0.937800 -0.541875
O12   O     O_R   0.440880 0.093730 0.087350 -0.547327
O13   O     O_R   0.266130 0.939630 0.062280 -0.547743
C49   C     C_R   0.609346 0.116593 0.115606 0.701390
O14   O     O_R   0.445480 0.069960 0.939820 -0.543574
O15   O     O_R   0.270770 0.915690 0.913690 -0.521946
C50   C     C_R   0.614595 0.085677 0.918750 0.684788
O16   O     O_R   0.770300 0.084410 0.086380 -0.544991
O17   O     O_3   0.602600 0.949510 0.991670 -0.353569
V3    V     V_3+5 0.329470 0.009370 0.001550 1.415383
O18   O     O_R   0.940760 0.906160 0.912560 -0.535413
C51   C     C_R   0.110725 0.883823 0.883924 0.697063
O19   O     O_R   0.936150 0.929930 0.060100 -0.524190
C52   C     C_R   0.104553 0.914674 0.081479 0.743456
V4    V     V_3+5 0.828930 0.990450 0.998310 1.451162
O20   O     O_3   0.105670 0.050490 0.008320 -0.378900
O21   O     O_3   0.970362 0.753634 0.036382 -0.575290
C53   C     C_3   0.106746 0.699125 0.992303 0.019010
H15   H     H_    0.035520 0.668133 0.939755 0.166620
H16   H     H_    0.148091 0.651843 0.016058 0.114052
C54   C     C_3   0.289412 0.741238 0.976824 -0.309853
H17   H     H_    0.246956 0.792051 0.958639 0.204353
H18   H     H_    0.376016 0.764292 0.027142 0.194456
C55   C     C_3   0.415785 0.685325 0.917979 -0.783394
H19   H     H_    0.462099 0.633654 0.934875 0.223908
H20   H     H_    0.546279 0.717936 0.908913 0.248841
H21   H     H_    0.335122 0.663967 0.866215 0.232175
H22   H     H_    0.868126 0.641548 0.087773 0.170247
O22   O     O_3   0.871008 0.542947 0.162716 -0.573023
C56   C     C_3   0.013804 0.483452 0.135210 0.057558
H23   H     H_    0.956239 0.426612 0.140543 0.147465
H24   H     H_    0.150240 0.496108 0.167007 0.115214
C57   C     C_3   0.057053 0.471023 0.054506 -0.306977
H25   H     H_    0.921207 0.456677 0.022904 0.208899
H26   H     H_    0.119056 0.526528 0.047976 0.183456
C58   C     C_3   0.201821 0.403565 0.023874 -0.827284
H27   H     H_    0.336990 0.415852 0.055945 0.239953
H28   H     H_    0.238102 0.398864 0.966713 0.231664
H29   H     H_    0.139628 0.345820 0.025147 0.223796
H30   H     H_    0.870148 0.203004 0.919091 0.120500
H31   H     H_    0.399436 0.294430 0.578587 0.121333
O23   O     O_3   0.016690 0.418553 0.811885 -0.564248
C59   C     C_3   0.206674 0.396150 0.787773 0.095556
H32   H     H_    0.208948 0.359531 0.729321 0.127974
H33   H     H_    0.272507 0.361317 0.820494 0.093794
C60   C     C_3   0.328672 0.471060 0.797186 -0.297858
H34   H     H_    0.314932 0.511139 0.854124 0.196035
H35   H     H_    0.482491 0.453828 0.787014 0.170571
C61   C     C_3   0.268090 0.515602 0.744826 -0.708306
H36   H     H_    0.266890 0.474687 0.687987 0.217014
H37   H     H_    0.372187 0.564549 0.747768 0.200871
H38   H     H_    0.122060 0.541728 0.759486 0.234591
O24   O     O_3   0.470819 0.835175 0.800362 -0.577566
C62   C     C_3   0.489694 0.899856 0.772172 0.114752
H39   H     H_    0.579901 0.945533 0.810902 0.142202
H40   H     H_    0.349126 0.929023 0.768619 0.075646
C63   C     C_3   0.593450 0.874566 0.698122 -0.364791
H41   H     H_    0.727728 0.841865 0.701485 0.212623
H42   H     H_    0.498849 0.834451 0.656246 0.186144
C64   C     C_3   0.645330 0.946892 0.674337 -0.818910
H43   H     H_    0.512684 0.979765 0.669269 0.234986
H44   H     H_    0.719737 0.926716 0.620630 0.231706
H45   H     H_    0.743446 0.987695 0.714350 0.232688
O25   O     O_3   0.980815 0.276917 0.327081 -0.574505
C65   C     C_3   0.020461 0.216415 0.358822 0.047679
H46   H     H_    0.179654 0.208943 0.358412 0.143902
H47   H     H_    0.959832 0.156692 0.328120 0.100136
C66   C     C_3   0.948779 0.241712 0.437925 -0.273646
H48   H     H_    0.015051 0.299904 0.468452 0.223904
H49   H     H_    0.789383 0.248887 0.439521 0.165163
C67   C     C_3   0.001404 0.180391 0.475285 -0.870653
H50   H     H_    0.934757 0.121647 0.446496 0.237792
H51   H     H_    0.947033 0.200792 0.532311 0.238257
H52   H     H_    0.160621 0.173566 0.475986 0.224805
H53   H     H_    0.322162 0.220230 0.185054 0.140262
H54   H     H_    0.822272 0.783114 0.815571 0.191343

loop_
_geom_bond_atom_site_label_1
_geom_bond_atom_site_label_2
_ccdc_geom_bond_type
C36   C37   A    
C45   C49   S    
C54   H17   S    
C1    O6    A    
C63   C64   S    
C62   H39   S    
O12   V3    S    
C64   H45   S    
C56   H24   S    
C67   H50   S    
C54   C55   S    
C61   H36   S    
C46   H53   S    
C34   C35   A    
C37   C38   A    
C12   C13   A    
O16   V4    S    
C17   H5    S    
C14   C15   A    
O12   C49   A    
C59   H33   S    
O5    C3    A    
C24   C25   A    
C65   C66   S    
C61   H37   S    
V2    O10   S    
O23   C59   S    
C22   H22   S    
C20   C21   A    
C4    C10   S    
C43   O25   S    
C58   H27   S    
C24   H7    S    
O15   C51   A    
O22   C56   S    
C35   C36   A    
O8    V2    S    
C39   H12   S    
C28   C29   A    
O13   C52   A    
C44   H13   S    
C7    C51   S    
C57   H25   S    
C34   H10   S    
C45   C46   A    
O1    V2    S    
C38   O23   S    
O7    V1    S    
C60   C61   S    
O15   V3    S    
C40   C41   A    
O9    C4    A    
C57   H26   S    
C66   C67   S    
V3    O20   S    
C25   C52   S    
C56   H23   S    
C67   H51   S    
C60   H35   S    
C5    H1    S    
C2    C48   S    
C35   C40   A    
C14   C17   A    
O17   V4    S    
C5    C10   A    
C27   H30   S    
C43   C44   A    
C47   C48   A    
C59   C60   S    
C11   H3    S    
O21   C53   S    
O4    C2    A    
O18   V4    S    
O11   C50   A    
C61   H38   S    
C64   H44   S    
O13   V3    S    
C11   C12   A    
O18   C51   A    
C15   C20   A    
C53   C54   S    
C16   C23   A    
C3    C12   S    
C41   C42   A    
C21   C22   A    
O2    C1    A    
C15   C16   A    
C49   O16   A    
C29   H8    S    
O17   V3    S    
C65   H46   S    
C30   C33   A    
C1    C41   S    
C53   H16   S    
C31   C32   A    
C18   H6    S    
C37   C42   A    
C43   C48   A    
C8    H54   S    
C58   H29   S    
O3    C4    A    
C44   C45   A    
C29   C30   A    
C30   C31   A    
O6    V2    S    
C55   H20   S    
O19   V4    S    
C57   C58   S    
C66   H49   S    
C32   C39   A    
C63   H41   S    
O2    V1    S    
C62   C63   S    
C25   C26   A    
C67   H52   S    
C60   H34   S    
O14   C50   A    
C11   C16   A    
C27   C28   A    
C22   C23   A    
O1    C2    A    
C17   C18   A    
C31   C36   A    
C47   H14   S    
C63   H42   S    
C33   H9    S    
C62   H40   S    
O5    V1    S    
C23   O22   S    
O8    C3    A    
C54   H18   S    
C64   H43   S    
C55   H21   S    
C19   C24   A    
C18   C19   A    
C6    C7    A    
O9    V2    S    
C21   C26   A    
O7    V2    S    
O4    V1    S    
O3    V1    S    
V1    O10   S    
C59   H32   S    
C65   H47   S    
C13   H4    S    
C38   C39   A    
O14   V3    S    
C27   C32   A    
C6    O24   S    
C53   H15   S    
C5    C6    A    
C19   C20   A    
C9    C10   A    
C28   C50   S    
C26   O21   S    
C58   H28   S    
O25   C65   S    
O11   V4    S    
C42   H11   S    
C46   C47   A    
C7    C8    A    
O19   C52   A    
C40   H31   S    
C55   H19   S    
C13   C14   A    
C66   H48   S    
C9    H2    S    
V4    O20   S    
C8    C9    A    
C56   C57   S    
O24   C62   S    
C33   C34   A    
