data_mof_unit_33242.cif
_audit_creation_date              2012-12-10T17:15:16-0500
_audit_creation_method            fapswitch 2.2
_symmetry_space_group_name_H-M    P1
_symmetry_Int_Tables_number       1
_space_group_crystal_system       triclinic
_cell_length_a                    10.114209
_cell_length_b                    10.640628
_cell_length_c                    12.883454
_cell_angle_alpha                 91.312047
_cell_angle_beta                  91.710099
_cell_angle_gamma                 93.410185
_cell_volume                      1383.04244735

loop_
_atom_site_label
_atom_site_type_symbol
_atom_type_description
_atom_site_fract_x
_atom_site_fract_y
_atom_site_fract_z
_atom_type_partial_charge
C1    C     C_R   0.446377 0.266570 0.500279 0.975591
C2    C     C_R   0.678288 0.509326 0.042154 -0.193199
C3    C     C_R   0.333416 0.499193 0.851258 -0.125954
C4    C     C_R   0.666871 0.502874 0.148708 -0.196639
C5    C     C_R   0.573966 0.513913 0.872762 -0.206017
C6    C     C_R   0.426334 0.488816 0.127180 -0.255270
C7    C     C_R   0.563634 0.506816 0.978597 0.174410
C8    C     C_R   0.436689 0.496079 0.021358 0.176122
C9    C     C_2   0.419755 0.132997 0.514929 -0.488043
C10   C     C_2   0.570526 0.867726 0.535872 -0.485733
C11   C     C_2   0.492986 0.068585 0.582496 0.414649
C12   C     C_R   0.551085 0.733652 0.513814 0.968333
C13   C     C_2   0.475233 0.933533 0.579556 0.406653
C14   C     C_2   0.072038 0.490432 0.509068 -0.080487
C15   C     C_2   0.927839 0.508927 0.490344 -0.132684
C16   C     C_R   0.474763 0.505180 0.698767 0.973798
C17   C     C_R   0.525386 0.495561 0.301216 0.866693
C18   C     C_R   0.540794 0.494049 0.190863 -0.047389
C19   C     C_R   0.459478 0.507931 0.809118 -0.000621
C20   C     C_R   0.322020 0.493339 0.957808 -0.203897
H1    H     H_    0.328614 0.480385 0.159776 0.161822
H2    H     H_    0.102121 0.424651 0.567139 0.163910
H3    H     H_    0.870231 0.390635 0.598839 0.214035
H4    H     H_    0.130492 0.611882 0.402766 0.177615
H5    H     H_    0.192608 0.941611 0.748453 0.383523
H6    H     H_    0.691542 0.067065 0.823234 0.380450
H7    H     H_    0.671641 0.522211 0.840081 0.164837
H8    H     H_    0.755862 0.507084 0.197888 0.160013
H9    H     H_    0.244428 0.494555 0.802063 0.166025
H10   H     H_    0.224344 0.485529 0.990323 0.142659
H11   H     H_    0.775963 0.517116 0.009633 0.144516
H12   H     H_    0.661285 0.915981 0.510514 0.154086
H13   H     H_    0.343852 0.083839 0.465094 0.149603
H14   H     H_    0.897664 0.573737 0.431538 0.162977
N1    N     N_2   0.162330 0.550370 0.457540 -0.167777
N2    N     N_2   0.837670 0.449630 0.542460 -0.175126
O1    O     O_R   0.567930 0.307680 0.508550 -0.548917
O2    O     O_2   0.374322 0.767802 0.714540 -0.307351
O3    O     O_3   0.268837 0.983846 0.714045 -0.519374
O4    O     O_2   0.728012 0.185663 0.638807 -0.324354
O5    O     O_2   0.534492 0.238677 0.738578 -0.313855
O6    O     O_3   0.634248 0.023154 0.768416 -0.518572
O7    O     O_R   0.432070 0.692320 0.491450 -0.548658
O8    O     O_R   0.351090 0.340020 0.481290 -0.618271
O9    O     O_R   0.648910 0.659980 0.518710 -0.613054
O10   O     O_R   0.590490 0.486480 0.665020 -0.595763
O11   O     O_R   0.409510 0.513520 0.334980 -0.628334
O12   O     O_R   0.373660 0.518820 0.637760 -0.599039
O13   O     O_R   0.626340 0.481180 0.362240 -0.630686
O14   O     O_2   0.231152 0.816782 0.565033 -0.309111
S1    S     S_3+6 0.334160 0.869395 0.643339 0.061638
S2    S     S_3+6 0.600441 0.135119 0.683113 0.056005
Zn1   Zn    Zn3+2 0.644780 0.478400 0.518200 1.018368
Zn2   Zn    Zn3+2 0.355220 0.521600 0.481800 1.015848

loop_
_geom_bond_atom_site_label_1
_geom_bond_atom_site_label_2
_ccdc_geom_bond_type
O3    S1    S    
C3    C19   A    
C5    C19   A    
N2    Zn1   S    
C10   H12   S    
C9    C11   D    
C15   H14   S    
C2    C4    A    
C2    C7    A    
C1    O1    A    
C1    O8    A    
C4    C18   A    
C14   H2    S    
O14   S1    D    
O1    Zn1   S    
C3    C20   A    
C20   H10   S    
H5    O3    S    
N1    Zn2   S    
O12   Zn2   S    
C11   C13   S    
C5    H7    S    
C16   O12   A    
C8    C20   A    
C10   C12   S    
C9    H13   S    
O11   Zn2   S    
O13   Zn1   S    
O10   Zn1   S    
C4    H8    S    
C17   C18   S    
C12   O7    A    
C16   C19   S    
C13   S1    S    
C6    C18   A    
O7    Zn2   S    
H4    N1    S    
C11   S2    S    
C17   O13   A    
O8    Zn2   S    
C15   N2    D    
C7    C8    A    
C1    C9    S    
H6    O6    S    
C3    H9    S    
H3    N2    S    
C16   O10   A    
C14   N1    D    
C5    C7    A    
C14   C15   S    
C2    H11   S    
C6    C8    A    
O2    S1    D    
O5    S2    D    
O4    S2    D    
C6    H1    S    
O9    Zn1   S    
C17   O11   A    
O6    S2    S    
C12   O9    A    
C10   C13   D    
