data_mof_unit_18500.cif
_audit_creation_date              2012-12-10T17:32:59-0500
_audit_creation_method            fapswitch 2.2
_symmetry_space_group_name_H-M    P1
_symmetry_Int_Tables_number       1
_space_group_crystal_system       triclinic
_cell_length_a                    12.421994
_cell_length_b                    13.259613
_cell_length_c                    14.333666
_cell_angle_alpha                 94.487281
_cell_angle_beta                  108.181093
_cell_angle_gamma                 116.759686
_cell_volume                      1935.10263369

loop_
_atom_site_label
_atom_site_type_symbol
_atom_type_description
_atom_site_fract_x
_atom_site_fract_y
_atom_site_fract_z
_atom_type_partial_charge
C1    C     C_R   0.649394 0.714321 0.506803 0.858132
C2    C     C_R   0.889698 0.550133 0.921504 0.002829
C3    C     C_R   0.866815 0.600189 0.999306 -0.048307
C4    C     C_R   0.993633 0.524876 0.946556 -0.069578
C5    C     C_R   0.081783 0.562244 0.049804 -0.096944
C6    C     C_R   0.080419 0.643552 0.119486 0.216346
C7    C     C_R   0.971306 0.659874 0.095315 0.253379
C8    C     C_R   0.010743 0.460156 0.873536 0.606348
C9    C     C_R   0.117826 0.443520 0.900856 -0.206787
C10   C     C_R   0.197202 0.471120 0.002550 -0.037561
C11   C     C_R   0.172326 0.521344 0.078165 0.122542
C12   C     C_R   0.620669 0.519415 0.687064 0.868231
C13   C     C_R   0.294781 0.440615 0.029756 -0.190213
C14   C     C_R   0.360091 0.449642 0.131155 0.681079
C15   C     C_R   0.228662 0.517829 0.178536 -0.243395
C16   C     C_R   0.197811 0.956388 0.451506 0.646967
C17   C     C_R   0.261638 0.161762 0.482389 -0.213155
C18   C     C_R   0.711577 0.927593 0.544194 0.293584
C19   C     C_R   0.801008 0.044014 0.557992 -0.120774
C20   C     C_R   0.911794 0.074845 0.537455 -0.239534
C21   C     C_R   0.932712 0.988893 0.495007 0.137408
C22   C     C_R   0.836738 0.869371 0.472297 0.049815
C23   C     C_R   0.348413 0.285270 0.489226 0.866731
C24   C     C_R   0.049123 0.017813 0.478305 0.026040
C25   C     C_R   0.074276 0.928406 0.450598 -0.035216
C26   C     C_R   0.973485 0.812731 0.417944 -0.098364
C27   C     C_R   0.852697 0.785781 0.419266 -0.130667
C28   C     C_R   0.140764 0.132753 0.487505 -0.286741
C29   C     C_R   0.293512 0.072969 0.470690 0.228053
C30   C     C_R   0.730310 0.837537 0.504758 -0.187042
C31   C     C_R   0.262290 0.687054 0.668176 0.209047
C32   C     C_R   0.656606 0.340043 0.361899 0.516514
C33   C     C_R   0.735835 0.307292 0.333530 -0.216012
C34   C     C_R   0.382898 0.485022 0.313217 0.838307
C35   C     C_R   0.870070 0.368303 0.385971 -0.209603
C36   C     C_R   0.929893 0.464925 0.469265 -0.045590
C37   C     C_R   0.846034 0.497454 0.497929 0.112090
C38   C     C_R   0.070292 0.529296 0.525144 -0.037678
C39   C     C_R   0.125907 0.624165 0.610429 -0.007097
C40   C     C_R   0.045037 0.655117 0.637157 -0.237486
C41   C     C_R   0.910888 0.595779 0.583639 0.584166
C42   C     C_R   0.159226 0.503668 0.500413 0.052673
C43   C     C_R   0.342266 0.655620 0.640136 0.109060
C44   C     C_R   0.697587 0.539629 0.795114 -0.136607
C45   C     C_R   0.323079 0.483293 0.206148 -0.204240
C46   C     C_R   0.745181 0.597951 0.974155 0.349609
C47   C     C_R   0.661598 0.567043 0.872230 -0.215602
C48   C     C_R   0.811449 0.532554 0.820703 -0.075493
Cu1   Cu    Cu3+1 0.416420 0.526630 0.522910 0.995914
Cu2   Cu    Cu3+1 0.583580 0.473370 0.477090 1.078553
H1    H     H_    0.318059 0.406639 0.972191 0.178550
H2    H     H_    0.985685 0.743226 0.386839 0.211862
H3    H     H_    0.116965 0.200791 0.494722 0.181628
H4    H     H_    0.980912 0.167169 0.558743 0.153591
H5    H     H_    0.787780 0.112473 0.589720 0.210145
H6    H     H_    0.773589 0.698540 0.377793 0.192682
H7    H     H_    0.446729 0.702107 0.684192 0.170418
H8    H     H_    0.195123 0.537366 0.234911 0.208775
H9    H     H_    0.085261 0.727944 0.701480 0.226245
H10   H     H_    0.127061 0.434084 0.436517 0.122729
H11   H     H_    0.924251 0.336826 0.359458 0.153431
H12   H     H_    0.692617 0.232981 0.269639 0.193052
H13   H     H_    0.130838 0.398058 0.842749 0.169680
H14   H     H_    0.569735 0.566375 0.853489 0.183119
H15   H     H_    0.842792 0.520937 0.760980 0.243116
N1    N     N_R   0.290690 0.566960 0.557640 -0.212423
N2    N     N_R   0.709100 0.433710 0.442970 -0.228646
O1    O     O_R   0.545970 0.684450 0.528810 -0.540932
O2    O     O_R   0.687130 0.639470 0.490120 -0.543377
O3    O     O_R   0.519670 0.535100 0.660030 -0.605253
O4    O     O_R   0.660830 0.490120 0.621340 -0.515318
O5    O     O_R   0.312870 0.360530 0.509880 -0.609118
O6    O     O_R   0.454030 0.315550 0.471190 -0.529045
O7    O     O_R   0.339170 0.509880 0.378660 -0.588753
O8    O     O_R   0.480330 0.464900 0.339970 -0.514426
Br1   Br    Br    0.986175 0.789513 0.180734 -0.374346
Br2   Br    Br    0.464734 0.103288 0.483177 -0.303213
F1    F     F_    0.225887 0.870305 0.435283 -0.585100
Br3   Br    Br    0.571248 0.904094 0.586553 -0.345236
Br4   Br    Br    0.346258 0.815604 0.786212 -0.432001
Br5   Br    Br    0.473019 0.245143 0.280326 -0.320576
F2    F     F_    0.853472 0.642100 0.622507 -0.662994
F3    F     F_    0.455274 0.420770 0.154314 -0.605434
Br6   Br    Br    0.673720 0.614182 0.071978 -0.402780
Br7   Br    Br    0.239608 0.754598 0.234912 -0.308760
F4    F     F_    0.921316 0.403769 0.777040 -0.685025

loop_
_geom_bond_atom_site_label_1
_geom_bond_atom_site_label_2
_ccdc_geom_bond_type
Cu1   O1    S    
C17   C29   A    
C19   C20   A    
C4    C8    A    
C31   Br4   S    
C32   Br5   S    
C26   C27   A    
C17   C23   S    
C6    Br7   S    
C31   C43   A    
C36   C37   A    
Cu2   O2    S    
C5    C11   A    
C3    C7    A    
C5    C6    A    
C1    O1    A    
C18   C19   A    
C13   H1    S    
C11   C15   A    
C35   C36   A    
C18   Br3   S    
Cu1   O5    S    
C18   C30   A    
C48   H15   S    
Cu2   N2    S    
C16   F1    S    
C44   C47   A    
C34   O8    A    
C40   H9    S    
C13   C14   A    
C14   F3    S    
C23   O6    A    
C14   C45   A    
Cu1   N1    S    
C24   C25   A    
C20   H4    S    
Cu2   O6    S    
C42   H10   S    
C47   H14   S    
C27   H6    S    
C8    C9    A    
C2    C48   A    
C25   C26   A    
C33   H12   S    
C1    O2    A    
C2    C4    A    
Cu2   O4    S    
C26   H2    S    
C35   H11   S    
C34   C45   S    
C6    C7    A    
C34   O7    A    
C32   N2    A    
C46   Br6   S    
C40   C41   A    
C12   O4    A    
Cu1   O3    S    
C15   H8    S    
C15   C45   A    
C39   C40   A    
C9    C10   A    
C19   H5    S    
C16   C25   A    
C12   O3    A    
C46   C47   A    
C22   C30   A    
C9    H13   S    
C17   C28   A    
C23   O5    A    
C24   C28   A    
C4    C5    A    
C10   C13   A    
C28   H3    S    
C38   C42   A    
C7    Br1   S    
C3    C46   A    
C22   C27   A    
C32   C33   A    
C36   C38   A    
C2    C3    A    
C16   C29   A    
C12   C44   S    
Cu2   O8    S    
C38   C39   A    
C43   N1    A    
C41   F2    S    
C37   N2    A    
C1    C30   S    
C33   C35   A    
C31   C39   A    
C8    F4    S    
C37   C41   A    
C10   C11   A    
C43   H7    S    
C29   Br2   S    
C20   C21   A    
Cu1   Cu2   S    
C21   C24   A    
C42   N1    A    
Cu1   O7    S    
C21   C22   A    
C44   C48   A    
