data_mof_unit_25308.cif
_audit_creation_date              2013-03-05T16:50:03-0500
_audit_creation_method            fapswitch 2.2
_symmetry_space_group_name_H-M    P1
_symmetry_Int_Tables_number       1
_space_group_crystal_system       triclinic
_cell_length_a                    27.770839
_cell_length_b                    10.908146
_cell_length_c                    26.449812
_cell_angle_alpha                 90.329025
_cell_angle_beta                  89.231125
_cell_angle_gamma                 88.298419
_cell_volume                      8007.99292991

loop_
_atom_site_label
_atom_site_type_symbol
_atom_site_description
_atom_site_fract_x
_atom_site_fract_y
_atom_site_fract_z
_atom_type_partial_charge
O1    O     O_R   0.500000 0.319660 0.542350 -0.550746
O2    O     O_R   0.500000 0.680340 0.457650 -0.569357
O3    O     O_R   0.500000 0.319630 0.457650 -0.538402
O4    O     O_R   0.500000 0.680370 0.542350 -0.535111
C1    C     C_R   0.499337 0.261854 0.499988 0.894918
C2    C     C_R   0.500240 0.737775 0.500174 0.857418
O5    O     O_R   0.430260 0.500030 0.542340 -0.542050
O6    O     O_R   0.569740 0.499970 0.457660 -0.555808
O7    O     O_R   0.430270 0.500010 0.457650 -0.613297
O8    O     O_R   0.569730 0.499990 0.542350 -0.616875
C3    C     C_R   0.407389 0.497365 0.500392 0.871126
C4    C     C_R   0.592519 0.497214 0.499672 0.795605
Cu1   Cu    Cu3+1 0.500000 0.500020 0.550150 1.003065
Cu2   Cu    Cu3+1 0.500000 0.499980 0.449850 0.992177
O9    O     O_2   0.456327 0.321365 0.784800 -0.564531
O10   O     O_2   0.525627 0.708942 0.213549 -0.574248
C5    C     C_R   0.462421 0.298232 0.055133 0.180165
C6    C     C_R   0.566899 0.641877 0.947533 0.140015
C7    C     C_R   0.178854 0.401428 0.491986 0.534877
C8    C     C_R   0.819902 0.598175 0.517135 0.591980
O11   O     O_2   0.205221 0.298280 0.481362 -0.536722
O12   O     O_2   0.793031 0.690128 0.538590 -0.539763
N1    N     N_R   0.201403 0.508099 0.502364 -0.475038
N2    N     N_R   0.797859 0.501862 0.494929 -0.458967
C9    C     C_R   0.175821 0.614653 0.512676 0.582985
C10   C     C_R   0.823856 0.406190 0.473393 0.546915
C11   C     C_R   0.278674 0.570716 0.464396 0.321119
C12   C     C_R   0.718870 0.581208 0.465558 0.305355
C13   C     C_R   0.329352 0.565912 0.465280 -0.304057
C14   C     C_R   0.668595 0.578399 0.467701 -0.320048
C15   C     C_R   0.328303 0.430536 0.538295 -0.049277
C16   C     C_R   0.672593 0.409007 0.527462 -0.035649
C17   C     C_R   0.278020 0.440425 0.538956 -0.220613
C18   C     C_R   0.722987 0.414085 0.525923 -0.152340
C19   C     C_R   0.253186 0.507935 0.502214 0.274741
C20   C     C_R   0.746161 0.499305 0.495386 0.275112
C21   C     C_R   0.101266 0.507809 0.500975 -0.074544
C22   C     C_R   0.897959 0.504287 0.496140 -0.072146
C23   C     C_R   0.128492 0.398524 0.492412 -0.049673
C24   C     C_R   0.870276 0.600683 0.518613 -0.056805
C25   C     C_R   0.105148 0.287880 0.485691 -0.204119
C26   C     C_R   0.893177 0.695443 0.543701 -0.207312
C27   C     C_R   0.125018 0.619389 0.508784 -0.042500
C28   C     C_R   0.874755 0.407961 0.470940 -0.031816
C29   C     C_R   0.354396 0.496432 0.501489 -0.103700
C30   C     C_R   0.645269 0.494027 0.498590 -0.125312
H1    H     H_    0.257562 0.391117 0.567049 0.154247
H2    H     H_    0.744740 0.350877 0.548103 0.195515
H3    H     H_    0.125927 0.202514 0.482040 0.201591
H4    H     H_    0.872016 0.766481 0.563294 0.189979
C31   C     C_R   0.976423 0.401800 0.480896 0.056420
C32   C     C_R   0.022907 0.612797 0.514011 0.057624
C33   C     C_R   0.972077 0.606553 0.520086 0.016970
C34   C     C_R   0.026840 0.395239 0.489351 0.016023
C35   C     C_R   0.948886 0.504270 0.499070 0.014930
C36   C     C_R   0.050272 0.505192 0.501541 0.014624
C37   C     C_R   0.953325 0.313458 0.451679 -0.238072
C38   C     C_R   0.046784 0.724659 0.516527 -0.241740
C39   C     C_R   0.903488 0.316914 0.445242 -0.019684
C40   C     C_R   0.096913 0.729961 0.512923 -0.012636
O13   O     O_2   0.800278 0.308814 0.455811 -0.492998
O14   O     O_2   0.199614 0.713630 0.528275 -0.476651
C41   C     C_R   0.054921 0.284004 0.485615 0.233179
C42   C     C_R   0.943392 0.698193 0.545910 0.230702
H5    H     H_    0.647562 0.642826 0.445306 0.152061
H6    H     H_    0.349897 0.613263 0.436978 0.154826
H7    H     H_    0.974311 0.246040 0.430039 0.171075
H8    H     H_    0.026407 0.810638 0.517225 0.165979
H9    H     H_    0.398943 0.241076 0.290632 0.173272
H10   H     H_    0.614701 0.694809 0.688201 0.177961
C43   C     C_R   0.386089 0.198468 0.369253 0.277723
C44   C     C_R   0.619844 0.760326 0.610657 0.312215
C45   C     C_R   0.407536 0.158437 0.414373 -0.140310
C46   C     C_R   0.594710 0.824863 0.572840 -0.225665
H11   H     H_    0.385499 0.144979 0.447856 0.151623
H12   H     H_    0.612009 0.840805 0.536599 0.121759
C47   C     C_R   0.456884 0.126811 0.415246 0.091775
C48   C     C_R   0.547289 0.868887 0.581442 0.115841
C49   C     C_R   0.485052 0.139233 0.371288 -0.122160
C50   C     C_R   0.524623 0.847303 0.628069 -0.078940
H13   H     H_    0.522780 0.111222 0.371009 0.171690
H14   H     H_    0.487753 0.878483 0.634950 0.163400
C51   C     C_R   0.464276 0.182946 0.326965 -0.152689
C52   C     C_R   0.549353 0.784960 0.666038 -0.191623
H15   H     H_    0.486255 0.191086 0.293155 0.198948
H16   H     H_    0.531724 0.769683 0.702050 0.183431
C53   C     C_R   0.414949 0.211248 0.325719 -0.156003
C54   C     C_R   0.596666 0.742060 0.657705 -0.093193
C55   C     C_R   0.476865 0.935330 0.460957 0.209217
C56   C     C_R   0.518002 0.063044 0.541938 0.189281
C57   C     C_R   0.499528 0.871335 0.500670 -0.144055
C58   C     C_R   0.498323 0.127806 0.500371 -0.126656
C59   C     C_R   0.520856 0.934914 0.540811 -0.083289
C60   C     C_R   0.478008 0.063510 0.459604 -0.092270
H17   H     H_    0.413457 0.294087 0.965381 0.196499
H18   H     H_    0.540819 0.782591 0.030936 0.191182
C61   C     C_R   0.471938 0.419226 0.189218 0.586688
C62   C     C_R   0.537273 0.562968 0.812169 0.577637
O15   O     O_2   0.454431 0.328007 0.217412 -0.597859
O16   O     O_2   0.562857 0.644191 0.785565 -0.554142
N3    N     N_R   0.489622 0.518622 0.213727 -0.414570
N4    N     N_R   0.508470 0.485118 0.786458 -0.425248
C63   C     C_R   0.506930 0.615708 0.187395 0.530258
C64   C     C_R   0.479679 0.405770 0.811742 0.571794
C65   C     C_R   0.532304 0.449775 0.290780 0.093924
C66   C     C_R   0.465150 0.545142 0.708623 0.103814
C67   C     C_R   0.535030 0.443009 0.344284 0.091072
C68   C     C_R   0.463054 0.550388 0.655037 0.092223
C69   C     C_R   0.463049 0.564842 0.352569 0.036124
C70   C     C_R   0.539546 0.448294 0.648215 -0.005162
C71   C     C_R   0.459369 0.573693 0.299863 -0.319752
C72   C     C_R   0.543292 0.444019 0.700980 -0.302555
C73   C     C_R   0.493968 0.515487 0.268441 0.375601
C74   C     C_R   0.505869 0.491874 0.731699 0.345284
C75   C     C_R   0.492321 0.509131 0.107620 -0.050863
C76   C     C_R   0.506127 0.487563 0.892575 -0.067376
C77   C     C_R   0.473027 0.410653 0.135361 -0.120981
C78   C     C_R   0.538864 0.561692 0.866014 -0.072456
C79   C     C_R   0.458312 0.304399 0.108612 -0.043813
C80   C     C_R   0.571517 0.632790 0.894120 -0.064958
C81   C     C_R   0.507401 0.615682 0.133557 -0.098351
C82   C     C_R   0.475161 0.410511 0.865316 -0.099864
N5    N     N_R   0.500000 0.499970 0.374520 -0.184939
N6    N     N_R   0.500000 0.500030 0.625480 -0.190004
H19   H     H_    0.436056 0.611241 0.375999 0.154726
H20   H     H_    0.568415 0.407386 0.625578 0.159889
H21   H     H_    0.429440 0.624839 0.283601 0.153102
H22   H     H_    0.574938 0.401842 0.717846 0.178828
C83   C     C_R   0.475065 0.408118 0.973248 0.024816
C84   C     C_R   0.520375 0.593745 0.026573 0.031727
C85   C     C_R   0.530444 0.577591 0.973652 0.014958
C86   C     C_R   0.477717 0.401364 0.027217 -0.008328
C87   C     C_R   0.504077 0.490831 0.946481 0.024585
C88   C     C_R   0.496713 0.501316 0.053839 0.021181
C89   C     C_R   0.441835 0.340761 0.945657 -0.144621
C90   C     C_R   0.530561 0.702904 0.052226 -0.136883
C91   C     C_R   0.440792 0.342015 0.892708 -0.012899
C92   C     C_R   0.523661 0.716363 0.104585 -0.034787
C93   C     C_2   0.421015 0.613410 0.632304 0.439343
H23   H     H_    0.385026 0.582109 0.640391 0.024492
O17   O     O_2   0.425831 0.704038 0.606198 -0.548039
C94   C     C_2   0.577807 0.379745 0.365769 0.397774
H24   H     H_    0.613340 0.399188 0.350839 0.058980
O18   O     O_2   0.574093 0.300513 0.397695 -0.542605
N7    N     N_2   0.033483 0.166821 0.486208 -0.448637
H25   H     H_    0.054168 0.097507 0.469301 0.255122
C95   C     C_3   0.014383 0.131327 0.534960 -0.689773
H26   H     H_    0.996441 0.042159 0.531283 0.224019
H27   H     H_    0.987297 0.200537 0.549221 0.247610
H28   H     H_    0.043984 0.121205 0.562629 0.226528
N8    N     N_2   0.964059 0.786863 0.578217 -0.456884
H29   H     H_    0.943549 0.866667 0.582898 0.250733
C96   C     C_3   0.981177 0.738607 0.625760 -0.660372
H30   H     H_    0.998819 0.812248 0.647209 0.227684
H31   H     H_    0.008054 0.662514 0.619283 0.241581
H32   H     H_    0.950519 0.704859 0.648685 0.230949
N9    N     N_2   0.335165 0.215228 0.366323 -0.438122
H33   H     H_    0.322109 0.217647 0.329989 0.247783
C97   C     C_3   0.314533 0.312222 0.397823 -0.611361
H34   H     H_    0.274804 0.316439 0.393474 0.249876
H35   H     H_    0.329172 0.401459 0.386083 0.212160
H36   H     H_    0.322308 0.294887 0.438228 0.248853
N10   N     N_2   0.668510 0.719224 0.601032 -0.418608
H37   H     H_    0.679789 0.722461 0.563757 0.271703
C98   C     C_3   0.687303 0.614231 0.628526 -0.608302
H38   H     H_    0.723311 0.586077 0.612961 0.248017
H39   H     H_    0.662817 0.536018 0.625012 0.221035
H40   H     H_    0.692003 0.638334 0.668932 0.236903
N11   N     N_2   0.452369 0.869857 0.422554 -0.412687
H41   H     H_    0.455980 0.902553 0.386275 0.261644
C99   C     C_3   0.403479 0.839279 0.435644 -0.649125
H42   H     H_    0.387711 0.788522 0.403758 0.194839
H43   H     H_    0.381007 0.923429 0.442847 0.232974
H44   H     H_    0.402869 0.780726 0.469835 0.234513
N12   N     N_2   0.535630 0.127070 0.584799 -0.431674
H45   H     H_    0.570347 0.102865 0.594951 0.262514
C100  C     C_3   0.502124 0.139499 0.627310 -0.557045
H46   H     H_    0.517466 0.094256 0.661250 0.203085
H47   H     H_    0.466713 0.099179 0.619062 0.233632
H48   H     H_    0.495458 0.237574 0.636333 0.252959
C101  C     C_2   0.400451 0.279055 0.868161 0.424841
H49   H     H_    0.384490 0.315313 0.833983 0.117244
O19   O     O_2   0.383582 0.187325 0.886839 -0.542502
C102  C     C_2   0.531071 0.839841 0.126589 0.470073
H50   H     H_    0.508785 0.873823 0.157874 0.151998
O20   O     O_2   0.561575 0.906507 0.109043 -0.543330
C103  C     C_2   0.351088 0.344677 0.574819 0.355356
H51   H     H_    0.332684 0.325458 0.610235 0.072233
O21   O     O_2   0.388874 0.289214 0.564827 -0.553301
C104  C     C_2   0.649403 0.311714 0.557475 0.350806
H52   H     H_    0.611627 0.292938 0.552800 0.080737
O22   O     O_2   0.672451 0.250013 0.587595 -0.540424
C105  C     C_2   0.438547 0.197883 0.135669 0.433717
H53   H     H_    0.405369 0.208779 0.157588 0.086227
O23   O     O_2   0.459560 0.098034 0.134183 -0.553841
C106  C     C_2   0.613519 0.689771 0.869345 0.484454
H54   H     H_    0.620350 0.786099 0.875348 0.040902
O24   O     O_2   0.641757 0.627866 0.843382 -0.504713
N13   N     N_2   0.454906 0.184695 0.029598 -0.439790
H55   H     H_    0.427863 0.131614 0.043842 0.267105
C107  C     C_3   0.498499 0.115633 0.015990 -0.552418
H56   H     H_    0.489167 0.031943 0.994588 0.214290
H57   H     H_    0.518263 0.087856 0.050486 0.274056
H58   H     H_    0.522202 0.171287 0.991631 0.224398
N14   N     N_2   0.603031 0.701643 0.975681 -0.448155
H59   H     H_    0.615135 0.782302 0.960763 0.240797
C108  C     C_3   0.641204 0.621027 0.993868 -0.601390
H60   H     H_    0.665681 0.673919 0.017987 0.232376
H61   H     H_    0.662280 0.580686 0.961533 0.231121
H62   H     H_    0.626074 0.546297 0.017005 0.237645
N15   N     N_2   0.427082 0.595132 0.739786 -0.434758
H63   H     H_    0.392943 0.576527 0.727662 0.243765
C109  C     C_3   0.432307 0.722418 0.753673 -0.664816
H64   H     H_    0.402478 0.751695 0.779809 0.239662
H65   H     H_    0.431042 0.781245 0.719523 0.225952
H66   H     H_    0.466872 0.735073 0.773338 0.247717
N16   N     N_2   0.566599 0.385703 0.259042 -0.433558
H67   H     H_    0.578043 0.300245 0.271294 0.253260
C110  C     C_3   0.604385 0.458379 0.237308 -0.633717
H68   H     H_    0.605511 0.444116 0.195730 0.247832
H69   H     H_    0.639777 0.429193 0.253031 0.209013
H70   H     H_    0.598507 0.557934 0.245256 0.254389
N17   N     N_2   0.741877 0.667840 0.434107 -0.411814
H71   H     H_    0.722094 0.748562 0.429735 0.258322
C111  C     C_3   0.759234 0.618394 0.386164 -0.622331
H72   H     H_    0.778224 0.690494 0.364968 0.230893
H73   H     H_    0.728558 0.587336 0.363265 0.218534
H74   H     H_    0.785018 0.540254 0.391961 0.257691
N18   N     N_2   0.252469 0.635201 0.425934 -0.388560
H75   H     H_    0.221029 0.595631 0.414774 0.251841
C112  C     C_3   0.277858 0.697221 0.385873 -0.651315
H76   H     H_    0.251425 0.743264 0.360597 0.239845
H77   H     H_    0.300021 0.630246 0.363081 0.199191
H78   H     H_    0.300680 0.769054 0.402018 0.241292
C113  C     C_2   0.884574 0.228233 0.408362 0.466337
H79   H     H_    0.899620 0.135273 0.406697 0.049069
O25   O     O_2   0.854913 0.260400 0.377075 -0.495378
C114  C     C_2   0.116947 0.854209 0.509682 0.442952
H80   H     H_    0.101076 0.928472 0.532423 0.042726
O26   O     O_2   0.148651 0.876970 0.479017 -0.486113

loop_
_geom_bond_atom_site_label_1
_geom_bond_atom_site_label_2
_geom_bond_distance
_ccdc_geom_bond_type
C51   C53   1.396099 A    
C99   H42   1.108394 S    
C98   H38   1.110428 S    
C75   C81   1.422805 A    
C6    C80   1.419477 A    
C75   C77   1.418476 A    
C11   C13   1.407298 A    
C107  H57   1.110098 S    
C107  H56   1.110416 S    
N10   H37   1.031587 S    
C67   N5    1.381867 A    
C44   N10   1.430339 S    
C50   C52   1.393313 A    
H10   C54   1.080463 S    
C9    C27   1.415417 A    
C72   C74   1.397495 A    
N7    H25   1.032003 S    
C10   C28   1.414833 A    
C23   C25   1.398438 A    
O2    C2    1.284516 A    
C101  H49   1.083770 S    
O5    C3    1.286432 A    
C99   H43   1.108657 S    
C45   H11   1.082901 S    
N2    C20   1.436661 S    
C76   C82   1.420687 A    
C66   C74   1.404452 A    
C6    N14   1.428114 S    
O1    C1    1.283175 A    
C65   C73   1.404549 A    
C7    O11   1.350180 S    
C10   O13   1.348000 S    
N2    C10   1.368296 A    
C111  H73   1.111748 S    
C69   C71   1.402832 A    
C8    C24   1.401062 A    
C33   C42   1.425014 A    
C48   C50   1.401393 A    
C37   C39   1.396127 A    
C64   C82   1.421421 A    
C34   C41   1.424966 A    
C28   C39   1.419748 A    
C38   C40   1.397055 A    
C2    C57   1.456417 S    
C47   C60   1.483628 S    
O4    Cu1   1.979249 S    
C111  H74   1.109480 S    
N3    C73   1.454325 S    
C102  H50   1.083632 S    
N12   C100  1.452973 S    
N11   H41   1.030304 S    
C55   C60   1.400161 A    
C45   C47   1.403750 A    
C70   C72   1.401814 A    
C70   N6    1.367860 A    
C83   C89   1.405792 A    
C21   C36   1.417166 A    
C11   N18   1.434217 S    
N9    H33   1.031890 S    
C22   C35   1.417423 A    
C95   H26   1.110300 S    
C102  O20   1.221359 D    
C100  H47   1.112856 S    
C108  H62   1.111165 S    
O6    Cu2   1.950475 S    
C113  H79   1.085640 S    
C97   H35   1.110328 S    
C5    N13   1.429363 S    
C31   C37   1.406663 A    
O9    C64   1.347733 S    
C55   C57   1.409565 A    
C92   C102  1.485226 S    
C18   C20   1.400330 A    
H9    C53   1.081980 S    
O3    C1    1.288324 A    
C83   C86   1.432545 A    
C24   C26   1.398477 A    
N8    H29   1.031967 S    
C21   C23   1.408125 A    
N13   H55   1.030509 S    
N9    C97   1.443247 S    
Cu1   Cu2   2.652916 S    
C69   H19   1.078678 S    
C5    C86   1.421521 A    
C113  O25   1.221003 D    
C6    C85   1.422297 A    
C84   C88   1.415421 A    
C37   H7    1.081125 S    
O8    C4    1.286451 A    
C25   H3    1.083959 S    
C44   C54   1.411210 A    
C62   C78   1.425600 A    
C34   C36   1.418971 A    
C33   C35   1.419074 A    
C43   N9    1.423785 S    
C99   H44   1.110365 S    
C114  O26   1.220984 D    
C95   H27   1.110597 S    
C72   H22   1.082540 S    
C15   C17   1.397237 A    
N7    C95   1.446935 S    
C42   N8    1.425403 S    
C108  H60   1.110219 S    
C14   H5    1.084275 S    
C8    N2    1.365366 A    
C95   H28   1.111401 S    
C47   C49   1.402055 A    
N17   H71   1.031845 S    
H18   C90   1.081603 S    
C61   O15   1.345396 S    
C101  O19   1.221490 D    
C110  H68   1.109701 S    
C49   H13   1.082565 S    
Cu1   N6    1.992464 S    
C69   N5    1.366906 A    
C76   C87   1.426385 A    
C11   C19   1.410059 A    
N16   H67   1.031337 S    
C109  H64   1.110175 S    
C56   N12   1.427845 S    
C13   H6    1.078495 S    
C13   C29   1.403656 A    
C79   C105  1.483343 S    
C4    C30   1.464181 S    
C105  O23   1.220458 D    
C81   C92   1.423761 A    
C21   C27   1.416897 A    
C7    N1    1.365875 A    
O7    Cu2   1.944658 S    
C104  H52   1.083390 S    
C22   C28   1.416784 A    
N18   H75   1.031301 S    
N4    C74   1.453323 S    
C110  H69   1.110954 S    
C65   C67   1.420409 A    
O10   C63   1.347362 S    
C56   C58   1.417254 A    
C97   H34   1.110428 S    
O6    C4    1.286086 A    
C100  H48   1.104470 S    
C58   C60   1.415635 A    
H17   C89   1.080870 S    
C97   H36   1.109324 S    
C16   C104  1.485872 S    
C71   C73   1.397630 A    
C80   C106  1.484432 S    
C32   C38   1.407593 A    
C67   C94   1.477929 S    
N4    C64   1.367141 A    
O7    C3    1.290291 A    
C12   C20   1.406747 A    
C96   H31   1.110666 S    
O3    Cu2   1.979251 S    
C7    C23   1.399795 A    
C27   C40   1.419921 A    
C26   H4    1.083768 S    
C86   C88   1.413567 A    
C43   C53   1.404044 A    
C44   C46   1.407459 A    
N15   C109  1.446132 S    
C70   H20   1.078506 S    
C100  H46   1.110788 S    
C98   H40   1.109458 S    
C65   N16   1.425655 S    
C112  H77   1.110970 S    
C71   H21   1.082555 S    
C17   H1    1.084262 S    
C107  H58   1.110770 S    
C83   C87   1.414069 A    
C3    C29   1.471912 S    
O4    C2    1.282446 A    
O1    Cu1   1.977002 S    
C46   H12   1.083701 S    
C15   C103  1.484045 S    
C63   C81   1.423888 A    
C26   C42   1.397696 A    
N13   C107  1.446959 S    
C94   O18   1.217398 D    
C32   C33   1.422248 A    
C56   C59   1.397675 A    
C43   C45   1.406859 A    
N11   C99   1.445716 S    
C109  H66   1.109701 S    
C38   H8    1.080817 S    
C89   C91   1.401322 A    
N14   H59   1.029953 S    
C114  H80   1.085518 S    
C104  O22   1.221310 D    
Cu2   N5    1.992464 S    
C111  H72   1.110295 S    
C57   C59   1.411326 A    
C16   C30   1.414541 A    
C106  O24   1.221185 D    
C14   C30   1.401425 A    
C84   C90   1.405015 A    
C52   C54   1.395883 A    
C82   C91   1.422729 A    
C8    O12   1.350037 S    
C106  H54   1.084440 S    
C85   C87   1.412722 A    
O8    Cu1   1.944655 S    
C68   C93   1.474120 S    
C39   C113  1.481992 S    
C93   H23   1.084723 S    
N17   C111  1.446223 S    
C75   C88   1.427933 A    
N16   C110  1.448633 S    
C46   C48   1.403490 A    
C18   H2    1.083472 S    
C62   O16   1.347615 S    
N3    C63   1.366508 A    
C31   C34   1.420601 A    
C77   C79   1.427374 A    
C84   C85   1.432562 A    
C109  H65   1.111341 S    
C55   N11   1.429573 S    
C103  H51   1.085555 S    
N18   C112  1.447092 S    
N12   H45   1.031507 S    
C62   N4    1.368111 A    
C110  H70   1.111795 S    
C22   C24   1.408038 A    
C93   O17   1.218683 D    
C96   H32   1.111470 S    
C66   C68   1.420725 A    
C12   N17   1.422632 S    
C66   N15   1.425342 S    
C12   C14   1.397826 A    
C17   C19   1.399425 A    
C50   H14   1.082044 S    
C76   C78   1.416676 A    
C68   N6    1.380464 A    
C112  H78   1.109484 S    
C31   C35   1.413679 A    
C9    O14   1.347969 S    
N8    C96   1.446766 S    
C61   C77   1.426887 A    
C51   H15   1.081501 S    
O2    Cu2   1.977002 S    
N1    C19   1.437941 S    
C78   C80   1.424660 A    
C103  O21   1.220678 D    
C1    C58   1.463407 S    
C5    C79   1.418634 A    
N15   H63   1.030385 S    
C49   C51   1.393872 A    
O5    Cu1   1.950475 S    
N1    C9    1.368280 A    
C40   C114  1.482774 S    
C91   C101  1.486060 S    
C98   H39   1.110915 S    
C105  H53   1.085139 S    
C15   C29   1.417567 A    
C90   C92   1.401816 A    
C112  H76   1.110474 S    
C108  H61   1.111143 S    
C25   C41   1.396766 A    
C94   H24   1.085193 S    
C52   H16   1.081144 S    
N10   C98   1.448145 S    
C48   C59   1.487000 S    
C96   H30   1.110310 S    
N14   C108  1.446258 S    
C41   N7    1.426110 S    
C61   N3    1.367132 A    
C32   C36   1.414170 A    
C16   C18   1.402279 A    
