data_mof_unit_6095.cif
_audit_creation_date              2012-12-10T20:01:39-0500
_audit_creation_method            fapswitch 2.2
_symmetry_space_group_name_H-M    P1
_symmetry_Int_Tables_number       1
_space_group_crystal_system       triclinic
_cell_length_a                    14.129979
_cell_length_b                    14.866993
_cell_length_c                    16.391443
_cell_angle_alpha                 89.366463
_cell_angle_beta                  95.151726
_cell_angle_gamma                 90.069131
_cell_volume                      3429.23584937

loop_
_atom_site_label
_atom_site_type_symbol
_atom_type_description
_atom_site_fract_x
_atom_site_fract_y
_atom_site_fract_z
_atom_type_partial_charge
C1    C     C_R   0.499501 0.327019 0.496127 0.941472
C2    C     C_R   0.499803 0.672779 0.498288 0.913708
C3    C     C_R   0.579714 0.189638 0.453632 0.597843
C4    C     C_R   0.424472 0.808055 0.433869 0.573609
C5    C     C_R   0.497661 0.231137 0.478895 -0.308466
C6    C     C_R   0.498819 0.768878 0.484868 -0.310839
C7    C     C_R   0.412860 0.180973 0.481731 0.408939
C8    C     C_R   0.575288 0.821417 0.517963 0.428102
C9    C     C_R   0.413068 0.090238 0.463280 -0.251646
C10   C     C_R   0.577487 0.912156 0.498705 -0.243183
C11   C     C_R   0.496830 0.048545 0.444533 0.000409
C12   C     C_R   0.502781 0.951324 0.448762 0.006057
C13   C     C_R   0.112757 0.477786 0.571954 0.554876
C14   C     C_R   0.893337 0.576459 0.477566 0.545123
C15   C     C_R   0.211890 0.478252 0.570001 -0.141851
C16   C     C_R   0.793837 0.575079 0.476498 -0.148475
C17   C     C_R   0.196705 0.520200 0.429936 -0.077207
C18   C     C_R   0.797365 0.424523 0.524344 -0.122568
C19   C     C_R   0.096780 0.518478 0.428262 0.379431
C20   C     C_R   0.897464 0.421244 0.523435 0.333312
C21   C     C_R   0.053285 0.499018 0.500835 -0.044962
C22   C     C_R   0.946798 0.499230 0.501629 -0.045147
C23   C     C_R   0.513039 0.495940 0.654595 1.016014
C24   C     C_R   0.487142 0.498125 0.345606 1.020777
C25   C     C_R   0.523210 0.472074 0.741381 -0.422611
C26   C     C_R   0.477730 0.474597 0.259550 -0.451548
C27   C     C_R   0.464936 0.404051 0.769672 0.457361
C28   C     C_R   0.533226 0.403898 0.233794 0.470421
C29   C     C_R   0.477385 0.374750 0.850789 0.350259
C30   C     C_R   0.519946 0.373754 0.153629 0.321139
C31   C     C_R   0.542301 0.420813 0.906159 -0.076269
C32   C     C_R   0.454272 0.418743 0.097379 -0.065514
C33   C     C_R   0.604285 0.484413 0.877087 0.494296
C34   C     C_R   0.395009 0.485411 0.124224 0.497725
C35   C     C_R   0.597380 0.508253 0.794017 0.250250
C36   C     C_R   0.408508 0.516032 0.204836 0.267382
C37   C     C_R   0.578754 0.098979 0.436384 -0.284483
C38   C     C_R   0.427122 0.898934 0.415387 -0.277246
H1    H     H_    0.256325 0.461327 0.625098 0.223250
H2    H     H_    0.753647 0.634729 0.457553 0.197928
H3    H     H_    0.229548 0.536813 0.374605 0.211675
H4    H     H_    0.759417 0.366620 0.544831 0.187925
H5    H     H_    0.643268 0.067174 0.419989 0.178949
H6    H     H_    0.369135 0.928911 0.376673 0.177167
H7    H     H_    0.348790 0.051547 0.468004 0.166472
H8    H     H_    0.634785 0.952808 0.527038 0.163017
N1    N     N_2   0.539167 0.413997 0.991652 -0.041081
N2    N     N_2   0.456557 0.409235 0.012288 -0.028889
N3    N     N_R   0.252470 0.499980 0.500000 -0.147786
N4    N     N_R   0.747530 0.500020 0.500000 -0.134882
O1    O     O_R   0.579480 0.369070 0.499990 -0.560992
O2    O     O_R   0.420520 0.630930 0.500010 -0.556020
O3    O     O_R   0.420520 0.369060 0.499990 -0.581610
O4    O     O_R   0.579480 0.630940 0.500010 -0.609470
O5    O     O_R   0.588340 0.499180 0.616130 -0.621972
O6    O     O_R   0.411660 0.500820 0.383870 -0.594603
O7    O     O_R   0.429390 0.499170 0.616130 -0.589164
O8    O     O_R   0.570610 0.500830 0.383870 -0.567530
Zn1   Zn    Zn3+2 0.606140 0.500010 0.500000 0.999272
Zn2   Zn    Zn3+2 0.393860 0.499990 0.500000 1.023604
F1    F     F_    0.598713 0.362200 0.287097 -0.604078
F2    F     F_    0.398391 0.363099 0.717790 -0.670669
O9    O     O_3   0.042330 0.537944 0.355986 -0.570298
C39   C     C_3   0.014897 0.456475 0.316884 0.054572
H9    H     H_    0.996437 0.402812 0.360954 0.117558
H10   H     H_    0.074029 0.431850 0.282554 0.160091
C40   C     C_3   0.927337 0.473846 0.257081 -0.292643
H11   H     H_    0.869775 0.502539 0.290845 0.239491
H12   H     H_    0.945274 0.523423 0.209598 0.247804
C41   C     C_3   0.891386 0.387408 0.215506 -0.860440
H13   H     H_    0.947398 0.357715 0.180722 0.258860
H14   H     H_    0.828185 0.402525 0.172271 0.296424
H15   H     H_    0.870561 0.337840 0.261877 0.269274
O10   O     O_3   0.948572 0.344334 0.547168 -0.602644
C42   C     C_3   0.915644 0.270407 0.499070 0.103788
H16   H     H_    0.896742 0.290127 0.433677 0.147024
H17   H     H_    0.852505 0.240150 0.524698 0.184586
C43   C     C_3   0.994274 0.199814 0.501847 -0.361523
H18   H     H_    0.058387 0.229891 0.477712 0.231292
H19   H     H_    0.013077 0.178157 0.566383 0.243576
C44   C     C_3   0.963363 0.117797 0.451009 -0.900383
H20   H     H_    0.899975 0.086008 0.474738 0.272883
H21   H     H_    0.021978 0.067826 0.454665 0.269857
H22   H     H_    0.946186 0.137618 0.385819 0.269234
O11   O     O_3   0.576968 0.305166 0.129318 -0.574329
C45   C     C_3   0.524268 0.224068 0.122678 0.083470
H23   H     H_    0.558882 0.180044 0.079812 0.156874
H24   H     H_    0.449631 0.234068 0.095630 0.124723
C46   C     C_3   0.525869 0.175519 0.206004 -0.288011
H25   H     H_    0.600550 0.168163 0.232919 0.267751
H26   H     H_    0.486340 0.215691 0.248527 0.228883
C47   C     C_3   0.480386 0.082511 0.197711 -0.976263
H27   H     H_    0.405195 0.088338 0.171923 0.270101
H28   H     H_    0.482159 0.049491 0.258918 0.281005
H29   H     H_    0.519896 0.039743 0.157189 0.269774
O12   O     O_3   0.420565 0.305645 0.875986 -0.561524
C48   C     C_3   0.476358 0.227626 0.894188 0.101924
H30   H     H_    0.435575 0.182564 0.932686 0.160687
H31   H     H_    0.544673 0.242368 0.931042 0.130915
C49   C     C_3   0.495081 0.177542 0.815766 -0.354065
H32   H     H_    0.426619 0.164206 0.779286 0.244671
H33   H     H_    0.539778 0.219704 0.778046 0.209005
C50   C     C_3   0.545944 0.088371 0.835418 -0.966624
H34   H     H_    0.615403 0.100164 0.871044 0.270694
H35   H     H_    0.558850 0.054199 0.777531 0.270657
H36   H     H_    0.501726 0.043671 0.871282 0.269476
F3    F     F_    0.666320 0.528413 0.930828 -0.628822
F4    F     F_    0.328505 0.524583 0.070288 -0.619072
O13   O     O_3   0.655405 0.574556 0.765923 -0.616582
C51   C     C_3   0.747468 0.539111 0.761338 0.151220
H37   H     H_    0.744878 0.473889 0.728073 0.128187
H38   H     H_    0.783625 0.528755 0.823868 0.197636
C52   C     C_3   0.805481 0.605894 0.714809 -0.410399
H39   H     H_    0.771017 0.615445 0.651668 0.251233
H40   H     H_    0.807621 0.671874 0.746125 0.240746
C53   C     C_3   0.906815 0.572576 0.710197 -0.805306
H41   H     H_    0.944689 0.568392 0.772494 0.278236
H42   H     H_    0.945640 0.619884 0.672256 0.280160
H43   H     H_    0.906060 0.505097 0.681942 0.292376
O14   O     O_3   0.353388 0.585000 0.231436 -0.583184
C54   C     C_3   0.382777 0.668844 0.200205 0.202747
H44   H     H_    0.327412 0.718958 0.211778 0.198634
H45   H     H_    0.386524 0.668140 0.132678 0.167036
C55   C     C_3   0.478222 0.699974 0.243228 -0.411327
H46   H     H_    0.477101 0.692150 0.310466 0.249615
H47   H     H_    0.536683 0.657613 0.223704 0.211589
C56   C     C_3   0.498806 0.798054 0.222683 -0.897913
H48   H     H_    0.503558 0.806606 0.155772 0.265944
H49   H     H_    0.567442 0.818623 0.255532 0.272799
H50   H     H_    0.441928 0.842456 0.241985 0.272398
F5    F     F_    0.661311 0.235946 0.445580 -0.655245
F6    F     F_    0.350188 0.758416 0.400767 -0.642764
O15   O     O_3   0.327749 0.220986 0.496425 -0.628273
C57   C     C_3   0.314520 0.216313 0.580956 0.168951
H51   H     H_    0.278988 0.279773 0.596280 0.218682
H52   H     H_    0.382255 0.212728 0.621643 0.136866
C58   C     C_3   0.250064 0.136790 0.598769 -0.446784
H53   H     H_    0.191887 0.131071 0.548818 0.246148
H54   H     H_    0.292023 0.073534 0.601313 0.215751
C59   C     C_3   0.206378 0.147911 0.679900 -0.850176
H55   H     H_    0.262822 0.153336 0.731186 0.274084
H56   H     H_    0.161385 0.088580 0.691210 0.259703
H57   H     H_    0.161182 0.209137 0.677879 0.286794
O16   O     O_3   0.647106 0.785119 0.571023 -0.625357
C60   C     C_3   0.618908 0.784442 0.651836 0.081034
H58   H     H_    0.630306 0.715567 0.677116 0.214942
H59   H     H_    0.542168 0.800227 0.656481 0.115862
C61   C     C_3   0.680448 0.850231 0.704425 -0.366956
H60   H     H_    0.756717 0.833971 0.700875 0.239508
H61   H     H_    0.667427 0.919808 0.680618 0.215896
C62   C     C_3   0.658148 0.845716 0.793761 -0.896984
H62   H     H_    0.582516 0.863240 0.798872 0.265041
H63   H     H_    0.703659 0.894384 0.830178 0.266183
H64   H     H_    0.672420 0.777077 0.819412 0.297357
F7    F     F_    0.075560 0.457699 0.643397 -0.637184
F8    F     F_    0.937189 0.653338 0.456189 -0.616214

loop_
_geom_bond_atom_site_label_1
_geom_bond_atom_site_label_2
_ccdc_geom_bond_type
C9    H7    S    
O5    Zn1   S    
C27   C29   A    
C33   F3    S    
C61   C62   S    
C44   H22   S    
C57   C58   S    
C60   H58   S    
C4    F6    S    
O11   C45   S    
C58   H54   S    
N3    Zn2   S    
C3    F5    S    
N4    Zn1   S    
C19   C21   A    
C59   H56   S    
C7    O15   S    
C18   H4    S    
C43   H19   S    
C53   H41   S    
C7    C9    A    
C62   H64   S    
C11   C37   A    
C1    O3    A    
C51   H37   S    
C13   F7    S    
C54   C55   S    
O2    Zn2   S    
C60   H59   S    
C19   O9    S    
C10   H8    S    
C62   H62   S    
C59   H57   S    
C41   H13   S    
C46   H26   S    
C18   C20   A    
C35   O13   S    
C52   C53   S    
C28   F1    S    
C23   C25   S    
C24   O8    A    
C31   N1    S    
C21   C22   S    
C62   H63   S    
C32   N2    S    
C2    C6    S    
C10   C12   A    
C49   H33   S    
C44   H21   S    
O3    Zn2   S    
C48   H30   S    
C17   H3    S    
O4    Zn1   S    
C58   C59   S    
C25   C35   A    
O10   C42   S    
C45   H24   S    
C13   C21   A    
C40   H11   S    
C39   C40   S    
C61   H60   S    
C4    C6    A    
C48   H31   S    
C17   N3    A    
C5    C7    A    
C43   H18   S    
C17   C19   A    
O7    Zn2   S    
C6    C8    A    
O8    Zn1   S    
C41   H14   S    
C49   C50   S    
C44   H20   S    
O6    Zn2   S    
C46   C47   S    
C39   H10   S    
C37   H5    S    
C42   H16   S    
C56   H49   S    
C38   H6    S    
C27   F2    S    
C9    C11   A    
N1    N2    D    
O12   C48   S    
C41   H15   S    
C47   H28   S    
C20   O10   S    
C50   H35   S    
C59   H55   S    
C30   O11   S    
C42   H17   S    
C51   C52   S    
C15   H1    S    
C54   H44   S    
C2    O2    A    
C16   H2    S    
C55   C56   S    
C61   H61   S    
C26   C36   A    
C20   C22   A    
C13   C15   A    
C2    O4    A    
O15   C57   S    
C14   C16   A    
O1    Zn1   S    
C47   H29   S    
C56   H48   S    
C1    C5    S    
C60   C61   S    
O14   C54   S    
C18   N4    A    
C55   H47   S    
C52   H39   S    
C23   O7    A    
C31   C33   A    
C48   C49   S    
C14   F8    S    
C45   H23   S    
C24   C26   S    
C16   N4    A    
O16   C60   S    
C3    C5    A    
C45   C46   S    
C29   O12   S    
C57   H52   S    
C11   C12   S    
C23   O5    A    
C57   H51   S    
C24   O6    A    
C58   H53   S    
C26   C28   A    
C1    O1    A    
C53   H43   S    
C40   C41   S    
C34   F4    S    
C39   H9    S    
C14   C22   A    
C28   C30   A    
C56   H50   S    
C29   C31   A    
O13   C51   S    
C30   C32   A    
C43   C44   S    
C47   H27   S    
C33   C35   A    
C53   H42   S    
C50   H36   S    
C34   C36   A    
C15   N3    A    
C12   C38   A    
C36   O14   S    
C42   C43   S    
C51   H38   S    
C54   H45   S    
O9    C39   S    
C8    O16   S    
C3    C37   A    
C8    C10   A    
C50   H34   S    
C49   H32   S    
C40   H12   S    
C46   H25   S    
C4    C38   A    
C32   C34   A    
C55   H46   S    
C52   H40   S    
C25   C27   A    
