data_mof_unit_52489.cif
_audit_creation_date              2012-12-11T16:36:24-0500
_audit_creation_method            fapswitch 2.2
_symmetry_space_group_name_H-M    P1
_symmetry_Int_Tables_number       1
_space_group_crystal_system       triclinic
_cell_length_a                    25.569829
_cell_length_b                    7.257545
_cell_length_c                    23.553438
_cell_angle_alpha                 90.00321
_cell_angle_beta                  104.434819
_cell_angle_gamma                 90.002152
_cell_volume                      4232.92850314

loop_
_atom_site_label
_atom_site_type_symbol
_atom_type_description
_atom_site_fract_x
_atom_site_fract_y
_atom_site_fract_z
_atom_type_partial_charge
O1    O     O_R   0.438720 0.630760 0.439780 -0.531320
O2    O     O_R   0.061280 0.869240 0.060220 -0.519919
O3    O     O_R   0.561280 0.130760 0.560220 -0.531443
O4    O     O_R   0.938720 0.369240 0.939780 -0.519241
O5    O     O_R   0.546380 0.956770 0.446270 -0.543515
O6    O     O_R   0.953620 0.543230 0.053730 -0.531845
O7    O     O_R   0.453620 0.456770 0.553730 -0.543579
O8    O     O_R   0.046380 0.043230 0.946270 -0.531712
C1    C     C_R   0.561633 0.790937 0.433350 0.805490
C2    C     C_R   0.937422 0.708484 0.065907 0.760370
C3    C     C_R   0.438365 0.290941 0.566648 0.805107
C4    C     C_R   0.062582 0.208483 0.934099 0.760279
O9    O     O_R   0.438210 0.960230 0.432810 -0.507067
O10   O     O_R   0.061790 0.539770 0.067190 -0.526827
O11   O     O_R   0.561790 0.460230 0.567190 -0.507320
O12   O     O_R   0.938210 0.039770 0.932810 -0.527142
O13   O     O_R   0.452340 0.134240 0.546660 -0.501374
O14   O     O_R   0.047660 0.365760 0.953340 -0.499001
O15   O     O_R   0.547660 0.634240 0.453340 -0.501679
O16   O     O_R   0.952340 0.865760 0.046660 -0.498968
C5    C     C_R   0.416906 0.792845 0.419357 0.711056
C6    C     C_R   0.082222 0.708722 0.082596 0.818975
C7    C     C_R   0.583105 0.292861 0.580626 0.713366
C8    C     C_R   0.917788 0.208720 0.917397 0.820373
O17   O     O_3   0.504760 0.798440 0.537370 -0.350977
O18   O     O_3   0.995240 0.701560 0.962630 -0.364795
O19   O     O_3   0.495240 0.298440 0.462630 -0.351359
O20   O     O_3   0.004760 0.201560 0.037370 -0.365239
V1    V     V_3+5 0.499120 0.071860 0.493070 1.736756
V2    V     V_3+5 0.000880 0.428140 0.006930 1.761155
V3    V     V_3+5 0.500880 0.571860 0.506930 1.736398
V4    V     V_3+5 0.999120 0.928140 0.993070 1.760778
C9    C     C_R   0.735211 0.320475 0.657888 0.438232
C10   C     C_R   0.788565 0.386667 0.806956 0.371624
C11   C     C_R   0.264839 0.818699 0.342050 0.373333
C12   C     C_R   0.211781 0.885586 0.192875 0.334840
C13   C     C_R   0.684946 0.362779 0.616603 0.294531
C14   C     C_R   0.829251 0.367502 0.860971 0.321128
C15   C     C_R   0.315044 0.861909 0.383265 0.306286
C16   C     C_R   0.170932 0.866981 0.138939 0.330786
C17   C     C_R   0.636097 0.284044 0.625284 -0.209841
C18   C     C_R   0.867901 0.220765 0.867481 -0.215743
C19   C     C_R   0.363980 0.783916 0.374606 -0.205360
C20   C     C_R   0.132140 0.720656 0.132490 -0.216085
C21   C     C_R   0.637966 0.184302 0.676609 -0.115596
C22   C     C_R   0.859582 0.083047 0.824323 -0.131862
C23   C     C_R   0.362236 0.684553 0.323231 -0.118438
C24   C     C_R   0.140387 0.582951 0.175640 -0.133620
C25   C     C_R   0.685511 0.169801 0.720545 -0.073920
C26   C     C_R   0.815925 0.090361 0.775247 -0.039579
C27   C     C_R   0.314712 0.669691 0.279272 -0.053607
C28   C     C_R   0.184066 0.589940 0.224688 -0.036109
C29   C     C_R   0.734084 0.239812 0.712583 -0.027677
C30   C     C_R   0.781347 0.242704 0.764809 -0.067154
C31   C     C_R   0.266047 0.738629 0.287308 -0.016272
C32   C     C_R   0.218802 0.741848 0.235089 -0.094754
C33   C     C_R   0.399385 0.131116 0.644166 0.452280
C34   C     C_R   0.136005 0.364489 0.892996 0.415028
C35   C     C_R   0.600617 0.631128 0.355827 0.452532
C36   C     C_R   0.864040 0.864513 0.107074 0.415419
C37   C     C_R   0.359044 0.122613 0.674924 -0.077837
C38   C     C_R   0.167921 0.364492 0.852516 -0.197298
C39   C     C_R   0.640978 0.622584 0.325097 -0.078270
C40   C     C_R   0.832144 0.864505 0.147575 -0.196852
H1    H     H_    0.357995 0.007625 0.703905 0.181360
H2    H     H_    0.194799 0.478963 0.851381 0.170719
H3    H     H_    0.642010 0.507637 0.296092 0.181300
H4    H     H_    0.805282 0.978994 0.148739 0.170707
C41   C     C_R   0.320580 0.262305 0.670144 0.060805
C42   C     C_R   0.166785 0.218144 0.813751 0.092174
C43   C     C_R   0.679471 0.762209 0.329922 0.060750
C44   C     C_R   0.833271 0.718114 0.186316 0.090967
C45   C     C_R   0.320865 0.409152 0.631659 -0.044515
C46   C     C_R   0.132378 0.069056 0.815207 0.010922
C47   C     C_R   0.679198 0.909017 0.368430 -0.047010
C48   C     C_R   0.867659 0.569008 0.184824 0.012010
H5    H     H_    0.291193 0.518200 0.627147 0.156756
H6    H     H_    0.131880 0.951586 0.786793 0.164181
H7    H     H_    0.708891 0.018015 0.372975 0.155894
H8    H     H_    0.868153 0.451505 0.213219 0.164574
C49   C     C_R   0.359820 0.417314 0.599158 -0.097552
C50   C     C_R   0.098609 0.069733 0.853873 -0.152704
C51   C     C_R   0.640223 0.917214 0.400906 -0.098016
C52   C     C_R   0.901415 0.569705 0.146143 -0.150665
H9    H     H_    0.358380 0.531026 0.569036 0.177760
H10   H     H_    0.071468 0.954521 0.852499 0.187877
H11   H     H_    0.641669 0.030899 0.431044 0.178088
H12   H     H_    0.928546 0.454485 0.147494 0.188440
C53   C     C_R   0.399618 0.279547 0.604570 -0.173801
C54   C     C_R   0.099507 0.216460 0.893528 -0.205616
C55   C     C_R   0.600393 0.779525 0.395445 -0.173135
C56   C     C_R   0.900515 0.716456 0.106500 -0.206077
C57   C     C_R   0.298259 0.261191 0.768930 0.385468
C58   C     C_R   0.187411 0.222707 0.713067 0.379644
C59   C     C_R   0.701803 0.761265 0.231143 0.385481
C60   C     C_R   0.812640 0.722483 0.287003 0.378403
C61   C     C_R   0.260021 0.240173 0.801893 -0.272036
C62   C     C_R   0.226037 0.236868 0.679915 -0.253353
C63   C     C_R   0.740040 0.740247 0.198179 -0.271970
C64   C     C_R   0.774014 0.736634 0.320155 -0.256001
H13   H     H_    0.273261 0.242451 0.849321 0.198560
H14   H     H_    0.213127 0.233764 0.632490 0.212282
H15   H     H_    0.726801 0.742640 0.150751 0.198396
H16   H     H_    0.786919 0.733408 0.367580 0.209652
C65   C     C_R   0.204723 0.221032 0.775041 -0.085922
C66   C     C_R   0.281288 0.255353 0.707046 -0.089774
C67   C     C_R   0.795333 0.720967 0.225027 -0.085590
C68   C     C_R   0.718768 0.755268 0.293025 -0.088453
S1    S     S_3+6 0.798944 0.362752 0.641901 0.141775
O21   O     O_2   0.842360 0.239044 0.676518 -0.319959
O22   O     O_2   0.794736 0.328310 0.577966 -0.239320
O23   O     O_3   0.817134 0.582707 0.658709 -0.437908
H17   H     H_    0.851103 0.599563 0.646312 0.400887
S2    S     S_3+6 0.744959 0.584272 0.791759 0.086739
O24   O     O_2   0.731926 0.633928 0.727908 -0.323128
O25   O     O_2   0.693258 0.538181 0.808058 -0.279624
O26   O     O_3   0.772664 0.771813 0.829191 -0.447614
H18   H     H_    0.742066 0.856619 0.828019 0.377194
S3    S     S_3+6 0.201077 0.857856 0.358350 0.177954
O27   O     O_2   0.158154 0.730243 0.324848 -0.312092
O28   O     O_2   0.205760 0.825560 0.422463 -0.203854
O29   O     O_3   0.181203 0.076160 0.341169 -0.404104
H19   H     H_    0.170427 0.079293 0.297762 0.350012
S4    S     S_3+6 0.255863 0.082106 0.207737 0.062997
O30   O     O_2   0.270442 0.130138 0.271743 -0.346527
O31   O     O_2   0.306762 0.035886 0.189776 -0.269593
O32   O     O_3   0.227697 0.270724 0.171327 -0.451455
H20   H     H_    0.258198 0.355650 0.172145 0.380389
S5    S     S_3+6 0.681733 0.520197 0.556870 0.099734
O33   O     O_2   0.639061 0.663143 0.555651 -0.342994
O34   O     O_2   0.733325 0.623880 0.561225 -0.214490
O35   O     O_3   0.666949 0.402891 0.493310 -0.482467
H21   H     H_    0.630105 0.354189 0.489357 0.319704
S6    S     S_3+6 0.827687 0.511118 0.922130 0.114897
O36   O     O_2   0.860299 0.681827 0.919706 -0.304925
O37   O     O_2   0.770722 0.563506 0.921770 -0.251329
O38   O     O_3   0.853576 0.402615 0.985523 -0.448820
H22   H     H_    0.841071 0.474956 0.015275 0.384234
S7    S     S_3+6 0.317974 0.020024 0.442732 0.102739
O39   O     O_2   0.360792 0.162627 0.444205 -0.344321
O40   O     O_2   0.266313 0.123984 0.437674 -0.200996
O41   O     O_3   0.332235 0.903452 0.506421 -0.481458
H23   H     H_    0.368908 0.853032 0.510466 0.318778
S8    S     S_3+6 0.172284 0.011234 0.077838 0.116061
O42   O     O_2   0.139649 0.181688 0.080535 -0.307042
O43   O     O_2   0.229151 0.064155 0.077957 -0.247773
O44   O     O_3   0.146255 0.903086 0.014407 -0.448755
H24   H     H_    0.158876 0.975143 0.984678 0.384222
H25   H     H_    0.601669 0.123989 0.684102 0.210757
H26   H     H_    0.887017 0.967284 0.828546 0.178030
H27   H     H_    0.398600 0.624908 0.315710 0.209915
H28   H     H_    0.112864 0.467437 0.171443 0.174441
H29   H     H_    0.684366 0.104192 0.761534 0.171669
H30   H     H_    0.809863 0.977900 0.744005 0.220947
H31   H     H_    0.315940 0.604609 0.238226 0.170393
H32   H     H_    0.190067 0.477387 0.255891 0.211275
S9    S     S_3+6 0.449558 0.957592 0.660098 0.032901
O45   O     O_2   0.435198 0.808670 0.614655 -0.361652
O46   O     O_2   0.503766 0.036644 0.660020 -0.351977
O47   O     O_3   0.452603 0.865497 0.726394 -0.445452
H33   H     H_    0.477239 0.758617 0.729407 0.401674
S10   S     S_3+6 0.145136 0.551338 0.942269 0.037761
O48   O     O_2   0.096190 0.672766 0.925398 -0.328069
O49   O     O_2   0.151706 0.483460 0.003914 -0.286485
O50   O     O_3   0.199871 0.675836 0.939101 -0.489696
H34   H     H_    0.231128 0.599489 0.959198 0.369902
S11   S     S_3+6 0.550388 0.457781 0.339790 0.033159
O51   O     O_2   0.564738 0.308383 0.385063 -0.361370
O52   O     O_2   0.496223 0.536850 0.340020 -0.352145
O53   O     O_3   0.547242 0.366350 0.273381 -0.445180
H35   H     H_    0.522527 0.259645 0.270257 0.401909
S12   S     S_3+6 0.854897 0.051386 0.057819 0.037592
O54   O     O_2   0.903853 0.172792 0.074658 -0.327970
O55   O     O_2   0.848277 0.983533 0.996161 -0.286741
O56   O     O_3   0.800184 0.175907 0.061046 -0.489930
H36   H     H_    0.768912 0.099601 0.040952 0.369656
S13   S     S_3+6 0.366396 0.302411 0.806970 0.098926
O57   O     O_2   0.391957 0.437334 0.773615 -0.273133
O58   O     O_2   0.369207 0.379716 0.866876 -0.274112
O59   O     O_3   0.401195 0.103673 0.814318 -0.427772
H37   H     H_    0.380177 0.017157 0.832497 0.359648
S14   S     S_3+6 0.118194 0.214954 0.675394 0.105639
O60   O     O_2   0.085645 0.332622 0.706411 -0.271332
O61   O     O_2   0.110298 0.284246 0.613681 -0.250881
O62   O     O_3   0.095880 0.996588 0.673303 -0.451996
H38   H     H_    0.120867 0.924907 0.655757 0.356019
S15   S     S_3+6 0.633677 0.802682 0.193109 0.098942
O63   O     O_2   0.608140 0.937561 0.226502 -0.272949
O64   O     O_2   0.630891 0.880140 0.133229 -0.274291
O65   O     O_3   0.598836 0.604014 0.185690 -0.427669
H39   H     H_    0.619838 0.517513 0.167486 0.359615
S16   S     S_3+6 0.881854 0.714542 0.324681 0.109100
O66   O     O_2   0.914434 0.832191 0.293697 -0.266302
O67   O     O_2   0.889760 0.783728 0.386409 -0.253845
O68   O     O_3   0.904117 0.496128 0.326724 -0.448686
H40   H     H_    0.879113 0.424474 0.344252 0.355086

loop_
_geom_bond_atom_site_label_1
_geom_bond_atom_site_label_2
_ccdc_geom_bond_type
C34   C38   A    
C51   H11   S    
C31   C32   S    
C58   C65   A    
O1    C5    A    
O65   H39   S    
O19   V1    S    
O13   V1    S    
C63   H15   S    
O44   H24   S    
C64   H16   S    
C44   C48   A    
C40   C44   A    
O15   V3    S    
C1    C55   S    
S6    O38   S    
S2    O24   D    
O62   H38   S    
C59   S15   S    
S11   O52   D    
C29   C30   S    
S12   O54   D    
O7    C3    A    
C27   H31   S    
O5    C1    A    
O50   H34   S    
C33   C53   A    
C40   H4    S    
C4    C54   S    
C12   S4    S    
C46   C50   A    
C14   C18   A    
S1    O22   D    
O4    C8    A    
S7    O41   S    
C59   C63   A    
O53   H35   S    
C58   C62   A    
C37   C41   A    
O1    V3    S    
C8    C18   S    
C38   C42   A    
O2    V4    S    
C18   C22   A    
O3    V1    S    
S14   O60   D    
S15   O65   S    
C5    C19   S    
O3    C7    A    
C1    O15   A    
S9    O45   D    
C6    C20   S    
C2    O16   A    
O35   H21   S    
S13   O58   D    
C42   C46   A    
C41   C45   A    
C7    C17   S    
O14   V2    S    
C36   C56   A    
C16   C20   A    
O5    V1    S    
S12   O56   S    
S5    O35   S    
C61   C65   A    
O11   C7    A    
C2    C56   S    
O12   C8    A    
C43   C68   S    
C48   C52   A    
O10   V2    S    
S8    O44   S    
C45   C49   A    
O23   H17   S    
S12   O55   D    
S11   O53   S    
C39   H3    S    
S3    O28   D    
C9    C29   A    
S7    O39   D    
C15   S7    S    
C64   C68   A    
O7    V3    S    
C38   H2    S    
C11   C31   A    
C36   S12   S    
S16   O68   S    
C52   H12   S    
C12   C16   A    
C20   C24   A    
S8    O43   D    
S1    O23   S    
S11   O51   D    
C57   S13   S    
O18   V4    S    
C15   C19   A    
C27   C31   A    
C50   H10   S    
C9    C13   A    
S14   O62   S    
O8    V4    S    
C11   C15   A    
O2    C6    A    
C12   C32   A    
C57   C66   A    
S10   O50   S    
C3    C53   S    
S2    O25   D    
O56   H36   S    
C44   C67   S    
C21   C25   A    
O8    C4    A    
S13   O59   S    
C61   H13   S    
O9    C5    A    
C35   C55   A    
C33   C37   A    
C34   C54   A    
S4    O32   S    
C22   H26   S    
C60   C67   A    
C39   C43   A    
C10   C30   A    
S9    O47   S    
C16   S8    S    
O10   C6    A    
C10   S2    S    
O9    V1    S    
O32   H20   S    
C34   S10   S    
C57   C61   A    
C51   C55   A    
O59   H37   S    
S4    O31   D    
S10   O48   D    
O16   V4    S    
S3    O29   S    
C25   H29   S    
C33   S9    S    
C3    O13   A    
C41   C66   S    
C17   C21   A    
S14   O61   D    
O6    V2    S    
C10   C14   A    
O17   V3    S    
C48   H8    S    
C23   H27   S    
S8    O42   D    
C42   C65   S    
C50   C54   A    
O6    C2    A    
C23   C27   A    
S3    O27   D    
O11   V3    S    
S6    O36   D    
O12   V4    S    
C63   C67   A    
O38   H22   S    
C22   C26   A    
C35   C39   A    
C62   C66   A    
C36   C40   A    
O47   H33   S    
C60   S16   S    
C24   H28   S    
S5    O33   D    
C49   C53   A    
S15   O63   D    
C26   C30   A    
S10   O49   D    
C62   H14   S    
O26   H18   S    
S16   O66   D    
C43   C47   A    
S7    O40   D    
C47   C51   A    
C11   S3    S    
C47   H7    S    
C26   H30   S    
C25   C29   A    
C60   C64   A    
C35   S11   S    
O20   V2    S    
S6    O37   D    
C21   H25   S    
C14   S6    S    
C13   C17   A    
C28   H32   S    
O4    V2    S    
S15   O64   D    
S2    O26   S    
C59   C68   A    
O68   H40   S    
C37   H1    S    
C24   C28   A    
C9    S1    S    
S9    O46   D    
S13   O57   D    
C46   H6    S    
C4    O14   A    
C45   H5    S    
O41   H23   S    
C52   C56   A    
O29   H19   S    
S1    O21   D    
C58   S14   S    
C19   C23   A    
C13   S5    S    
C49   H9    S    
C28   C32   A    
S16   O67   D    
S4    O30   D    
S5    O34   D    
