data_mof_unit_7407.cif
_audit_creation_date              2012-10-26T17:13:02-0400
_audit_creation_method            fapswitch 2.2
_symmetry_space_group_name_H-M    P1
_symmetry_Int_Tables_number       1
_space_group_crystal_system       triclinic
_cell_length_a                    16.849436
_cell_length_b                    16.810717
_cell_length_c                    16.864218
_cell_angle_alpha                 68.101514
_cell_angle_beta                  68.064642
_cell_angle_gamma                 68.051181
_cell_volume                      3955.8021455

loop_
_atom_site_label
_atom_site_type_symbol
_atom_type_description
_atom_site_fract_x
_atom_site_fract_y
_atom_site_fract_z
_atom_type_partial_charge
C1    C     C_R   0.321717 0.953563 0.452928 -0.047842
C2    C     C_R   0.322298 0.450049 0.958324 -0.047431
C3    C     C_R   0.523998 0.406375 0.028967 0.023100
C4    C     C_R   0.013566 0.457417 0.582803 0.023561
C5    C     C_R   0.039073 0.523554 0.399254 0.023628
C6    C     C_3   0.227618 0.078290 0.211295 0.029930
C7    C     C_3   0.196716 0.088854 0.132472 -0.338868
C8    C     C_3   0.709018 0.158549 0.703966 0.014289
C9    C     C_3   0.755061 0.187054 0.746916 -0.351806
C10   C     C_3   0.003736 0.217500 0.208239 0.051952
C11   C     C_3   0.962367 0.210806 0.144995 -0.341796
C12   C     C_3   0.149615 0.726369 0.715906 0.019677
C13   C     C_R   0.054077 0.674498 0.544996 -0.048383
C14   C     C_3   0.157956 0.788874 0.756461 -0.358850
C15   C     C_3   0.287879 0.285603 0.846405 0.021175
C16   C     C_3   0.243245 0.235932 0.824266 -0.364422
C17   C     C_3   0.712887 0.712181 0.154253 0.015005
C18   C     C_3   0.768913 0.749445 0.176499 -0.354064
C19   C     C_R   0.970772 0.319425 0.444200 -0.044104
C20   C     C_R   0.460906 0.958125 0.462755 0.003122
C21   C     C_R   0.553954 0.984023 0.556293 0.003724
C22   C     C_R   0.010776 0.445400 0.444551 0.003385
C23   C     C_R   0.034519 0.539398 0.539093 0.004057
C24   C     C_R   0.449885 0.452024 0.994152 0.003128
C25   C     C_R   0.550135 0.547715 0.006133 0.004412
C26   C     C_R   0.029309 0.827958 0.564100 0.558088
C27   C     C_R   0.692873 0.987021 0.568759 -0.045322
C28   C     C_R   0.973680 0.171105 0.434623 0.562604
C29   C     C_R   0.828383 0.564395 0.028484 0.576197
C30   C     C_R   0.171620 0.435569 0.971514 0.544600
C31   C     C_R   0.565088 0.026289 0.828496 0.561509
C32   C     C_R   0.435325 0.972633 0.171463 0.554693
C33   C     C_R   0.430888 0.169061 0.984113 0.553300
C34   C     C_R   0.569070 0.830872 0.016017 0.566732
C35   C     C_R   0.985549 0.430443 0.168075 0.567527
C36   C     C_R   0.026879 0.565000 0.828409 0.568743
C37   C     C_R   0.170971 0.974878 0.434430 0.556183
C38   C     C_R   0.016145 0.428723 0.304482 -0.050146
C39   C     C_R   0.830914 0.016137 0.568750 0.571754
C40   C     C_R   0.412005 0.952998 0.413086 0.007870
C41   C     C_R   0.599901 0.999665 0.601997 0.010129
C42   C     C_R   0.998825 0.398006 0.397620 0.009771
C43   C     C_R   0.042759 0.587641 0.587818 0.011347
C44   C     C_R   0.400768 0.404048 0.986627 0.010305
C45   C     C_R   0.599221 0.595743 0.013578 0.011721
C46   C     C_R   0.268653 0.962901 0.399140 -0.018357
C47   C     C_R   0.736538 0.013839 0.608869 -0.014096
C48   C     C_R   0.991985 0.387198 0.259938 -0.024963
C49   C     C_R   0.040527 0.547751 0.678665 -0.046355
C50   C     C_R   0.042531 0.598519 0.729495 -0.023136
C51   C     C_R   0.389986 0.263953 0.984592 -0.023990
C52   C     C_R   0.609935 0.735915 0.015570 -0.013541
C53   C     C_R   0.600928 0.034091 0.730912 -0.029389
C54   C     C_R   0.399946 0.960111 0.269691 -0.023752
C55   C     C_R   0.730337 0.599992 0.040238 -0.028907
C56   C     C_R   0.269655 0.399882 0.959693 -0.030948
C57   C     C_R   0.047548 0.728002 0.597450 -0.028109
C58   C     C_R   0.968003 0.267356 0.395676 -0.010194
C59   C     C_R   0.459295 0.040083 0.710524 -0.121027
C60   C     C_R   0.429703 0.310021 0.008569 -0.050907
C61   C     C_R   0.548431 0.925216 0.296458 -0.123732
C62   C     C_R   0.075077 0.702728 0.450755 -0.119048
C63   C     C_R   0.948179 0.294469 0.538032 -0.113922
C64   C     C_R   0.699430 0.455775 0.072639 -0.113782
C65   C     C_R   0.300361 0.544079 0.928009 -0.122453
C66   C     C_R   0.288007 0.947046 0.545351 -0.117162
C67   C     C_R   0.738207 0.948192 0.496310 -0.110591
C68   C     C_R   0.497740 0.265940 0.052737 -0.118086
C69   C     C_R   0.502222 0.733855 0.947526 -0.109831
C70   C     C_R   0.055478 0.500977 0.259795 -0.116411
C71   C     C_R   0.570274 0.689804 0.991601 -0.045978
C72   C     C_R   0.037091 0.457545 0.714398 -0.115780
C73   C     C_R   0.307321 0.971678 0.307222 0.212178
C74   C     C_R   0.688994 0.039337 0.688567 0.217756
C75   C     C_R   0.971827 0.303908 0.304807 0.207822
C76   C     C_R   0.051058 0.686271 0.686599 0.217326
C77   C     C_R   0.310130 0.310147 0.959288 0.206559
C78   C     C_R   0.689766 0.689646 0.040822 0.219752
C79   C     C_R   0.692177 0.940308 0.446901 0.013501
C80   C     C_R   0.330089 0.968668 0.588179 0.013585
C81   C     C_R   0.012502 0.417680 0.671938 0.012471
C82   C     C_R   0.552798 0.025561 0.681829 -0.048508
C83   C     C_R   0.061902 0.551205 0.306276 0.013077
C84   C     C_R   0.453356 0.686784 0.940191 0.016139
C85   C     C_R   0.546518 0.312984 0.060349 0.014425
C86   C     C_R   0.597189 0.927943 0.346870 0.013423
C87   C     C_R   0.416053 0.015649 0.670828 0.013769
C88   C     C_R   0.351523 0.591657 0.931248 0.015941
C89   C     C_R   0.648138 0.408121 0.069741 0.017486
C90   C     C_R   0.968202 0.335704 0.583289 0.016554
C91   C     C_R   0.072320 0.652198 0.401983 0.013879
C92   C     C_R   0.737499 0.914338 0.367862 -0.127449
C93   C     C_R   0.453971 0.946198 0.324882 -0.048528
C94   C     C_R   0.285375 0.986818 0.670975 -0.131761
C95   C     C_R   0.988212 0.337687 0.717273 -0.128935
C96   C     C_R   0.091109 0.628677 0.261240 -0.129920
C97   C     C_R   0.380944 0.732037 0.903472 -0.127012
C98   C     C_R   0.618484 0.267788 0.097832 -0.129355
C99   C     C_R   0.690222 0.910182 0.317300 -0.134398
C100  C     C_R   0.326875 0.014205 0.710102 -0.135260
C101  C     C_R   0.329905 0.684900 0.900035 -0.133313
C102  C     C_R   0.669270 0.314908 0.101887 -0.129432
C103  C     C_R   0.962299 0.299083 0.674127 -0.128449
C104  C     C_R   0.677670 0.549771 0.041863 -0.045688
C105  C     C_R   0.094746 0.679594 0.308725 -0.130879
C106  C     C_R   0.552330 0.949419 0.428142 0.024918
C107  C     C_R   0.462731 0.990988 0.591422 0.024536
C108  C     C_R   0.997164 0.413079 0.536793 0.023463
C109  C     C_R   0.047249 0.572524 0.446948 0.024254
C110  C     C_R   0.425549 0.545619 0.966003 0.023531
C111  C     C_R   0.574389 0.454111 0.034484 0.024014
C112  C     C_R   0.599461 0.958722 0.476698 0.023556
C113  C     C_R   0.417742 0.973350 0.547077 0.023609
C114  C     C_R   0.475984 0.593358 0.971426 0.023412
Cu1   Cu    Cu3+1 0.995180 0.995180 0.424630 0.903224
Cu2   Cu    Cu3+1 0.004820 0.004820 0.575370 0.934515
Cu3   Cu    Cu3+1 0.995180 0.424630 0.995180 0.879557
Cu4   Cu    Cu3+1 0.004820 0.575370 0.004820 0.942384
Cu5   Cu    Cu3+1 0.424630 0.995180 0.995180 0.885568
Cu6   Cu    Cu3+1 0.575370 0.004820 0.004820 0.943450
H1    H     H_    0.290286 0.031447 0.772303 0.093839
H2    H     H_    0.362591 0.804081 0.879106 0.109072
H3    H     H_    0.109234 0.650999 0.189332 0.107152
H4    H     H_    0.986557 0.306662 0.786703 0.099634
H5    H     H_    0.417590 0.072809 0.761963 0.140935
H6    H     H_    0.586037 0.903711 0.237022 0.142748
H7    H     H_    0.098605 0.761264 0.413531 0.149244
H8    H     H_    0.913924 0.243701 0.577739 0.137325
H9    H     H_    0.753400 0.418963 0.103324 0.140655
H10   H     H_    0.246396 0.581040 0.897347 0.131079
H11   H     H_    0.230083 0.924829 0.587111 0.144607
H12   H     H_    0.726492 0.893856 0.254843 0.095466
H13   H     H_    0.809273 0.920998 0.477733 0.155308
H14   H     H_    0.512541 0.195147 0.083930 0.147109
H15   H     H_    0.487361 0.804652 0.916329 0.150715
H16   H     H_    0.084197 0.518211 0.188872 0.151192
H17   H     H_    0.056955 0.413296 0.772749 0.148246
H18   H     H_    0.282269 0.111099 0.185620 0.118888
H19   H     H_    0.172462 0.113506 0.258339 0.114675
H20   H     H_    0.138496 0.062048 0.155975 0.110652
H21   H     H_    0.180175 0.159828 0.094422 0.127357
H22   H     H_    0.248814 0.051710 0.085752 0.201846
H23   H     H_    0.115450 0.740159 0.272474 0.110996
H24   H     H_    0.635955 0.187934 0.727122 0.114212
H25   H     H_    0.732124 0.185424 0.630549 0.119525
H26   H     H_    0.828063 0.157523 0.726260 0.151275
H27   H     H_    0.740774 0.260794 0.726072 0.090591
H28   H     H_    0.730667 0.164292 0.820384 0.164290
H29   H     H_    0.031592 0.148353 0.242237 0.153149
H30   H     H_    0.062039 0.244845 0.171218 0.125631
H31   H     H_    0.923843 0.276912 0.112513 0.183115
H32   H     H_    0.015196 0.180902 0.092714 0.065868
H33   H     H_    0.916392 0.167817 0.182580 0.126211
H34   H     H_    0.941448 0.238637 0.710730 0.097019
H35   H     H_    0.181988 0.745651 0.643120 0.111220
H36   H     H_    0.185490 0.656965 0.745607 0.111183
H37   H     H_    0.131645 0.768257 0.829849 0.146550
H38   H     H_    0.228889 0.787112 0.738846 0.077226
H39   H     H_    0.119824 0.858192 0.730373 0.163220
H40   H     H_    0.360943 0.263940 0.816133 0.119250
H41   H     H_    0.262284 0.358279 0.816532 0.115036
H42   H     H_    0.169993 0.257688 0.851864 0.147182
H43   H     H_    0.258995 0.250083 0.751094 0.091566
H44   H     H_    0.267493 0.163052 0.853039 0.147157
H45   H     H_    0.725310 0.278374 0.129867 0.106515
H46   H     H_    0.729429 0.638740 0.184953 0.116055
H47   H     H_    0.641380 0.742438 0.183751 0.122916
H48   H     H_    0.755899 0.822312 0.144832 0.148347
H49   H     H_    0.752055 0.736686 0.249599 0.091884
H50   H     H_    0.840624 0.716908 0.151552 0.168901
H51   H     H_    0.273089 0.721502 0.873629 0.097748
H52   H     H_    0.217191 0.983815 0.703303 0.097796
H53   H     H_    0.809289 0.899976 0.343692 0.105780
H54   H     H_    0.636502 0.195791 0.122606 0.108176
O1    O     O_R   0.124540 0.978640 0.385460 -0.467014
O2    O     O_R   0.124540 0.385460 0.978640 -0.471946
O3    O     O_R   0.021360 0.875460 0.614540 -0.452356
O4    O     O_R   0.978640 0.124540 0.385460 -0.490343
O5    O     O_R   0.013780 0.867370 0.487190 -0.541192
O6    O     O_R   0.986220 0.132630 0.512810 -0.532860
O7    O     O_R   0.867370 0.487190 0.013780 -0.528717
O8    O     O_R   0.132630 0.512810 0.986220 -0.543167
O9    O     O_R   0.487190 0.013780 0.867370 -0.548216
O10   O     O_R   0.512810 0.986220 0.132630 -0.545959
O11   O     O_R   0.512810 0.132630 0.986220 -0.536095
O12   O     O_R   0.875460 0.021360 0.614540 -0.447340
O13   O     O_R   0.487190 0.867370 0.013780 -0.533335
O14   O     O_R   0.986220 0.512810 0.132630 -0.537754
O15   O     O_R   0.013780 0.487190 0.867370 -0.541791
O16   O     O_R   0.132630 0.986220 0.512810 -0.544699
O17   O     O_R   0.867370 0.013780 0.487190 -0.533450
O18   O     O_3   0.254389 0.986184 0.254157 -0.516143
O19   O     O_3   0.730804 0.064547 0.728408 -0.507927
O20   O     O_3   0.936868 0.267327 0.267203 -0.526100
O21   O     O_3   0.058610 0.733636 0.733964 -0.503903
O22   O     O_3   0.268305 0.265679 0.939650 -0.529692
O23   O     O_R   0.978640 0.385460 0.124540 -0.494799
O24   O     O_3   0.731479 0.733749 0.060958 -0.507543
O25   O     O_R   0.021360 0.614540 0.875460 -0.443895
O26   O     O_R   0.385460 0.124540 0.978640 -0.476948
O27   O     O_R   0.614540 0.875460 0.021360 -0.448657
O28   O     O_R   0.614540 0.021360 0.875460 -0.441344
O29   O     O_R   0.385460 0.978640 0.124540 -0.468902
O30   O     O_R   0.875460 0.614540 0.021360 -0.441738

loop_
_geom_bond_atom_site_label_1
_geom_bond_atom_site_label_2
_ccdc_geom_bond_type
C95   H4    S    
C8    C9    S    
C96   C105  A    
C38   C70   A    
C68   C85   A    
C89   C102  A    
C3    C85   A    
Cu3   Cu4   S    
Cu6   O28   S    
C91   C105  A    
C53   C74   A    
C59   C82   A    
C7    H21   S    
C40   C93   A    
C2    C65   A    
Cu6   O11   S    
C65   H10   S    
C25   C111  A    
Cu3   O23   S    
C22   C108  A    
C106  C112  A    
C26   O5    A    
C16   H44   S    
C4    C108  A    
C29   O7    A    
C99   H12   S    
C14   H38   S    
C84   C97   A    
C57   C76   A    
C67   H13   S    
C77   O22   S    
C38   C42   A    
C17   H46   S    
C10   O20   S    
C10   H29   S    
C20   C113  A    
C98   H54   S    
C61   C93   A    
C1    C46   A    
C18   H49   S    
C13   C57   A    
Cu4   O25   S    
C34   O27   A    
Cu1   Cu2   S    
C9    H26   S    
C23   C43   A    
C64   C104  A    
C100  H1    S    
C87   C100  A    
C30   O2    A    
C6    H19   S    
C69   C71   A    
C107  C113  A    
C54   C93   A    
Cu1   O1    S    
C85   C98   A    
C1    C40   A    
C94   H52   S    
C39   O12   A    
C5    C22   A    
C8    H25   S    
C19   C63   A    
C35   O14   A    
C31   O28   A    
C49   C72   A    
C22   C42   A    
C36   O25   A    
Cu6   O10   S    
C61   H6    S    
C110  C114  A    
C38   C48   A    
C63   H8    S    
C19   C42   A    
Cu1   O17   S    
C18   H50   S    
C37   O16   A    
C74   O19   S    
C69   H15   S    
C29   O30   A    
Cu2   O12   S    
Cu2   O3    S    
C70   H16   S    
Cu6   O27   S    
C30   O8    A    
C48   C75   A    
C3    C24   A    
C86   C106  A    
C64   C89   A    
C12   H36   S    
C52   C78   A    
C35   C48   S    
C64   H9    S    
C32   C54   S    
C95   C103  A    
C58   C75   A    
C88   C101  A    
C20   C106  A    
Cu4   O8    S    
C16   H43   S    
C23   C109  A    
C13   C62   A    
C14   H37   S    
Cu5   O26   S    
Cu1   O4    S    
C17   O24   S    
C24   C110  A    
C47   C74   A    
C17   H47   S    
C2    C44   A    
C55   C78   A    
Cu4   O14   S    
C43   C49   A    
C29   C55   S    
C33   O26   A    
C16   H42   S    
C98   C102  A    
C30   C56   S    
C55   C104  A    
C9    H27   S    
C56   C77   A    
C36   O15   A    
C53   C82   A    
C1    C66   A    
C19   C58   A    
C6    H18   S    
C51   C77   A    
C97   H2    S    
C86   C99   A    
C45   C104  A    
C50   C76   A    
C37   O1    A    
C54   C73   A    
C39   O17   A    
C27   C41   A    
C103  H34   S    
C20   C40   A    
C94   C100  A    
C97   C101  A    
C62   C91   A    
C17   C18   S    
C67   C79   A    
C8    O19   S    
C8    H24   S    
Cu5   O9    S    
C31   C53   S    
C70   C83   A    
C28   O6    A    
C79   C92   A    
C21   C107  A    
Cu3   O15   S    
C21   C41   A    
C15   O22   S    
C79   C112  A    
Cu3   O2    S    
C11   H31   S    
C72   H17   S    
C12   C14   S    
C102  H45   S    
C10   C11   S    
Cu2   O6    S    
C24   C44   A    
C12   O21   S    
C3    C111  A    
C18   H48   S    
C12   H35   S    
C80   C94   A    
C11   H32   S    
Cu5   O29   S    
C25   C45   A    
C13   C43   A    
C21   C112  A    
C36   C50   S    
C45   C71   A    
C35   O23   A    
C65   C88   A    
C39   C47   S    
C66   H11   S    
C26   O3    A    
C27   C47   A    
C4    C23   A    
Cu2   O16   S    
C84   C114  A    
C96   H3    S    
C31   O9    A    
C41   C82   A    
C15   H41   S    
Cu4   O30   S    
C72   C81   A    
C76   O21   S    
C105  H23   S    
Cu5   Cu6   S    
C5    C83   A    
C6    C7    S    
C28   C58   S    
C92   H53   S    
C33   C51   S    
C66   C80   A    
C89   C111  A    
C9    H28   S    
C34   C52   S    
C14   H39   S    
C91   C109  A    
C32   O29   A    
C68   H14   S    
C88   C110  A    
C15   H40   S    
C69   C84   A    
C2    C56   A    
C59   H5    S    
C10   H30   S    
C62   H7    S    
C5    C109  A    
C44   C60   A    
C81   C95   A    
C83   C96   A    
C4    C81   A    
C63   C90   A    
C101  H51   S    
Cu3   O7    S    
C46   C73   A    
C34   O13   A    
C26   C57   S    
C59   C87   A    
C90   C103  A    
C73   O18   S    
C27   C67   A    
C61   C86   A    
C11   H33   S    
C90   C108  A    
C75   O20   S    
C7    H20   S    
C87   C107  A    
C80   C113  A    
C60   C68   A    
C49   C50   A    
C6    O18   S    
C52   C71   A    
C33   O11   A    
C51   C60   A    
C78   O24   S    
Cu5   O13   S    
C32   O10   A    
C37   C46   S    
C25   C114  A    
C28   O4    A    
C7    H22   S    
Cu1   O5    S    
C15   C16   S    
C92   C99   A    
