data_mof_unit_10618.cif
_audit_creation_date              2012-12-10T19:28:37-0500
_audit_creation_method            fapswitch 2.2
_symmetry_space_group_name_H-M    P1
_symmetry_Int_Tables_number       1
_space_group_crystal_system       triclinic
_cell_length_a                    27.621687
_cell_length_b                    10.447094
_cell_length_c                    9.846688
_cell_angle_alpha                 89.740743
_cell_angle_beta                  87.701034
_cell_angle_gamma                 89.485408
_cell_volume                      2838.99674347

loop_
_atom_site_label
_atom_site_type_symbol
_atom_type_description
_atom_site_fract_x
_atom_site_fract_y
_atom_site_fract_z
_atom_type_partial_charge
C1    C     C_R   0.499978 0.257890 0.500028 0.865223
C2    C     C_R   0.873582 0.418081 0.481910 -0.116356
C3    C     C_R   0.353489 0.514556 0.501917 -0.057557
C4    C     C_R   0.646256 0.509086 0.492104 -0.055035
C5    C     C_R   0.975644 0.413042 0.454181 -0.099961
C6    C     C_R   0.025662 0.649118 0.443447 -0.098561
C7    C     C_R   0.974987 0.647866 0.427094 0.090409
C8    C     C_R   0.026531 0.413284 0.432451 0.088097
C9    C     C_R   0.949962 0.530527 0.442986 0.006172
C10   C     C_R   0.051426 0.531033 0.438080 0.005820
C11   C     C_R   0.949456 0.301121 0.490773 0.592028
C12   C     C_R   0.500219 0.742116 0.499927 0.861454
C13   C     C_R   0.051521 0.762614 0.469198 0.590997
C14   C     C_R   0.899214 0.304623 0.504871 -0.201733
C15   C     C_R   0.101558 0.759132 0.480147 -0.202115
C16   C     C_R   0.406200 0.502694 0.501918 0.865205
C17   C     C_R   0.593699 0.500910 0.497716 0.863626
C18   C     C_R   0.053462 0.300514 0.403811 -0.114061
C19   C     C_R   0.948402 0.758899 0.393814 -0.114882
C20   C     C_3   0.541513 0.041431 0.552166 -0.184528
C21   C     C_3   0.458982 0.958636 0.447539 -0.176227
C22   C     C_3   0.538664 0.957581 0.424042 -0.179985
C23   C     C_R   0.102468 0.530128 0.440703 -0.063021
C24   C     C_3   0.461830 0.042398 0.575731 -0.173905
C25   C     C_3   0.500421 0.877350 0.500217 0.028635
C26   C     C_3   0.500053 0.122666 0.499575 0.029621
C27   C     C_3   0.503312 0.958437 0.628493 -0.139342
C28   C     C_3   0.497207 0.041616 0.371247 -0.138251
C29   C     C_3   0.477199 0.401886 0.052369 -0.174665
C30   C     C_3   0.523041 0.598157 0.947557 -0.171565
C31   C     C_3   0.520669 0.398254 0.950242 0.149994
C32   C     C_3   0.479403 0.601804 0.049701 0.155617
C33   C     C_3   0.456522 0.504214 0.957974 0.157376
C34   C     C_R   0.898828 0.530997 0.448900 -0.062476
C35   C     C_3   0.543556 0.495836 0.042043 0.148339
C36   C     C_R   0.179029 0.415799 0.426772 0.501506
C37   C     C_R   0.822261 0.642076 0.426981 0.503638
C38   C     C_R   0.177599 0.639075 0.477834 0.535914
C39   C     C_R   0.823022 0.422123 0.494008 0.536629
C40   C     C_R   0.283217 0.581859 0.381199 -0.129418
C41   C     C_R   0.722927 0.460466 0.378429 -0.129340
C42   C     C_R   0.332881 0.578967 0.393138 -0.220337
C43   C     C_R   0.673041 0.448419 0.387555 -0.234241
C44   C     C_R   0.323613 0.458420 0.603370 -0.261790
C45   C     C_R   0.128567 0.414818 0.421116 -0.002031
C46   C     C_R   0.669730 0.580544 0.589439 -0.252341
C47   C     C_R   0.273018 0.460529 0.592672 0.159373
C48   C     C_R   0.720150 0.593943 0.581617 0.148706
C49   C     C_R   0.253140 0.521946 0.478792 0.285597
C50   C     C_R   0.746796 0.532051 0.474670 0.287811
C51   C     C_3   0.540292 0.271763 0.890675 -0.384147
C52   C     C_3   0.564752 0.188610 0.997575 -0.394287
C53   C     C_3   0.571652 0.050800 0.949502 -0.901517
C54   C     C_3   0.459200 0.727775 0.108661 -0.390771
C55   C     C_3   0.436185 0.811482 0.999739 -0.397091
C56   C     C_R   0.872941 0.644513 0.422353 0.001069
C57   C     C_3   0.424663 0.945826 0.052431 -0.891256
C58   C     C_3   0.404576 0.496544 0.911815 -0.402076
C59   C     C_3   0.368458 0.496326 0.034381 -0.377559
C60   C     C_3   0.316816 0.478987 0.990842 -0.888976
C61   C     C_3   0.595155 0.495903 0.091391 -0.387647
C62   C     C_3   0.633016 0.499093 0.973001 -0.390845
C63   C     C_3   0.683726 0.471895 0.022465 -0.872865
C64   C     C_3   0.241142 0.400626 0.704206 -0.424335
C65   C     C_3   0.250103 0.255832 0.716214 -0.333072
C66   C     C_3   0.216494 0.196572 0.825535 -0.818014
C67   C     C_R   0.103772 0.301539 0.397456 -0.163261
C68   C     C_3   0.744146 0.670387 0.690206 -0.419149
C69   C     C_3   0.730688 0.813052 0.681799 -0.331463
C70   C     C_3   0.757037 0.890539 0.786581 -0.813188
C71   C     C_R   0.898148 0.756912 0.390665 -0.162694
C72   C     C_R   0.127374 0.644083 0.464770 -0.116002
F1    F     F_    0.971740 0.190390 0.526317 -0.646263
F2    F     F_    0.028878 0.875592 0.497930 -0.650152
H1    H     H_    0.339675 0.410344 0.688171 0.149407
H2    H     H_    0.879121 0.844430 0.365417 0.198278
H3    H     H_    0.655518 0.389163 0.315023 0.150864
H4    H     H_    0.355372 0.627148 0.316842 0.143172
H5    H     H_    0.743438 0.411828 0.297708 0.151288
H6    H     H_    0.267887 0.630315 0.295222 0.148719
H7    H     H_    0.880468 0.217578 0.534490 0.217866
H8    H     H_    0.119951 0.847312 0.502421 0.217303
H9    H     H_    0.036324 0.211173 0.380977 0.223829
H10   H     H_    0.965835 0.847212 0.364019 0.219720
H11   H     H_    0.569747 0.917967 0.362220 0.135351
H12   H     H_    0.648688 0.626920 0.670709 0.146009
H13   H     H_    0.430748 0.081958 0.637605 0.130886
H14   H     H_    0.535960 0.005618 0.936564 0.257141
H15   H     H_    0.593081 0.047935 0.851661 0.265290
H16   H     H_    0.591268 0.994966 0.026582 0.253512
H17   H     H_    0.600914 0.227737 0.017975 0.233574
H18   H     H_    0.542565 0.188322 0.094117 0.226120
H19   H     H_    0.509158 0.218864 0.851047 0.222527
H20   H     H_    0.566479 0.291415 0.804833 0.215018
H21   H     H_    0.400567 0.941279 0.145357 0.267042
H22   H     H_    0.458566 0.995760 0.075711 0.255531
H23   H     H_    0.574919 0.080483 0.594708 0.132459
H24   H     H_    0.406102 0.001779 0.973363 0.252940
H25   H     H_    0.461177 0.819051 0.909089 0.225567
H26   H     H_    0.402003 0.768115 0.967959 0.230694
H27   H     H_    0.432084 0.707327 0.191933 0.207103
H28   H     H_    0.489761 0.780723 0.151305 0.224286
H29   H     H_    0.306928 0.557402 0.920351 0.264763
H30   H     H_    0.313369 0.384788 0.940604 0.264117
H31   H     H_    0.291552 0.481821 0.081378 0.264796
H32   H     H_    0.377252 0.417840 0.106069 0.240652
H33   H     H_    0.370329 0.588464 0.088693 0.223319
H34   H     H_    0.425598 0.919610 0.404814 0.133928
H35   H     H_    0.396874 0.579072 0.844554 0.217497
H36   H     H_    0.401026 0.406177 0.854245 0.208641
H37   H     H_    0.694673 0.548461 0.092548 0.273494
H38   H     H_    0.684832 0.377826 0.075244 0.255555
H39   H     H_    0.710013 0.467617 0.934552 0.255471
H40   H     H_    0.624853 0.426532 0.895603 0.239253
H41   H     H_    0.632450 0.594806 0.923355 0.219179
H42   H     H_    0.599969 0.581633 0.155547 0.221597
H43   H     H_    0.599922 0.408324 0.153233 0.207055
H44   H     H_    0.222583 0.240604 0.925848 0.263176
H45   H     H_    0.506208 0.919661 0.732677 0.134400
H46   H     H_    0.178039 0.210969 0.799687 0.272909
H47   H     H_    0.223961 0.092193 0.832621 0.258830
H48   H     H_    0.243836 0.208953 0.617543 0.277418
H49   H     H_    0.288155 0.236285 0.742969 0.205276
H50   H     H_    0.248215 0.447638 0.801718 0.202611
H51   H     H_    0.202153 0.417959 0.687717 0.210978
H52   H     H_    0.747373 0.855759 0.890872 0.258701
H53   H     H_    0.796872 0.882437 0.767830 0.274419
H54   H     H_    0.746302 0.992927 0.778921 0.258991
H55   H     H_    0.740333 0.851004 0.578841 0.276449
H56   H     H_    0.494662 0.080768 0.267058 0.135391
H57   H     H_    0.691025 0.826274 0.700751 0.205062
H58   H     H_    0.732189 0.632932 0.791459 0.198738
H59   H     H_    0.784142 0.659321 0.683067 0.213258
H60   H     H_    0.458423 0.318591 0.100293 0.132191
H61   H     H_    0.542352 0.680557 0.899524 0.128194
H62   H     H_    0.123101 0.212530 0.377174 0.199453
N1    N     N_R   0.202083 0.525569 0.460977 -0.359011
N2    N     N_R   0.798541 0.533050 0.466718 -0.358478
N3    N     N_3   0.499960 0.500030 0.863290 -0.118534
N4    N     N_3   0.500040 0.499970 0.136710 -0.119633
O1    O     O_R   0.500000 0.313960 0.616610 -0.637469
O2    O     O_2   0.796857 0.747339 0.392438 -0.578869
O3    O     O_2   0.798364 0.316128 0.532594 -0.562806
O4    O     O_2   0.201796 0.746184 0.508445 -0.561357
O5    O     O_R   0.500000 0.686040 0.383390 -0.637629
O6    O     O_R   0.500020 0.313950 0.383350 -0.625866
O7    O     O_R   0.499980 0.686050 0.616650 -0.626186
O8    O     O_R   0.428750 0.500030 0.616610 -0.631680
O9    O     O_R   0.571250 0.499970 0.383390 -0.632835
O10   O     O_R   0.428770 0.500020 0.383360 -0.621734
O11   O     O_R   0.571230 0.499980 0.616640 -0.624961
O12   O     O_2   0.204893 0.307930 0.400474 -0.575208
Zn1   Zn    Zn3+2 0.499990 0.500010 0.655740 0.913101
Zn2   Zn    Zn3+2 0.500010 0.499990 0.344260 0.913397

loop_
_geom_bond_atom_site_label_1
_geom_bond_atom_site_label_2
_ccdc_geom_bond_type
C70   H53   S    
C3    C42   A    
C34   C56   A    
C33   C58   S    
C23   C45   A    
C49   N1    S    
C58   H35   S    
C54   H27   S    
C19   C71   A    
C24   C27   S    
O1    Zn1   S    
C47   C49   A    
C4    C46   A    
C15   C72   A    
C30   C35   S    
C12   O7    A    
C68   H59   S    
C24   C26   S    
C32   N4    S    
C71   H2    S    
C11   C14   A    
N3    Zn1   S    
C40   C49   A    
C29   C33   S    
C22   H11   S    
C63   H38   S    
C68   H58   S    
C37   C56   A    
C2    C39   A    
C20   H23   S    
C68   C69   S    
C57   H22   S    
C55   H26   S    
C45   C67   A    
C40   H6    S    
C60   H29   S    
C36   N1    A    
C61   C62   S    
C64   H51   S    
C44   C47   A    
C70   H52   S    
C40   C42   A    
C29   H60   S    
C39   N2    A    
O10   Zn2   S    
C59   C60   S    
C22   C28   S    
O11   Zn1   S    
C41   C43   A    
C1    O6    A    
C17   O11   A    
C2    C14   A    
C32   C54   S    
C15   H8    S    
C38   C72   A    
C46   C48   A    
C3    C44   A    
C59   H32   S    
C37   O2    S    
C61   H43   S    
C51   C52   S    
C11   F1    S    
C31   C51   S    
C47   C64   S    
C62   H40   S    
C36   O12   S    
C58   C59   S    
C64   H50   S    
C57   H21   S    
C22   C25   S    
C8    C18   A    
C12   O5    A    
C44   H1    S    
O9    Zn2   S    
C5    C9    A    
C62   C63   S    
C35   N4    S    
O6    Zn2   S    
C69   H57   S    
C56   C71   A    
C61   H42   S    
C18   H9    S    
C66   H47   S    
C36   C45   A    
C35   C61   S    
C65   H48   S    
C48   C68   S    
C51   H19   S    
O5    Zn2   S    
C8    C10   A    
C4    C43   A    
C21   C28   S    
C39   O3    S    
C65   C66   S    
C7    C19   A    
C37   N2    A    
C55   C57   S    
C53   H15   S    
C9    C34   A    
C31   C35   S    
C52   H18   S    
C43   H3    S    
O8    Zn1   S    
C4    C17   S    
C31   N3    S    
C19   H10   S    
C41   C50   A    
C52   C53   S    
C42   H4    S    
C70   H54   S    
C7    C9    A    
C29   N4    S    
C21   C25   S    
C54   C55   S    
C30   N3    S    
C58   H36   S    
C38   O4    S    
C23   C72   A    
C54   H28   S    
C17   O9    A    
C20   C22   S    
C41   H5    S    
C5    C8    A    
C16   O10   A    
C50   N2    S    
C5    C11   A    
C6    C7    A    
C20   C27   S    
C27   H45   S    
C10   C23   A    
C25   C27   S    
C26   C28   S    
C12   C25   S    
C16   O8    A    
C64   C65   S    
C13   C15   A    
C67   H62   S    
C18   C67   A    
C62   H41   S    
C29   C31   S    
C32   C33   S    
C6    C13   A    
C30   C32   S    
C2    C34   A    
C1    C26   S    
C20   C26   S    
C33   N3    S    
C57   H24   S    
C48   C50   A    
C38   N1    A    
C53   H14   S    
C28   H56   S    
C65   H49   S    
C63   H37   S    
C69   C70   S    
O7    Zn1   S    
C24   H13   S    
C59   H33   S    
C21   H34   S    
C1    O1    A    
C6    C10   A    
C60   H31   S    
C51   H20   S    
C63   H39   S    
C13   F2    S    
C69   H55   S    
C30   H61   S    
C66   H44   S    
C21   C24   S    
C55   H25   S    
C53   H16   S    
C52   H17   S    
C66   H46   S    
C14   H7    S    
C60   H30   S    
C3    C16   S    
N4    Zn2   S    
C46   H12   S    
