data_mof_unit_58377.cif
_audit_creation_date              2012-12-10T19:09:31-0500
_audit_creation_method            fapswitch 2.2
_symmetry_space_group_name_H-M    P1
_symmetry_Int_Tables_number       1
_space_group_crystal_system       triclinic
_cell_length_a                    15.421774
_cell_length_b                    14.995363
_cell_length_c                    9.811028
_cell_angle_alpha                 90.259807
_cell_angle_beta                  90.16808
_cell_angle_gamma                 89.828012
_cell_volume                      2268.80703423

loop_
_atom_site_label
_atom_site_type_symbol
_atom_type_description
_atom_site_fract_x
_atom_site_fract_y
_atom_site_fract_z
_atom_type_partial_charge
C1    C     C_R   0.121348 0.378952 0.499999 1.062408
C2    C     C_R   0.880134 0.621958 0.499998 0.977996
C3    C     C_R   0.383664 0.875120 0.499471 0.975710
C4    C     C_R   0.380477 0.122252 0.500269 1.036622
C5    C     C_3   0.819894 0.253260 0.636218 0.159255
C6    C     C_3   0.829764 0.241685 0.377031 0.105436
C7    C     C_3   0.795180 0.723042 0.351243 0.176944
C8    C     C_3   0.838697 0.769970 0.595793 0.107439
C9    C     C_3   0.326845 0.745948 0.627371 0.152822
C10   C     C_3   0.324477 0.746408 0.367229 0.112182
C11   C     C_3   0.339805 0.270724 0.408734 0.139361
C12   C     C_R   0.122955 0.619850 0.500397 1.062099
C13   C     C_3   0.294148 0.221932 0.649984 0.120470
C14   C     C_3   0.261212 0.668005 0.619415 0.781997
C15   C     C_3   0.245503 0.683094 0.361481 0.940514
C16   C     C_3   0.272694 0.347565 0.422700 0.755553
C17   C     C_3   0.218973 0.289410 0.651216 0.876157
C18   C     C_3   0.747894 0.181601 0.637134 0.792438
C19   C     C_3   0.757664 0.170464 0.377817 0.914916
C20   C     C_3   0.719723 0.790263 0.348532 0.824128
C21   C     C_3   0.772881 0.847257 0.579251 0.863919
C22   C     C_3   0.728236 0.353167 0.485940 -0.745561
C23   C     C_R   0.621764 0.879462 0.499850 1.051688
C24   C     C_3   0.728596 0.649461 0.555708 -0.711330
C25   C     C_3   0.228659 0.852666 0.499311 -0.721359
C26   C     C_3   0.229205 0.149345 0.442372 -0.744308
C27   C     C_3   0.817524 0.305906 0.499976 -0.269934
C28   C     C_3   0.813161 0.690957 0.499951 -0.303548
C29   C     C_3   0.318386 0.805193 0.498321 -0.277464
C30   C     C_3   0.313351 0.190947 0.501126 -0.256126
C31   C     C_3   0.194005 0.687204 0.500981 -0.301138
C32   C     C_3   0.190735 0.310843 0.499986 -0.291755
C33   C     C_3   0.693308 0.187795 0.500766 -0.312549
C34   C     C_R   0.622731 0.120042 0.500279 1.084155
C35   C     C_3   0.691008 0.811297 0.499518 -0.326057
C36   C     C_3   0.154651 0.783588 0.519028 0.696464
C37   C     C_3   0.157127 0.221897 0.430773 0.695683
C38   C     C_3   0.652983 0.283890 0.486455 0.715854
C39   C     C_3   0.657344 0.723062 0.569120 0.722129
C40   C     C_3   0.031785 0.413467 0.081188 0.710130
C41   C     C_3   0.028834 0.412384 0.918566 0.686540
C42   C     C_3   0.056634 0.570482 0.919647 0.694991
C43   C     C_3   0.053690 0.573085 0.082397 0.685160
C44   C     C_3   0.529833 0.912725 0.080518 0.694843
C45   C     C_3   0.909165 0.512881 0.079955 0.867007
C46   C     C_3   0.531041 0.913089 0.917812 0.705331
C47   C     C_3   0.554334 0.072413 0.919110 0.691297
C48   C     C_3   0.555623 0.071298 0.081980 0.686981
C49   C     C_3   0.909811 0.516646 0.918455 0.867576
C50   C     C_3   0.409560 0.015371 0.080931 0.872759
C51   C     C_3   0.409279 0.013580 0.919321 0.860645
C52   C     C_R   0.883066 0.375631 0.499864 0.979240
F1    F     F_    0.302027 0.586947 0.594196 -0.517247
F2    F     F_    0.111952 0.394861 0.873415 -0.504274
F3    F     F_    0.141015 0.551634 0.881368 -0.495953
F4    F     F_    0.137585 0.562731 0.131164 -0.507899
F5    F     F_    0.613687 0.896961 0.124589 -0.489466
F6    F     F_    0.615793 0.898827 0.875949 -0.479421
F7    F     F_    0.638405 0.059630 0.873357 -0.504064
F8    F     F_    0.639927 0.054779 0.123686 -0.498723
F9    F     F_    0.854484 0.445290 0.122369 -0.583319
F10   F     F_    0.851453 0.455056 0.866588 -0.581171
F11   F     F_    0.879116 0.599285 0.877328 -0.570341
F12   F     F_    0.272728 0.596008 0.336005 -0.506426
F13   F     F_    0.872577 0.590915 0.128412 -0.550526
F14   F     F_    0.352427 0.951860 0.129389 -0.577574
F15   F     F_    0.353627 0.947475 0.873305 -0.580016
F16   F     F_    0.374080 0.092705 0.873486 -0.595822
F17   F     F_    0.376928 0.096745 0.124937 -0.582877
F18   F     F_    0.307440 0.418569 0.495804 -0.517135
F19   F     F_    0.245321 0.367232 0.717156 -0.485731
F20   F     F_    0.782458 0.096214 0.649351 -0.544602
F21   F     F_    0.793251 0.085482 0.389109 -0.491229
F22   F     F_    0.745799 0.868183 0.283981 -0.472690
F23   F     F_    0.810134 0.916888 0.507158 -0.520031
F24   F     F_    0.117133 0.400809 0.121979 -0.496162
H1    H     H_    0.805220 0.302208 0.718900 0.224933
H2    H     H_    0.726907 0.391920 0.389268 0.255098
H3    H     H_    0.708189 0.593575 0.487971 0.190817
H4    H     H_    0.740885 0.618344 0.656881 0.278884
H5    H     H_    0.226055 0.905265 0.579776 0.224892
H6    H     H_    0.219668 0.888554 0.401011 0.257499
H7    H     H_    0.241450 0.117451 0.341514 0.266109
H8    H     H_    0.207777 0.094248 0.510191 0.226294
H9    H     H_    0.913705 0.164852 0.610959 0.444394
H10   H     H_    0.953683 0.243729 0.340462 0.400350
H11   H     H_    0.887368 0.812589 0.331628 0.435809
H12   H     H_    0.823479 0.281718 0.281508 0.205927
H13   H     H_    0.962435 0.760911 0.624034 0.407530
H14   H     H_    0.427078 0.666260 0.596022 0.449416
H15   H     H_    0.449157 0.738890 0.339514 0.390592
H16   H     H_    0.429472 0.328506 0.520943 0.453105
H17   H     H_    0.357339 0.259803 0.812062 0.423460
H18   H     H_    0.266033 0.644774 0.813298 0.410542
H19   H     H_    0.224501 0.699362 0.167515 0.376714
H20   H     H_    0.302974 0.409420 0.255725 0.420552
H21   H     H_    0.168658 0.244699 0.819726 0.373040
H22   H     H_    0.732670 0.188396 0.833311 0.394532
H23   H     H_    0.774572 0.663500 0.291438 0.213870
H24   H     H_    0.756596 0.157717 0.180896 0.397168
H25   H     H_    0.670180 0.745887 0.178328 0.397690
H26   H     H_    0.802210 0.910559 0.746653 0.415253
H27   H     H_    0.158617 0.812619 0.716859 0.355709
H28   H     H_    0.065259 0.858203 0.436308 0.400736
H29   H     H_    0.186108 0.235168 0.235427 0.376063
H30   H     H_    0.063102 0.136698 0.453185 0.397048
H31   H     H_    0.622159 0.328239 0.671607 0.366838
H32   H     H_    0.581073 0.349991 0.357681 0.393468
H33   H     H_    0.587172 0.653543 0.435158 0.373642
H34   H     H_    0.835029 0.745957 0.703508 0.218862
H35   H     H_    0.613921 0.686214 0.746703 0.375129
H36   H     H_    0.015769 0.286701 0.115681 0.376660
H37   H     H_    0.006966 0.286508 0.879371 0.392383
H38   H     H_    0.082744 0.694952 0.879792 0.383261
H39   H     H_    0.064819 0.702149 0.106687 0.386970
H40   H     H_    0.509846 0.786418 0.115821 0.365840
H41   H     H_    0.513530 0.786571 0.879379 0.380151
H42   H     H_    0.568153 0.200985 0.894148 0.378707
H43   H     H_    0.577733 0.197147 0.120782 0.393452
H44   H     H_    0.308765 0.788979 0.715783 0.214114
H45   H     H_    0.322240 0.790428 0.275743 0.207274
H46   H     H_    0.337923 0.246243 0.301401 0.215926
H47   H     H_    0.273910 0.161810 0.708461 0.191305
H48   H     H_    0.720416 0.403786 0.568389 0.214866
N1    N     N_3   0.998760 0.500000 0.138610 -0.300937
N2    N     N_3   0.998760 0.500000 0.861390 -0.298497
N3    N     N_3   0.498760 0.000000 0.138610 -0.296472
N4    N     N_3   0.498760 0.000000 0.861390 -0.302646
O1    O     O_R   0.092530 0.407440 0.616040 -0.498721
O2    O     O_R   0.907330 0.407420 0.383960 -0.596340
O3    O     O_R   0.907330 0.592580 0.383960 -0.527818
O4    O     O_R   0.907330 0.592580 0.616040 -0.584779
O5    O     O_R   0.407330 0.907420 0.616040 -0.540963
O6    O     O_R   0.407330 0.907420 0.383960 -0.597300
O7    O     O_R   0.407330 0.092580 0.383960 -0.558770
O8    O     O_R   0.407330 0.092580 0.616040 -0.547238
O9    O     O_3   0.902813 0.218630 0.667103 -0.626261
O10   O     O_3   0.911585 0.200291 0.376907 -0.676640
O11   O     O_3   0.870098 0.756153 0.286652 -0.549859
O12   O     O_R   0.092530 0.407440 0.383960 -0.516676
O13   O     O_3   0.923203 0.800189 0.571175 -0.675306
O14   O     O_3   0.412560 0.717947 0.654386 -0.649477
O15   O     O_3   0.401955 0.696884 0.362293 -0.656818
O16   O     O_3   0.425563 0.299275 0.430692 -0.650544
O17   O     O_3   0.368624 0.257872 0.712498 -0.614638
O18   O     O_3   0.220708 0.662383 0.746289 -0.704426
O19   O     O_3   0.191946 0.710195 0.253301 -0.715163
O20   O     O_3   0.250886 0.379133 0.292366 -0.636743
O21   O     O_3   0.149060 0.252849 0.724026 -0.692124
O22   O     O_3   0.695728 0.197519 0.751309 -0.737551
O23   O     O_R   0.092530 0.592560 0.383960 -0.505496
O24   O     O_3   0.714406 0.175678 0.252452 -0.690691
O25   O     O_3   0.650201 0.753778 0.273806 -0.772855
O26   O     O_3   0.750378 0.879863 0.709000 -0.589281
O27   O     O_3   0.115349 0.792838 0.648374 -0.720397
O28   O     O_3   0.090169 0.797997 0.419508 -0.648232
O29   O     O_3   0.133590 0.236497 0.293345 -0.698820
O30   O     O_3   0.082818 0.192089 0.499601 -0.671373
O31   O     O_3   0.592735 0.300528 0.592228 -0.683114
O32   O     O_3   0.607664 0.289652 0.362055 -0.648057
O33   O     O_3   0.577551 0.696404 0.510697 -0.733401
O34   O     O_R   0.092530 0.592560 0.616040 -0.523327
O35   O     O_3   0.642948 0.739597 0.708574 -0.633632
O36   O     O_3   0.983250 0.342570 0.134562 -0.704771
O37   O     O_3   0.974886 0.343600 0.869884 -0.649209
O38   O     O_3   0.033527 0.653741 0.864233 -0.667458
O39   O     O_3   0.022023 0.655702 0.130216 -0.605450
O40   O     O_3   0.477698 0.843124 0.129700 -0.712124
O41   O     O_3   0.480848 0.842781 0.864572 -0.646089
O42   O     O_3   0.524741 0.155157 0.869479 -0.636702
O43   O     O_3   0.529893 0.154426 0.136052 -0.641879
O44   O     O_R   0.592530 0.907440 0.616040 -0.500365
O45   O     O_R   0.592530 0.907440 0.383960 -0.514063
O46   O     O_R   0.592530 0.092560 0.383960 -0.510048
O47   O     O_R   0.592530 0.092560 0.616040 -0.507404
O48   O     O_R   0.907330 0.407420 0.616040 -0.540628
Zn1   Zn    Zn3+2 0.999890 0.500000 0.654960 1.202550
Zn2   Zn    Zn3+2 0.999890 0.500000 0.345040 1.202698
Zn3   Zn    Zn3+2 0.499890 0.000000 0.654960 1.217716
Zn4   Zn    Zn3+2 0.499890 0.000000 0.345040 1.198724

loop_
_geom_bond_atom_site_label_1
_geom_bond_atom_site_label_2
_ccdc_geom_bond_type
H18   O18   S    
C7    O11   S    
C44   N3    S    
C26   H7    S    
C49   F11   S    
O46   Zn4   S    
C13   O17   S    
C14   C31   S    
C10   H45   S    
C43   N1    S    
C47   N4    S    
H24   O24   S    
C6    C19   S    
O8    Zn3   S    
C7    H23   S    
C51   N4    S    
C46   N4    S    
C50   F17   S    
O7    Zn4   S    
C40   O36   S    
C1    O1    A    
C10   C15   S    
H37   O37   S    
C13   H47   S    
H42   O42   S    
C22   C38   S    
C24   C39   S    
C6    H12   S    
N2    Zn1   S    
C44   O40   S    
C37   O29   S    
C3    C29   S    
O34   Zn1   S    
C34   O47   A    
O2    Zn2   S    
C5    C27   S    
C20   C35   S    
C24   H4    S    
H29   O29   S    
C23   O44   A    
C47   C48   S    
C11   C30   S    
C45   N1    S    
C18   F20   S    
C41   O37   S    
O12   Zn2   S    
C21   O26   S    
H17   O17   S    
C8    O13   S    
C45   C49   S    
C39   O33   S    
C11   O16   S    
H26   O26   S    
C9    C29   S    
O4    Zn1   S    
C4    O8    A    
C12   O34   A    
C46   F6    S    
C25   H5    S    
C12   O23   A    
H36   O36   S    
O3    Zn2   S    
C44   C46   S    
C48   F8    S    
C39   O35   S    
H15   O15   S    
C25   C29   S    
H20   O20   S    
C2    O3    A    
C20   O25   S    
C20   F22   S    
C22   H48   S    
C13   C30   S    
C19   F21   S    
H19   O19   S    
C22   H2    S    
C19   C33   S    
C42   N2    S    
O5    Zn3   S    
O23   Zn2   S    
O47   Zn3   S    
C5    C18   S    
O45   Zn4   S    
C50   C51   S    
H30   O30   S    
O1    Zn1   S    
C7    C20   S    
C1    C32   S    
C7    C28   S    
C40   F24   S    
C3    O5    A    
C37   O30   S    
C6    O10   S    
C35   C39   S    
C9    C14   S    
C34   O46   A    
C8    H34   S    
C42   F3    S    
C48   O43   S    
C49   N2    S    
C11   C16   S    
C24   H3    S    
C2    O4    A    
C6    C27   S    
H25   O25   S    
C44   F5    S    
C15   F12   S    
H38   O38   S    
C33   C34   S    
C16   F18   S    
N4    Zn3   S    
C51   F15   S    
C32   C37   S    
H28   O28   S    
C5    O9    S    
C50   F14   S    
H14   O14   S    
C1    O12   A    
C4    O7    A    
C23   O45   A    
O44   Zn3   S    
H27   O27   S    
C40   C41   S    
C17   F19   S    
C23   C35   S    
C22   C27   S    
C12   C31   S    
C45   F13   S    
C25   H6    S    
C8    C28   S    
C11   H46   S    
C42   C43   S    
N3    Zn4   S    
C5    H1    S    
H9    O9    S    
C47   O42   S    
C27   C52   S    
C36   O28   S    
H22   O22   S    
C9    H44   S    
C52   O48   A    
O48   Zn1   S    
C26   H8    S    
C49   F10   S    
C41   N2    S    
C17   O21   S    
C24   C28   S    
H11   O11   S    
C8    C21   S    
C38   O31   S    
H31   O31   S    
C9    O14   S    
C26   C37   S    
C15   C31   S    
H32   O32   S    
C43   O39   S    
C16   C32   S    
C14   O18   S    
C33   C38   S    
C46   O41   S    
C13   C17   S    
C16   O20   S    
C3    O6    A    
C52   O2    A    
C21   C35   S    
C38   O32   S    
H35   O35   S    
H33   O33   S    
C48   N3    S    
C15   O19   S    
C10   C29   S    
H13   O13   S    
C40   N1    S    
C45   F9    S    
C51   F16   S    
H16   O16   S    
C18   C33   S    
C41   F2    S    
H10   O10   S    
C25   C36   S    
C47   F7    S    
H41   O41   S    
C43   F4    S    
C14   F1    S    
C21   F23   S    
N1    Zn2   S    
C17   C32   S    
H21   O21   S    
C31   C36   S    
H40   O40   S    
C2    C28   S    
C50   N3    S    
O6    Zn4   S    
C18   O22   S    
H39   O39   S    
C4    C30   S    
C42   O38   S    
C36   O27   S    
H43   O43   S    
C10   O15   S    
C26   C30   S    
C19   O24   S    
