data_mof_unit_34386.cif
_audit_creation_date              2012-12-10T17:37:17-0500
_audit_creation_method            fapswitch 2.2
_symmetry_space_group_name_H-M    P1
_symmetry_Int_Tables_number       1
_space_group_crystal_system       triclinic
_cell_length_a                    12.376461
_cell_length_b                    13.216023
_cell_length_c                    15.826115
_cell_angle_alpha                 77.167059
_cell_angle_beta                  100.823239
_cell_angle_gamma                 116.797341
_cell_volume                      2241.46842194

loop_
_atom_site_label
_atom_site_type_symbol
_atom_type_description
_atom_site_fract_x
_atom_site_fract_y
_atom_site_fract_z
_atom_type_partial_charge
C1    C     C_R   0.854985 0.286747 0.506953 0.767961
C2    C     C_3   0.999499 0.499975 0.917262 0.194450
C3    C     C_3   0.110750 0.573440 0.030403 -0.161492
C4    C     C_3   0.001035 0.500058 0.082941 0.194839
C5    C     C_3   0.025708 0.606266 0.956129 -0.155938
C6    C     C_3   0.915997 0.532877 0.010230 -0.156892
C7    C     C_1   0.998810 0.499910 0.825341 -0.078744
C8    C     C_1   0.001517 0.500137 0.174795 -0.085436
C9    C     C_R   0.276757 0.025668 0.389591 -0.192433
C10   C     C_R   0.228757 0.835160 0.470449 -0.046773
C11   C     C_R   0.814935 0.083521 0.558551 -0.191722
C12   C     C_R   0.999403 0.499705 0.659872 0.824810
C13   C     C_R   0.736307 0.967917 0.573534 -0.146436
C14   C     C_R   0.613397 0.930956 0.544439 -0.189796
C15   C     C_R   0.566889 0.009369 0.496177 0.078796
C16   C     C_R   0.650292 0.124949 0.471813 0.083686
C17   C     C_R   0.440562 0.976759 0.470546 0.071610
C18   C     C_R   0.401105 0.056318 0.414570 0.169484
C19   C     C_R   0.486222 0.164679 0.382512 -0.246912
C20   C     C_R   0.609012 0.197831 0.409353 -0.201661
C21   C     C_R   0.351822 0.867726 0.499734 -0.257263
C22   C     C_R   0.190902 0.915389 0.417152 -0.201220
C23   C     C_R   0.145123 0.713437 0.487531 0.782909
C24   C     C_R   0.772951 0.163640 0.509832 -0.103099
C25   C     C_R   0.348411 0.334490 0.646114 -0.309847
C26   C     C_R   0.758095 0.650650 0.384991 0.378956
C27   C     C_R   0.677871 0.700095 0.379303 -0.253975
C28   C     C_R   0.583626 0.650004 0.431261 -0.205574
C29   C     C_R   0.561866 0.544639 0.485393 -0.003923
C30   C     C_R   0.656654 0.507484 0.501476 0.237463
C31   C     C_R   0.452511 0.479366 0.527786 -0.039408
C32   C     C_R   0.450089 0.392600 0.598642 0.127278
C33   C     C_R   0.548352 0.363540 0.620204 -0.261740
C34   C     C_R   0.000611 0.500305 0.340146 0.817216
C35   C     C_R   0.647692 0.417227 0.570982 -0.164091
C36   C     C_R   0.342912 0.493082 0.499535 0.391388
C37   C     C_R   0.248668 0.361035 0.621820 0.020549
C38   C     C_3   0.974837 0.393768 0.044092 -0.161012
C39   C     C_3   0.889793 0.426588 0.969823 -0.159105
C40   C     C_1   0.998730 0.499837 0.749629 -0.182969
C41   C     C_1   0.001377 0.500210 0.250450 -0.190184
C42   C     C_3   0.084547 0.467153 0.989983 -0.159558
Cu1   Cu    Cu3+1 0.098270 0.475420 0.519690 0.927564
Cu2   Cu    Cu3+1 0.901730 0.524580 0.480310 0.921596
H1    H     H_    0.799108 0.366349 0.943557 0.127136
H2    H     H_    0.375930 0.805522 0.545075 0.150272
H3    H     H_    0.908519 0.110468 0.586889 0.153214
H4    H     H_    0.558017 0.840063 0.559176 0.126041
H5    H     H_    0.770134 0.906779 0.610415 0.143281
H6    H     H_    0.670800 0.280338 0.378391 0.177571
H7    H     H_    0.171512 0.317959 0.659769 0.136604
H8    H     H_    0.546901 0.296139 0.674107 0.148812
H9    H     H_    0.346298 0.269313 0.701968 0.143812
H10   H     H_    0.954021 0.306592 0.081622 0.126996
H11   H     H_    0.528644 0.695329 0.427998 0.176861
H12   H     H_    0.685964 0.776301 0.332750 0.149022
H13   H     H_    0.716371 0.386719 0.591031 0.201970
H14   H     H_    0.846835 0.559839 0.019974 0.127545
H15   H     H_    0.046538 0.693457 0.918628 0.128140
H16   H     H_    0.201421 0.633636 0.056728 0.126551
H17   H     H_    0.153723 0.440190 0.980273 0.127849
H18   H     H_    0.095921 0.891956 0.394247 0.149103
H19   H     H_    0.457801 0.224322 0.336413 0.141231
H20   H     H_    0.246220 0.086204 0.346984 0.130676
N1    N     N_R   0.246280 0.438200 0.549540 -0.200094
N2    N     N_R   0.754330 0.561180 0.450980 -0.204035
O1    O     O_R   0.972510 0.318130 0.524770 -0.578101
O2    O     O_R   0.806530 0.359650 0.491510 -0.603943
O3    O     O_R   0.082970 0.479240 0.637550 -0.576237
O4    O     O_R   0.916990 0.520750 0.604290 -0.587140
O5    O     O_R   0.193470 0.640350 0.508490 -0.601550
O6    O     O_R   0.027490 0.681870 0.475230 -0.583190
O7    O     O_R   0.083010 0.479250 0.395710 -0.573572
O8    O     O_R   0.917030 0.520760 0.362450 -0.584278
N3    N     N_2   0.328765 0.552368 0.414601 -0.445949
H21   H     H_    0.287912 0.606751 0.406524 0.285925
C43   C     C_3   0.305662 0.490100 0.343594 -0.662886
H22   H     H_    0.296123 0.544098 0.280588 0.217756
H23   H     H_    0.220898 0.409311 0.350168 0.242557
H24   H     H_    0.382430 0.468568 0.342927 0.223566
C44   C     C_3   0.841176 0.695464 0.313660 -0.800529
H25   H     H_    0.834388 0.771210 0.269908 0.176344
H26   H     H_    0.937628 0.723804 0.338516 0.248656
H27   H     H_    0.813008 0.628741 0.271970 0.230663

loop_
_geom_bond_atom_site_label_1
_geom_bond_atom_site_label_2
_ccdc_geom_bond_type
Cu1   O7    S    
C12   O3    A    
C3    C42   S    
C9    H20   S    
C6    H14   S    
Cu2   N2    S    
C2    C7    S    
C4    C8    S    
C44   H25   S    
C43   H22   S    
C10   C22   A    
C33   H8    S    
C26   C27   A    
C30   C35   A    
C28   C29   A    
C25   H9    S    
C38   C42   S    
C31   C36   A    
C5    C6    S    
C37   H7    S    
C9    C22   A    
C15   C16   A    
C11   C24   A    
C1    O2    A    
C18   C19   A    
N3    H21   S    
C25   C37   A    
C11   H3    S    
C2    C39   S    
C19   C20   A    
C19   H19   S    
C37   N1    A    
C20   H6    S    
C7    C40   T    
Cu2   O4    S    
C16   C20   A    
C39   H1    S    
C3    H16   S    
C25   C32   A    
C16   C24   A    
C13   C14   A    
C34   C41   S    
C44   H26   S    
C28   H11   S    
C43   H23   S    
C10   C21   A    
C5    H15   S    
C26   N2    A    
C23   O5    A    
C8    C41   T    
C4    C6    S    
C36   N1    A    
C14   H4    S    
C17   C21   A    
C12   C40   S    
Cu1   Cu2   S    
C29   C30   A    
C36   N3    S    
C22   H18   S    
C31   C32   A    
C38   H10   S    
Cu1   N1    S    
C14   C15   A    
C17   C18   A    
Cu2   O8    S    
N3    C43   S    
C42   H17   S    
C30   N2    A    
C34   O8    A    
C13   H5    S    
C4    C38   S    
C26   C44   S    
Cu2   O2    S    
C2    C5    S    
C3    C4    S    
C44   H27   S    
C21   H2    S    
C43   H24   S    
C15   C17   A    
C12   O4    A    
Cu1   O5    S    
C27   H12   S    
C23   O6    A    
C3    C5    S    
C1    O1    A    
C10   C23   S    
C35   H13   S    
C32   C33   A    
C29   C31   A    
C11   C13   A    
C38   C39   S    
C2    C42   S    
C33   C35   A    
Cu2   O6    S    
C34   O7    A    
C9    C18   A    
C1    C24   S    
Cu1   O1    S    
C27   C28   A    
C6    C39   S    
Cu1   O3    S    
