data_mof_unit_43793.cif
_audit_creation_date              2013-03-05T16:32:07-0500
_audit_creation_method            fapswitch 2.2
_symmetry_space_group_name_H-M    P1
_symmetry_Int_Tables_number       1
_space_group_crystal_system       triclinic
_cell_length_a                    10.734592
_cell_length_b                    10.798715
_cell_length_c                    9.536894
_cell_angle_alpha                 90.055558
_cell_angle_beta                  89.752296
_cell_angle_gamma                 90.014108
_cell_volume                      1105.50395835

loop_
_atom_site_label
_atom_site_type_symbol
_atom_site_description
_atom_site_fract_x
_atom_site_fract_y
_atom_site_fract_z
_atom_type_partial_charge
O1    O     O_R   0.500000 0.319640 0.618810 -0.588356
O2    O     O_R   0.500010 0.319680 0.381230 -0.536316
C1    C     C_R   0.507176 0.262439 0.499615 0.852304
O3    O     O_R   0.317690 0.499960 0.618790 -0.590709
O4    O     O_R   0.317700 0.500000 0.381210 -0.598340
C2    C     C_R   0.259827 0.499494 0.500083 0.764174
Cu1   Cu    Cu3+1 0.499990 0.499980 0.640670 0.935720
Cu2   Cu    Cu3+1 0.500010 0.500020 0.359330 0.975518
O5    O     O_R   0.499990 0.680320 0.618770 -0.580373
O6    O     O_R   0.500000 0.680360 0.381190 -0.588369
O7    O     O_R   0.682300 0.500000 0.618790 -0.604022
O8    O     O_R   0.682310 0.500040 0.381210 -0.567443
C3    C     C_R   0.502807 0.737667 0.500045 0.818113
C4    C     C_R   0.740230 0.499241 0.499707 0.803757
C5    C     C_3   0.072288 0.386370 0.584277 -0.425937
H1    H     H_    0.105205 0.391328 0.694669 0.131119
H2    H     H_    0.110278 0.299139 0.538705 0.172316
C6    C     C_3   0.927737 0.384224 0.583413 0.339288
H3    H     H_    0.893322 0.394204 0.693823 0.052310
H4    H     H_    0.106363 0.629016 0.676543 0.176101
H5    H     H_    0.894010 0.625235 0.679050 0.171907
C7    C     C_3   0.071505 0.619516 0.567301 -0.391927
C8    C     C_3   0.072129 0.489159 0.347572 -0.375825
C9    C     C_3   0.121924 0.498764 0.499914 0.114557
H6    H     H_    0.108246 0.567214 0.282832 0.174574
H7    H     H_    0.104579 0.401356 0.298135 0.177180
C10   C     C_3   0.878347 0.497869 0.499487 0.098015
C11   C     C_3   0.927731 0.618302 0.568887 -0.492785
C12   C     C_3   0.929785 0.492665 0.347117 -0.345358
H8    H     H_    0.893429 0.409942 0.290814 0.227952
H9    H     H_    0.899405 0.576484 0.288905 0.153254
H10   H     H_    0.105341 0.701278 0.507178 0.164963
H11   H     H_    0.892030 0.700899 0.511979 0.177653
C13   C     C_R   0.510272 0.063886 0.624168 0.086614
C14   C     C_R   0.526341 0.129408 0.499238 -0.223521
C15   C     C_R   0.560952 0.062845 0.376410 0.317216
C16   C     C_R   0.553845 0.933266 0.377842 -0.301946
H12   H     H_    0.574950 0.882123 0.282879 0.193896
C17   C     C_R   0.518051 0.870492 0.500426 -0.165952
C18   C     C_R   0.507250 0.936855 0.625011 0.125138
C19   C     C_3   0.408504 0.932805 0.735718 -0.438572
C20   C     C_3   0.411810 0.073441 0.734961 -0.443748
H13   H     H_    0.319165 0.893639 0.696948 0.184198
H14   H     H_    0.443233 0.891910 0.835131 0.209802
H15   H     H_    0.324315 0.116234 0.695916 0.178709
H16   H     H_    0.448466 0.113410 0.834028 0.228804
C21   C     C_R   0.555747 0.594051 0.073409 0.256134
N1    N     N_R   0.500800 0.500930 0.147930 -0.185180
C22   C     C_R   0.434458 0.414214 0.074702 -0.019922
H17   H     H_    0.383319 0.343398 0.130739 0.145009
C23   C     C_R   0.434351 0.414283 0.925743 -0.072252
H18   H     H_    0.382873 0.343746 0.870057 0.134133
N2    N     N_R   0.500800 0.500890 0.852020 -0.189265
C24   C     C_R   0.555497 0.594190 0.925942 0.260853
C25   C     C_3   0.689197 0.630602 0.918723 -0.501380
C26   C     C_3   0.689919 0.629185 0.077676 -0.503607
H19   H     H_    0.749346 0.557464 0.872213 0.211081
H20   H     H_    0.701916 0.724665 0.873599 0.196614
H21   H     H_    0.748898 0.553880 0.120197 0.217437
H22   H     H_    0.704731 0.722081 0.125026 0.195154
N3    N     N_R   0.603519 0.123698 0.251140 0.129975
O9    O     O_R   0.692347 0.205498 0.258280 -0.343834
O10   O     O_R   0.570559 0.081868 0.128757 -0.408241
O11   O     O_3   0.885026 0.272684 0.520841 -0.564965
C27   C     C_3   0.871389 0.178385 0.622663 0.073340
H23   H     H_    0.779798 0.188884 0.676326 0.162841
H24   H     H_    0.946895 0.180372 0.702641 0.124501
C28   C     C_3   0.876243 0.052567 0.550974 -0.761765
H25   H     H_    0.969763 0.037817 0.503571 0.236164
H26   H     H_    0.857930 0.978216 0.628770 0.191003
H27   H     H_    0.805217 0.047239 0.467279 0.270519

loop_
_geom_bond_atom_site_label_1
_geom_bond_atom_site_label_2
_geom_bond_distance
_ccdc_geom_bond_type
O6    C3    1.291372 A    
C8    H7    1.113784 S    
C5    C6    1.551927 S    
C23   N2    1.369097 A    
C25   C26   1.516062 S    
Cu2   N1    2.016115 S    
C18   C19   1.493523 S    
C12   H8    1.113246 S    
C4    C10   1.482694 S    
C10   C12   1.553244 S    
C19   C20   1.519112 S    
C24   C25   1.489336 S    
C14   C15   1.421832 A    
C13   C20   1.494803 S    
C26   H21   1.108909 S    
C1    C14   1.451272 S    
Cu2   O8    1.968905 S    
C27   C28   1.521208 S    
C2    C9    1.480359 S    
O11   C27   1.414899 S    
C25   H19   1.111092 S    
O2    C1    1.290278 A    
Cu1   Cu2   2.683108 S    
C12   H9    1.111994 S    
C7    C11   1.543421 S    
N2    C24   1.363360 A    
Cu1   O7    1.967220 S    
C19   H13   1.112603 S    
C6    O11   1.420490 S    
C16   H12   1.083449 S    
C7    H10   1.113227 S    
N3    O10   1.301513 A    
C28   H27   1.107638 S    
C13   C18   1.372176 A    
O4    C2    1.290398 A    
C8    C12   1.528508 S    
C28   H26   1.110666 S    
N1    C22   1.369116 A    
O7    C4    1.292451 A    
H5    C11   1.112208 S    
O8    C4    1.292229 A    
C11   H11   1.113498 S    
C27   H23   1.112220 S    
C21   C24   1.406392 A    
C8    H6    1.113892 S    
N3    O9    1.301608 A    
C19   H14   1.112122 S    
C7    C9    1.549830 S    
C3    C17   1.443605 S    
O4    Cu2   1.967219 S    
C27   H24   1.115572 S    
Cu1   N2    2.015694 S    
C8    C9    1.553610 S    
O3    C2    1.293652 A    
C15   N3    1.436854 S    
C21   N1    1.364434 A    
C26   H22   1.111386 S    
C17   C18   1.391366 A    
C23   H18   1.081267 S    
C16   C17   1.404074 A    
C13   C14   1.396322 A    
C20   H16   1.111799 S    
C25   H20   1.111693 S    
C10   C11   1.552894 S    
C22   H17   1.081572 S    
C6    H3    1.119499 S    
Cu1   O5    1.958810 S    
O3    Cu1   1.968907 S    
C15   C16   1.401421 A    
O1    Cu1   1.958366 S    
O5    C3    1.291315 A    
O1    C1    1.295222 A    
C5    H2    1.113724 S    
C5    C9    1.549899 S    
C28   H25   1.110660 S    
Cu2   O6    1.958366 S    
O2    Cu2   1.958808 S    
C6    C10   1.560026 S    
C5    H1    1.113191 S    
H4    C7    1.113144 S    
C21   C26   1.490040 S    
C22   C23   1.420613 A    
C20   H15   1.112625 S    
