data_mof_unit_31196.cif
_audit_creation_date              2012-12-11T15:21:48-0500
_audit_creation_method            fapswitch 2.2
_symmetry_space_group_name_H-M    P1
_symmetry_Int_Tables_number       1
_space_group_crystal_system       triclinic
_cell_length_a                    8.469957
_cell_length_b                    12.985534
_cell_length_c                    18.762055
_cell_angle_alpha                 93.883986
_cell_angle_beta                  94.365975
_cell_angle_gamma                 98.153931
_cell_volume                      2030.3337182

loop_
_atom_site_label
_atom_site_type_symbol
_atom_type_description
_atom_site_fract_x
_atom_site_fract_y
_atom_site_fract_z
_atom_type_partial_charge
Ba1   Ba    Ba6+2 0.160910 0.552960 0.466220 1.641746
Ba2   Ba    Ba6+2 0.649260 0.447030 0.533730 1.660688
C1    C     C_3   0.344806 0.966895 0.224822 -0.014596
C2    C     C_R   0.749520 0.818901 0.468257 -0.266133
C3    C     C_R   0.711508 0.996668 0.447103 -0.085232
C4    C     C_3   0.954672 0.830018 0.303480 0.277384
C5    C     C_R   0.654617 0.888613 0.440909 0.040498
C6    C     C_R   0.897553 0.852613 0.506612 0.037624
C7    C     C_R   0.955187 0.964729 0.515914 -0.056219
C8    C     C_R   0.861271 0.037792 0.484619 -0.054540
C9    C     C_R   0.918060 0.149446 0.494033 0.040641
C10   C     C_R   0.156950 0.114906 0.566535 -0.000653
C11   C     C_R   0.102837 0.006036 0.555118 -0.079454
C12   C     C_3   0.379268 0.873642 0.268598 0.618159
C13   C     C_R   0.625333 0.520915 0.298875 -0.286067
C14   C     C_R   0.468027 0.476601 0.276480 0.071085
C15   C     C_R   0.413764 0.468405 0.203982 -0.153696
C16   C     C_3   0.920543 0.935802 0.277018 -0.211099
C17   C     C_R   0.516932 0.505250 0.153106 -0.014788
C18   C     C_R   0.677582 0.544866 0.175660 -0.133607
C19   C     C_R   0.730581 0.553863 0.248672 0.010785
C20   C     C_R   0.495245 0.596009 0.039861 -0.097148
C21   C     C_R   0.433032 0.598634 0.968928 -0.068773
C22   C     C_R   0.328304 0.512906 0.934503 0.072422
C23   C     C_3   0.605320 0.753367 0.626083 0.327254
C24   C     C_R   0.284181 0.426230 0.973455 -0.058276
C25   C     C_R   0.346566 0.423322 0.043964 -0.070668
C26   C     C_R   0.453833 0.507716 0.077702 0.063286
C27   C     C_R   0.125841 0.452178 0.829669 -0.132004
C28   C     C_3   0.793331 0.313645 0.314820 0.284604
C29   C     C_R   0.086545 0.434749 0.755684 -0.031601
C30   C     C_R   0.338604 0.533258 0.734657 0.091232
C31   C     C_R   0.378928 0.552930 0.808314 -0.059709
C32   C     C_R   0.274994 0.508844 0.856913 0.046917
C33   C     C_R   0.194211 0.472728 0.708504 -0.271088
C34   C     C_3   0.671152 0.865493 0.646574 -0.109920
C35   C     C_3   0.855942 0.294623 0.241774 -0.349708
C36   C     C_3   0.037684 0.683734 0.684008 0.215366
C37   C     C_3   0.958241 0.685481 0.754831 -0.212746
C38   C     C_3   0.231756 0.240101 0.388212 0.294987
C39   C     C_3   0.259475 0.127639 0.391613 -0.357228
C40   C     C_3   0.245026 0.750075 0.165341 -0.220139
C41   C     C_2   0.050826 0.757897 0.813461 0.880453
C42   C     C_3   0.579950 0.750296 0.261254 -0.255614
C43   C     C_3   0.412269 0.911378 0.670592 -0.083658
C44   C     C_3   0.430584 0.146205 0.200945 -0.192827
C45   C     C_3   0.855874 0.178716 0.704685 0.326767
C46   C     C_2   0.451033 0.307905 0.768682 0.834473
C47   C     C_3   0.148044 0.131095 0.920094 -0.256820
C48   C     C_2   0.491511 0.144222 0.867288 1.002267
C49   C     C_2   0.264803 0.027243 0.799635 0.844698
C50   C     C_2   0.915341 0.945652 0.197039 0.904277
C51   C     C_3   0.842562 0.076427 0.737855 -0.299690
C52   C     C_3   0.356176 0.201326 0.750004 0.260761
C53   C     C_3   0.332028 0.140361 0.820477 -0.082038
C54   C     C_R   0.061081 0.184190 0.537530 -0.273259
H1    H     H_    0.792136 0.220895 0.213502 0.148946
H2    H     H_    0.225771 0.985097 0.235478 0.102987
H3    H     H_    0.246330 0.089708 0.337008 0.138514
H4    H     H_    0.170586 0.083549 0.422321 0.062993
H5    H     H_    0.381490 0.123880 0.416020 0.150841
H6    H     H_    0.342115 0.945530 0.166382 0.074869
H7    H     H_    0.708132 0.710741 0.621786 0.019742
H8    H     H_    0.532019 0.745083 0.573624 0.049250
H9    H     H_    0.712133 0.874033 0.704681 0.129674
H10   H     H_    0.775773 0.890318 0.617917 0.035302
H11   H     H_    0.807462 0.954975 0.296433 0.051589
H12   H     H_    0.839150 0.360152 0.208380 0.067471
H13   H     H_    0.765101 0.171697 0.657879 0.079557
H14   H     H_    0.977758 0.194360 0.685952 -0.046289
H15   H     H_    0.716475 0.047751 0.744605 0.163175
H16   H     H_    0.887410 0.020717 0.700495 0.098070
H17   H     H_    0.912802 0.083987 0.790556 0.181279
H18   H     H_    0.236141 0.213069 0.726991 -0.088317
H19   H     H_    0.071471 0.841153 0.335533 0.092468
H20   H     H_    0.634449 0.047995 0.424917 0.098090
H21   H     H_    0.178748 0.952721 0.573642 0.111795
H22   H     H_    0.104804 0.266969 0.544740 0.049667
H23   H     H_    0.985469 0.288282 0.248561 0.139079
H24   H     H_    0.701573 0.736673 0.463809 0.046301
H25   H     H_    0.494549 0.597088 0.826922 0.054699
H26   H     H_    0.466964 0.667743 0.941197 0.115264
H27   H     H_    0.574342 0.663463 0.065400 0.100681
H28   H     H_    0.290315 0.435883 0.187786 0.080069
H29   H     H_    0.205326 0.358747 0.948746 0.086250
H30   H     H_    0.865243 0.807257 0.341424 -0.016896
H31   H     H_    0.313155 0.354007 0.071648 0.059213
H32   H     H_    0.039398 0.422205 0.865604 0.085478
H33   H     H_    0.758870 0.574024 0.137324 0.095009
H34   H     H_    0.168085 0.684387 0.694283 0.014050
H35   H     H_    0.162191 0.459012 0.651331 0.055851
H36   H     H_    0.666709 0.529151 0.355278 0.073172
H37   H     H_    0.010385 0.998650 0.304230 0.025878
H38   H     H_    0.667207 0.326565 0.307606 -0.002996
H39   H     H_    0.867131 0.384978 0.341638 0.069491
H40   H     H_    0.258307 0.723168 0.275469 0.238177
H41   H     H_    0.199881 0.665451 0.156217 0.145381
H42   H     H_    0.360426 0.764582 0.140682 0.087768
H43   H     H_    0.156822 0.792784 0.137732 0.150533
H44   H     H_    0.046515 0.873780 0.890082 0.330365
H45   H     H_    0.986190 0.609123 0.653284 0.056440
H46   H     H_    0.589911 0.890592 0.216750 0.210998
H47   H     H_    0.676047 0.742770 0.226231 0.164287
H48   H     H_    0.483425 0.688959 0.238153 0.098369
H49   H     H_    0.615409 0.733393 0.316519 0.064700
H50   H     H_    0.599773 0.007382 0.633251 0.230335
H51   H     H_    0.342240 0.974317 0.665192 0.128109
H52   H     H_    0.448513 0.905753 0.728053 0.163486
H53   H     H_    0.333030 0.839768 0.648024 0.146760
H54   H     H_    0.492457 0.079860 0.295698 0.230819
H55   H     H_    0.517577 0.216347 0.218797 0.100400
H56   H     H_    0.946609 0.607179 0.774669 0.032196
H57   H     H_    0.308716 0.165007 0.208377 0.149582
H58   H     H_    0.440613 0.126725 0.143099 0.123836
H59   H     H_    0.572890 0.415343 0.844013 0.324109
H60   H     H_    0.131824 0.220950 0.832969 0.205526
H61   H     H_    0.093196 0.185087 0.955758 0.126160
H62   H     H_    0.240796 0.098178 0.952739 0.133166
H63   H     H_    0.053159 0.066441 0.898319 0.150278
H64   H     H_    0.442698 0.243725 0.949667 0.309085
H65   H     H_    0.108503 0.924876 0.735037 0.328305
H66   H     H_    0.975321 0.036750 0.117452 0.311185
H67   H     H_    0.835927 0.705963 0.745893 0.099081
H68   H     H_    0.102485 0.241783 0.377513 0.019162
H69   H     H_    0.276045 0.282350 0.441012 0.052223
N1    N     N_2   0.263830 0.782690 0.241874 -0.414258
N2    N     N_2   0.542205 0.855105 0.259419 -0.453296
N3    N     N_2   0.550937 0.930363 0.630777 -0.424313
N4    N     N_2   0.462664 0.059574 0.241815 -0.429001
N5    N     N_2   0.215963 0.186880 0.862062 -0.487109
O1    O     O_2   0.160820 0.763040 0.533820 -0.451115
O2    O     O_2   0.769904 0.444284 0.750277 -0.443828
O3    O     O_3   0.828709 0.256363 0.755791 -0.565746
O4    O     O_3   0.890970 0.628600 0.535400 -0.497574
O5    O     O_3   0.427530 0.446070 0.416950 -0.480697
O6    O     O_2   0.637430 0.550200 0.669460 -0.436953
O7    O     O_3   0.512163 0.720811 0.681038 -0.660178
O8    O     O_2   0.480239 0.117096 0.559889 -0.489192
O9    O     O_3   0.432913 0.147200 0.696811 -0.626129
O10   O     O_3   0.385950 0.698560 0.408070 -0.485560
O11   O     O_2   0.357609 0.877895 0.474282 -0.448771
O12   O     O_3   0.309355 0.280971 0.330759 -0.640688
O13   O     O_3   0.012279 0.772471 0.648378 -0.672039
O14   O     O_3   0.354564 0.902528 0.341325 -0.633108
O15   O     O_2   0.172860 0.449730 0.330520 -0.477289
O16   O     O_3   0.962080 0.644700 0.373110 -0.490775
O17   O     O_2   0.059942 0.571682 0.250284 -0.498543
O18   O     O_2   0.187324 0.746294 0.833571 -0.593797
O19   O     O_R   0.976505 0.834318 0.847963 -0.743791
O20   O     O_2   0.487402 0.361211 0.720374 -0.555998
O21   O     O_R   0.498201 0.346724 0.839585 -0.783263
O22   O     O_2   0.594768 0.097173 0.845204 -0.574400
O23   O     O_3   0.952234 0.751741 0.246928 -0.584136
O24   O     O_R   0.524596 0.198645 0.935221 -0.702955
O25   O     O_2   0.309065 0.957926 0.833847 -0.584817
O26   O     O_R   0.146104 0.002501 0.743340 -0.804119
O27   O     O_2   0.842633 0.876298 0.154688 -0.603637
O28   O     O_R   0.987575 0.038009 0.171690 -0.787440
O29   O     O_2   0.649470 0.236890 0.466160 -0.463790
O30   O     O_3   0.919320 0.371390 0.464540 -0.504666
O31   O     O_3   0.424350 0.301430 0.591880 -0.414625
O32   O     O_3   0.798627 0.224122 0.352091 -0.637065
O33   O     O_3   0.382770 0.553920 0.582990 -0.478115
O34   O     O_3   0.848220 0.355290 0.626830 -0.481063
P1    P     P_3+3 0.986780 0.745970 0.554690 0.948763
P2    P     P_3+3 0.341450 0.417130 0.341310 0.977256
P3    P     P_3+3 0.926585 0.627386 0.280122 0.933514
P4    P     P_3+3 0.823520 0.254020 0.445250 0.961839
P5    P     P_3+3 0.886000 0.374852 0.720540 0.992519
P6    P     P_3+3 0.442536 0.837018 0.410605 0.955251
P7    P     P_3+3 0.468674 0.587939 0.669974 0.992435
P8    P     P_3+3 0.366563 0.169756 0.606547 0.969800

loop_
_geom_bond_atom_site_label_1
_geom_bond_atom_site_label_2
_ccdc_geom_bond_type
C54   H22   S    
O16   P3    S    
C42   N2    S    
C21   H26   S    
C46   O20   D    
C36   O13   S    
Ba1   O15   S    
C17   C18   A    
C39   H5    S    
C2    C6    A    
C44   N4    S    
C42   H48   S    
C16   C50   S    
C4    H19   S    
C10   P8    S    
C42   H49   S    
C46   C52   S    
C35   H23   S    
C49   O25   D    
C24   C25   A    
Ba2   O4    S    
C45   O3    S    
H65   O26   S    
C22   C24   A    
C2    H24   S    
C36   H45   S    
C38   O12   S    
C40   H42   S    
C36   C37   S    
C43   H53   S    
C43   N3    S    
C13   C14   A    
C35   H12   S    
H50   N3    S    
C37   H67   S    
O29   P4    D    
H54   N4    S    
Ba1   Ba2   S    
C23   H7    S    
O3    P5    S    
C45   H13   S    
C27   H32   S    
C7    C11   A    
C41   O18   D    
C13   H36   S    
C52   H18   S    
O31   P8    S    
O13   P1    S    
C47   H62   S    
C14   P2    S    
C14   C15   A    
C21   C22   A    
O33   P7    S    
C7    C8    A    
C41   O19   S    
C43   H52   S    
C45   C51   S    
C20   C26   A    
C44   H55   S    
O23   P3    S    
O34   P5    S    
C34   N3    S    
C2    C5    A    
C4    C16   S    
Ba2   O31   S    
C42   H47   S    
C12   O14   S    
O15   P2    D    
C50   O28   S    
C38   H68   S    
C11   H21   S    
C49   O26   S    
C44   H58   S    
O8    P8    D    
C30   C33   A    
C39   H3    S    
H46   N2    S    
C8    C9    A    
C40   H41   S    
Ba2   O34   S    
C3    C5    A    
C34   H9    S    
C6    C7    A    
C37   C41   S    
C29   P5    S    
C16   H11   S    
C27   C32   A    
Ba2   O6    S    
C12   N2    S    
C28   C35   S    
C23   H8    S    
C23   O7    S    
C45   H14   S    
C28   H39   S    
O12   P2    S    
H60   N5    S    
C34   H10   S    
C52   O9    S    
O6    P7    D    
Ba1   P1    S    
C53   N5    S    
H64   O24   S    
C31   C32   A    
H66   O28   S    
O4    P1    S    
H40   N1    S    
O9    P8    S    
C10   C11   A    
C25   H31   S    
C17   C26   S    
Ba1   O10   S    
O1    P1    D    
C10   C54   A    
C1    C12   S    
O17   P3    D    
O32   P4    S    
Ba2   O30   S    
C37   H56   S    
C30   P7    S    
C9    P4    S    
C47   H61   S    
C46   O21   S    
O2    P5    D    
Ba2   O29   S    
Ba1   O4    S    
C51   H15   S    
Ba2   P4    S    
O14   P6    S    
C18   H33   S    
C1    H6    S    
C50   O27   D    
C52   C53   S    
C38   C39   S    
O10   P6    S    
C44   H57   S    
C1    N4    S    
Ba1   O30   S    
C51   H17   S    
C48   C53   S    
C39   H4    S    
Ba1   O1    S    
C4    H30   S    
Ba2   O33   S    
H44   O19   S    
C47   N5    S    
C36   H34   S    
Ba2   O5    S    
C12   N1    S    
C15   H28   S    
C30   C31   A    
C3    H20   S    
C3    C8    A    
C28   H38   S    
C40   H43   S    
C20   H27   S    
C47   H63   S    
Ba1   P2    S    
C48   O24   S    
C24   H29   S    
C38   H69   S    
C29   C33   A    
O11   P6    D    
C15   C17   A    
O5    P2    S    
C49   C53   S    
C19   P3    S    
O30   P4    S    
C22   C32   S    
O7    P7    S    
C4    O23   S    
C6    P1    S    
C40   N1    S    
C23   C34   S    
C1    H2    S    
C48   O22   D    
C13   C19   A    
Ba1   O16   S    
C18   C19   A    
Ba1   O33   S    
C27   C29   A    
C5    P6    S    
H59   O21   S    
C25   C26   A    
C16   H37   S    
C28   O32   S    
C20   C21   A    
Ba1   O5    S    
C51   H16   S    
C31   H25   S    
C35   H1    S    
C9    C54   A    
C43   H51   S    
C33   H35   S    
