data_mof_unit_13971.cif
_audit_creation_date              2012-12-10T18:16:14-0500
_audit_creation_method            fapswitch 2.2
_symmetry_space_group_name_H-M    P1
_symmetry_Int_Tables_number       1
_space_group_crystal_system       triclinic
_cell_length_a                    12.732202
_cell_length_b                    12.893677
_cell_length_c                    27.711765
_cell_angle_alpha                 92.847378
_cell_angle_beta                  103.126442
_cell_angle_gamma                 81.392342
_cell_volume                      4379.94773759

loop_
_atom_site_label
_atom_site_type_symbol
_atom_type_description
_atom_site_fract_x
_atom_site_fract_y
_atom_site_fract_z
_atom_type_partial_charge
C1    C     C_R   0.438849 0.692059 0.496867 0.889611
C2    C     C_R   0.512069 0.588099 0.027699 -0.031151
C3    C     C_R   0.523068 0.395227 0.025556 0.103999
C4    C     C_R   0.501919 0.499913 0.593803 0.862573
C5    C     C_R   0.515472 0.492537 0.051704 0.011224
C6    C     C_R   0.486346 0.685203 0.052387 0.454618
C7    C     C_R   0.478023 0.684089 0.102097 -0.264238
C8    C     C_R   0.493770 0.590052 0.127385 -0.079783
C9    C     C_R   0.510420 0.494008 0.102084 -0.062072
C10   C     C_R   0.520902 0.399218 0.127131 -0.005249
C11   C     C_R   0.516950 0.402494 0.177185 0.513916
C12   C     C_R   0.420529 0.488773 0.715286 -0.179134
C13   C     C_R   0.489045 0.589711 0.177372 0.544087
C14   C     C_R   0.409990 0.467489 0.266639 -0.210362
C15   C     C_R   0.407296 0.467036 0.316943 0.435654
C16   C     C_R   0.561108 0.308072 0.506526 0.909046
C17   C     C_R   0.584203 0.529477 0.337348 -0.300493
C18   C     C_R   0.585597 0.529239 0.287502 -0.101182
C19   C     C_R   0.498727 0.498280 0.252222 0.273779
C20   C     C_R   0.532146 0.582782 0.979279 0.036705
C21   C     C_R   0.526784 0.487955 0.951455 0.065737
C22   C     C_R   0.517686 0.394733 0.974034 0.003367
C23   C     C_R   0.521106 0.488725 0.748584 0.195562
C24   C     C_R   0.562710 0.667969 0.958694 -0.260962
C25   C     C_R   0.504205 0.302021 0.894201 0.524258
C26   C     C_R   0.536357 0.301406 0.051936 -0.221194
C27   C     C_R   0.535632 0.303568 0.101917 -0.139629
C28   C     C_R   0.498404 0.499350 0.406067 0.926972
C29   C     C_R   0.502668 0.304005 0.944356 -0.333372
C30   C     C_R   0.700736 0.074159 0.582235 0.448954
C31   C     C_R   0.597074 0.199234 0.520386 -0.168994
C32   C     C_R   0.296652 0.842827 0.469467 -0.400406
C33   C     C_R   0.260879 0.950517 0.467361 0.525185
C34   C     C_R   0.530354 0.486607 0.900759 -0.197546
C35   C     C_R   0.331608 0.020448 0.490414 0.329446
C36   C     C_R   0.439361 0.980424 0.516446 -0.086055
C37   C     C_R   0.464010 0.873520 0.527547 0.050951
C38   C     C_R   0.525192 0.041142 0.529895 0.060744
C39   C     C_R   0.619613 0.006950 0.566990 0.053112
C40   C     C_R   0.543274 0.576420 0.827976 0.617987
C41   C     C_R   0.630878 0.905909 0.585870 -0.215918
C42   C     C_R   0.555039 0.839391 0.565640 -0.144321
C43   C     C_R   0.522579 0.130607 0.503692 -0.249514
C44   C     C_R   0.687854 0.170317 0.558747 -0.200058
C45   C     C_R   0.547131 0.578129 0.879042 -0.072845
C46   C     C_R   0.398344 0.803878 0.499192 -0.176107
C47   C     C_R   0.083543 0.374918 0.416465 -0.171418
C48   C     C_R   0.799529 0.628786 0.561185 -0.127503
C49   C     C_R   0.899257 0.666883 0.570703 0.409083
C50   C     C_R   0.974913 0.627434 0.542766 -0.148463
C51   C     C_R   0.957263 0.542583 0.508953 -0.119053
C52   C     C_R   0.514547 0.396913 0.820972 0.515907
C53   C     C_R   0.852618 0.510305 0.498625 0.113004
C54   C     C_R   0.038578 0.489347 0.484627 -0.095725
C55   C     C_R   0.006959 0.424207 0.442579 -0.006865
C56   C     C_R   0.568505 0.667738 0.908897 0.481915
C57   C     C_R   0.900236 0.404775 0.428084 0.282028
C58   C     C_R   0.829711 0.433604 0.460244 0.332297
C59   C     C_R   0.150767 0.495918 0.500469 0.538594
C60   C     C_R   0.191499 0.386564 0.433119 -0.019923
C61   C     C_R   0.616115 0.490823 0.731341 0.530507
C62   C     C_R   0.608936 0.496932 0.680615 -0.321971
C63   C     C_R   0.413964 0.492295 0.664670 -0.197686
C64   C     C_3   0.771569 0.389871 0.769172 0.062431
C65   C     C_3   0.875763 0.389251 0.809016 -0.770340
C66   C     C_3   0.580814 0.137213 0.877069 0.088302
C67   C     C_R   0.516448 0.394034 0.871762 -0.107350
C68   C     C_3   0.562643 0.039770 0.844792 -0.688689
C69   C     C_3   0.082227 0.987245 0.469554 0.115028
C70   C     C_3   0.972201 0.043231 0.442681 -0.731706
C71   C     C_3   0.921093 0.718202 0.652160 0.082377
C72   C     C_3   0.974186 0.795592 0.689658 -0.749274
C73   C     C_3   0.493523 0.864544 0.049875 0.078797
C74   C     C_3   0.485936 0.949531 0.012479 -0.809752
C75   C     C_R   0.508069 0.496880 0.647020 -0.095456
C76   C     C_R   0.495697 0.498529 0.352724 -0.097318
H1    H     H_    0.335288 0.492313 0.639501 0.211505
H2    H     H_    0.458531 0.151024 0.471149 0.210789
H3    H     H_    0.244531 0.789959 0.448024 0.200597
H4    H     H_    0.567491 0.761335 0.580380 0.146346
H5    H     H_    0.251449 0.350364 0.413054 0.195294
H6    H     H_    0.061042 0.326015 0.383917 0.220667
H7    H     H_    0.737555 0.661279 0.580702 0.134087
H8    H     H_    0.044882 0.667601 0.547246 0.210006
H9    H     H_    0.343474 0.443641 0.238508 0.140501
H10   H     H_    0.455464 0.756723 0.120810 0.189348
H11   H     H_    0.587192 0.733909 0.981658 0.174654
H12   H     H_    0.550923 0.224832 0.035181 0.135491
H13   H     H_    0.682548 0.500592 0.667775 0.173790
H14   H     H_    0.793865 0.361592 0.733680 0.149816
H15   H     H_    0.722063 0.334810 0.780425 0.159353
H16   H     H_    0.855821 0.416024 0.845027 0.255964
H17   H     H_    0.921283 0.308533 0.813056 0.209798
H18   H     H_    0.927991 0.442309 0.798706 0.261681
H19   H     H_    0.600919 0.113228 0.916539 0.117823
H20   H     H_    0.651231 0.169368 0.868753 0.143865
H21   H     H_    0.543607 0.060525 0.805019 0.271084
H22   H     H_    0.637307 0.980913 0.852584 0.211485
H23   H     H_    0.652933 0.554050 0.363836 0.191395
H24   H     H_    0.493912 0.004835 0.852793 0.260953
H25   H     H_    0.771662 0.009217 0.645088 0.322616
H26   H     H_    0.328155 0.159149 0.520626 0.341102
H27   H     H_    0.106673 0.028793 0.505758 0.158876
H28   H     H_    0.073042 0.905023 0.476401 0.132495
H29   H     H_    0.944188 0.003166 0.406644 0.257598
H30   H     H_    0.911237 0.042395 0.465611 0.205273
H31   H     H_    0.978809 0.125992 0.435915 0.276620
H32   H     H_    0.788326 0.363167 0.373314 0.353919
H33   H     H_    0.242887 0.589671 0.536778 0.359136
H34   H     H_    0.546036 0.229694 0.120637 0.187733
H35   H     H_    0.607060 0.809770 0.915014 0.314476
H36   H     H_    0.968247 0.638624 0.660884 0.145675
H37   H     H_    0.836284 0.718847 0.656497 0.132284
H38   H     H_    0.928605 0.875755 0.682725 0.264304
H39   H     H_    0.973982 0.772695 0.727739 0.207964
H40   H     H_    0.059708 0.795832 0.686713 0.260110
H41   H     H_    0.762489 0.307149 0.443402 0.330782
H42   H     H_    0.266602 0.416020 0.301816 0.333123
H43   H     H_    0.580772 0.844234 0.069087 0.133614
H44   H     H_    0.444826 0.898099 0.076972 0.165059
H45   H     H_    0.654504 0.552677 0.276189 0.158071
H46   H     H_    0.399894 0.971510 0.992532 0.273304
H47   H     H_    0.516408 0.020162 0.031979 0.200684
H48   H     H_    0.535907 0.921396 0.985176 0.234005
H49   H     H_    0.485214 0.233767 0.958704 0.160100
H50   H     H_    0.745159 0.224880 0.572604 0.182384
H51   H     H_    0.700869 0.874299 0.613738 0.160337
H52   H     H_    0.347460 0.486677 0.728787 0.167219
N1    N     N_R   0.526530 0.487240 0.800520 -0.359764
N2    N     N_R   0.501363 0.496820 0.201063 -0.347457
N3    N     N_R   0.222180 0.444690 0.474320 -0.152142
N4    N     N_R   0.776980 0.554780 0.525420 -0.111764
O1    O     O_R   0.366730 0.627160 0.487740 -0.644597
O2    O     O_R   0.410930 0.482330 0.420550 -0.562694
O3    O     O_R   0.589030 0.517690 0.436960 -0.568423
O4    O     O_2   0.554152 0.663290 0.805366 -0.466805
O5    O     O_3   0.714879 0.492928 0.764440 -0.596211
O6    O     O_3   0.485361 0.211458 0.866631 -0.557458
O7    O     O_3   0.790860 0.051581 0.620460 -0.760444
O8    O     O_3   0.289607 0.125601 0.490095 -0.752971
O9    O     O_3   0.158705 0.988525 0.439899 -0.568780
O10   O     O_3   0.868686 0.348530 0.384645 -0.775280
O11   O     O_3   0.189882 0.547279 0.543778 -0.801102
O12   O     O_2   0.472074 0.681239 0.202186 -0.553317
O13   O     O_3   0.596147 0.753780 0.889270 -0.710664
O14   O     O_3   0.921101 0.748888 0.603895 -0.598616
O15   O     O_3   0.744234 0.379323 0.456195 -0.722008
O16   O     O_3   0.320389 0.435358 0.331527 -0.761907
O17   O     O_3   0.450094 0.776562 0.024945 -0.604043
O18   O     O_2   0.500889 0.310679 0.791892 -0.522247
O19   O     O_2   0.529138 0.312383 0.201973 -0.553061
O20   O     O_R   0.544830 0.662520 0.504140 -0.608479
O21   O     O_R   0.410970 0.482310 0.563040 -0.603092
O22   O     O_R   0.589070 0.517670 0.579450 -0.641914
O23   O     O_R   0.455170 0.337480 0.495860 -0.609159
O24   O     O_R   0.633270 0.372840 0.512260 -0.542865
Zn1   Zn    Zn3+2 0.381080 0.476390 0.489050 0.976943
Zn2   Zn    Zn3+2 0.618920 0.523610 0.510950 0.976495

loop_
_geom_bond_atom_site_label_1
_geom_bond_atom_site_label_2
_ccdc_geom_bond_type
C10   C27   A    
C65   H16   S    
C66   C68   S    
C40   N1    A    
C42   H4    S    
C8    C13   A    
C73   H43   S    
C22   C29   A    
C29   H49   S    
O23   Zn1   S    
C28   O3    A    
C41   C42   A    
C41   H51   S    
C74   H48   S    
C35   C36   A    
C25   C67   A    
C64   H14   S    
H32   O10   S    
H25   O7    S    
C50   H8    S    
C7    C8    A    
C39   C41   A    
C16   C31   S    
C40   O4    S    
C12   C23   A    
C59   N3    A    
C26   C27   A    
C31   C43   A    
C57   O10   S    
C28   O2    A    
C52   N1    A    
C47   C55   A    
C36   C37   A    
C4    O22   A    
O22   Zn2   S    
C70   H31   S    
H35   O13   S    
C15   O16   S    
C1    C46   S    
C13   O12   S    
C7    H10   S    
C69   O9    S    
C62   H13   S    
C72   H38   S    
C56   O13   S    
C23   N1    S    
C1    O20   A    
C18   C19   A    
C73   C74   S    
C47   H6    S    
C37   C42   A    
N3    Zn1   S    
C68   H21   S    
C4    C75   S    
C47   C60   A    
C6    O17   S    
C20   C24   A    
C45   C56   A    
C8    C9    A    
C16   O24   A    
C17   C76   A    
C13   N2    A    
C9    C10   A    
C61   C62   A    
C64   O5    S    
C19   N2    S    
C65   H17   S    
C74   H47   S    
C71   H37   S    
C59   O11   S    
O3    Zn2   S    
C21   C22   A    
C30   C44   A    
C2    C6    A    
C1    O1    A    
C60   N3    A    
C50   C51   A    
C54   C59   A    
C69   H27   S    
C25   C29   A    
C40   C45   A    
O20   Zn2   S    
C31   C44   A    
C2    C20   A    
C27   H34   S    
C70   H30   S    
C53   N4    A    
C12   C63   A    
C58   O15   S    
C21   C34   A    
C33   O9    S    
N4    Zn2   S    
C51   C53   A    
C68   H24   S    
C5    C9    A    
C35   O8    S    
C43   H2    S    
C60   H5    S    
C66   O6    S    
C44   H50   S    
C71   H36   S    
O2    Zn1   S    
C16   O23   A    
C17   C18   A    
H33   O11   S    
C34   C45   A    
H26   O8    S    
C17   H23   S    
C52   C67   A    
C11   O19   S    
C48   C49   A    
C74   H46   S    
C55   C57   A    
C62   C75   A    
C2    C5    A    
C28   C76   S    
C11   N2    A    
C66   H20   S    
C63   H1    S    
C69   H28   S    
C30   C39   A    
C54   C55   A    
C65   H18   S    
C30   O7    S    
C73   O17   S    
C32   C46   A    
C14   C19   A    
C3    C26   A    
C14   H9    S    
C3    C5    A    
C70   H29   S    
C34   C67   A    
C53   C58   A    
C6    C7    A    
C12   H52   S    
C24   C56   A    
C72   H40   S    
C48   H7    S    
H41   O15   S    
C51   C54   A    
C64   C65   S    
O24   Zn2   S    
C25   O6    S    
C38   C43   A    
C32   C33   A    
C32   H3    S    
C61   O5    S    
C57   C58   A    
C38   C39   A    
C63   C75   A    
C36   C38   A    
C33   C35   A    
C49   O14   S    
C4    O21   A    
O1    Zn1   S    
O21   Zn1   S    
C69   C70   S    
C24   H11   S    
C68   H22   S    
C10   C11   A    
C18   H45   S    
H42   O16   S    
C26   H12   S    
C23   C61   A    
C71   O14   S    
C71   C72   S    
C20   C21   A    
C52   O18   S    
C49   C50   A    
C73   H44   S    
C14   C15   A    
C48   N4    A    
C3    C22   A    
C15   C76   A    
C64   H15   S    
C37   C46   A    
C72   H39   S    
C66   H19   S    
