data_mof_unit_66090.cif
_audit_creation_date              2012-12-10T20:27:19-0500
_audit_creation_method            fapswitch 2.2
_symmetry_space_group_name_H-M    P1
_symmetry_Int_Tables_number       1
_space_group_crystal_system       triclinic
_cell_length_a                    25.704145
_cell_length_b                    25.712733
_cell_length_c                    40.186423
_cell_angle_alpha                 90.00624
_cell_angle_beta                  90.027678
_cell_angle_gamma                 90.004643
_cell_volume                      26560.1607521

loop_
_atom_site_label
_atom_site_type_symbol
_atom_type_description
_atom_site_fract_x
_atom_site_fract_y
_atom_site_fract_z
_atom_type_partial_charge
C1    C     C_1   0.168840 0.325607 0.250117 -0.059131
C2    C     C_1   0.828867 0.671322 0.751665 -0.071039
C3    C     C_1   0.674699 0.168529 0.249901 -0.059224
C4    C     C_1   0.328770 0.828800 0.751461 -0.070663
C5    C     C_1   0.831159 0.674395 0.250115 -0.059094
C6    C     C_1   0.171140 0.328679 0.751664 -0.071043
C7    C     C_1   0.325438 0.831217 0.249939 -0.059645
C8    C     C_1   0.671213 0.171206 0.751500 -0.071028
C9    C     C_1   0.174551 0.668708 0.750100 -0.058604
C10   C     C_1   0.828743 0.328780 0.251215 -0.070380
C11   C     C_1   0.668809 0.825578 0.750072 -0.059281
C12   C     C_1   0.328870 0.171323 0.251696 -0.070908
C13   C     C_1   0.825462 0.331273 0.750085 -0.058738
C14   C     C_1   0.171083 0.671229 0.251718 -0.075100
C15   C     C_1   0.331189 0.174424 0.750069 -0.059259
C16   C     C_1   0.671136 0.828677 0.251695 -0.070906
C17   C     C_R   0.209401 0.285901 0.250823 -0.024038
C18   C     C_R   0.788591 0.711124 0.752167 -0.027730
C19   C     C_R   0.714550 0.208945 0.250330 -0.023041
C20   C     C_R   0.289003 0.788496 0.752050 -0.027565
C21   C     C_R   0.790600 0.714100 0.250823 -0.023969
C22   C     C_R   0.211414 0.288877 0.752164 -0.027675
C23   C     C_R   0.285388 0.790942 0.250323 -0.024823
C24   C     C_R   0.710993 0.211495 0.752072 -0.028028
C25   C     C_R   0.214253 0.709278 0.750751 -0.024254
C26   C     C_R   0.789224 0.288220 0.251548 -0.026244
C27   C     C_R   0.709329 0.785829 0.750722 -0.023920
C28   C     C_R   0.288639 0.211170 0.252261 -0.027714
C29   C     C_R   0.785736 0.290724 0.750732 -0.024510
C30   C     C_R   0.210830 0.711502 0.252008 -0.031768
C31   C     C_R   0.290673 0.214175 0.750720 -0.023861
C32   C     C_R   0.711366 0.788829 0.252259 -0.027650
C33   C     C_R   0.000336 0.546841 0.431816 -0.186602
C34   C     C_R   0.000924 0.453167 0.568187 -0.186750
C35   C     C_R   0.453162 0.000455 0.431799 -0.186583
C36   C     C_R   0.546828 0.001065 0.568204 -0.186720
C37   C     C_R   0.999662 0.453167 0.431809 -0.186611
C38   C     C_R   0.999077 0.546825 0.568192 -0.186753
C39   C     C_R   0.546870 0.999544 0.431826 -0.186547
C40   C     C_R   0.453139 0.998936 0.568176 -0.186685
C41   C     C_R   0.500440 0.046839 0.931816 -0.186567
C42   C     C_R   0.501025 0.953168 0.068187 -0.186786
C43   C     C_R   0.953161 0.500380 0.931798 -0.186595
C44   C     C_R   0.046828 0.500968 0.068203 -0.186805
C45   C     C_R   0.499559 0.953168 0.931809 -0.186602
C46   C     C_R   0.498975 0.046822 0.068193 -0.186771
C47   C     C_R   0.046870 0.499619 0.931827 -0.186574
C48   C     C_R   0.953136 0.499024 0.068176 -0.186759
C49   C     C_1   0.362246 0.138416 0.250892 -0.136992
C50   C     C_1   0.636712 0.859927 0.749654 -0.137990
C51   C     C_1   0.861577 0.362236 0.250673 -0.137004
C52   C     C_1   0.140154 0.636652 0.749672 -0.137945
C53   C     C_1   0.637765 0.861588 0.250896 -0.137126
C54   C     C_1   0.363280 0.140070 0.749647 -0.138131
C55   C     C_1   0.138292 0.637770 0.250958 -0.138126
C56   C     C_1   0.859866 0.363326 0.749658 -0.137869
C57   C     C_1   0.361636 0.862209 0.750746 -0.137046
C58   C     C_1   0.640214 0.136569 0.249596 -0.138028
C59   C     C_1   0.862253 0.638424 0.750889 -0.137043
C60   C     C_1   0.136722 0.359937 0.249669 -0.137934
C61   C     C_1   0.638344 0.137800 0.750779 -0.137027
C62   C     C_1   0.359902 0.863230 0.249642 -0.138008
C63   C     C_1   0.137757 0.361580 0.750894 -0.137177
C64   C     C_1   0.863269 0.640061 0.249662 -0.137995
C65   C     C_R   0.999999 0.500004 0.378592 -0.175589
C66   C     C_R   1.000000 0.499996 0.621410 -0.175893
C67   C     C_R   0.500016 0.000000 0.378594 -0.175670
C68   C     C_R   0.499984 0.000001 0.621409 -0.175940
C69   C     C_R   0.500000 0.000004 0.878592 -0.175639
C70   C     C_R   0.499999 0.999996 0.121411 -0.175793
C71   C     C_R   0.000016 0.500000 0.878594 -0.175691
C72   C     C_R   0.999983 0.499997 0.121409 -0.175917
C73   C     C_R   0.000380 0.547548 0.397004 0.244585
C74   C     C_R   0.001023 0.452460 0.602999 0.244509
C75   C     C_R   0.452455 0.000505 0.396989 0.244605
C76   C     C_R   0.547534 0.001173 0.603014 0.244548
C77   C     C_R   0.999618 0.452460 0.396998 0.244595
C78   C     C_R   0.998977 0.547532 0.603004 0.244522
C79   C     C_R   0.547576 0.999495 0.397015 0.244533
C80   C     C_R   0.452434 0.998829 0.602987 0.244469
C81   C     C_R   0.500488 0.047547 0.897004 0.244628
C82   C     C_R   0.501127 0.952462 0.102999 0.244511
C83   C     C_R   0.952454 0.500428 0.896988 0.244621
C84   C     C_R   0.047536 0.501070 0.103013 0.244519
C85   C     C_R   0.499511 0.952460 0.896998 0.244653
C86   C     C_R   0.498871 0.047529 0.103004 0.244466
C87   C     C_R   0.047577 0.499572 0.897015 0.244547
C88   C     C_R   0.952431 0.498920 0.102987 0.244364
C89   C     C_R   0.999999 0.500004 0.449154 0.032773
C90   C     C_R   0.000000 0.499996 0.550848 0.032794
C91   C     C_R   0.500015 0.999999 0.449154 0.032776
C92   C     C_R   0.499984 1.000000 0.550847 0.032790
C93   C     C_R   0.500000 0.000003 0.949154 0.032757
C94   C     C_R   0.500001 0.999996 0.050848 0.032817
C95   C     C_R   0.000014 0.499999 0.949154 0.032784
C96   C     C_R   0.999983 0.499998 0.050847 0.032838
C97   C     C_1   1.000000 0.500002 0.484976 -0.002804
C98   C     C_1   0.000000 0.499998 0.515027 -0.002827
C99   C     C_1   0.500007 0.999999 0.484976 -0.002802
C100  C     C_1   0.499993 0.999999 0.515027 -0.002823
C101  C     C_1   0.500000 0.000001 0.984976 -0.002816
C102  C     C_1   0.500001 0.999997 0.015027 -0.002882
C103  C     C_1   0.000006 0.499998 0.984976 -0.002832
C104  C     C_1   0.999991 0.499998 0.015027 -0.002889
C105  C     C_R   0.500009 0.000000 0.341225 0.857202
C106  C     C_R   0.499991 0.000000 0.658774 0.857417
C107  C     C_R   1.000000 0.500002 0.341221 0.856962
C108  C     C_R   0.000000 0.499998 0.658778 0.857237
C109  C     C_R   0.000009 0.500000 0.841225 0.857181
C110  C     C_R   0.999991 0.499999 0.158774 0.857469
C111  C     C_R   0.500000 0.000002 0.841221 0.857053
C112  C     C_R   0.500000 0.999998 0.158778 0.857239
C113  C     C_R   0.599262 0.098650 0.249910 0.820160
C114  C     C_R   0.401023 0.901204 0.750100 0.822253
C115  C     C_R   0.901348 0.599260 0.249887 0.820368
C116  C     C_R   0.098789 0.401009 0.750136 0.822334
C117  C     C_R   0.400770 0.901294 0.249926 0.819775
C118  C     C_R   0.598968 0.098798 0.750109 0.822168
C119  C     C_R   0.098644 0.400741 0.249890 0.820033
C120  C     C_R   0.901219 0.598991 0.750133 0.822044
C121  C     C_R   0.598647 0.900744 0.749892 0.819966
C122  C     C_R   0.401212 0.098983 0.250127 0.822082
C123  C     C_R   0.900741 0.401345 0.749901 0.819969
C124  C     C_R   0.098972 0.598765 0.250156 0.823036
C125  C     C_R   0.401345 0.099256 0.749889 0.820255
C126  C     C_R   0.598796 0.901016 0.250130 0.822366
C127  C     C_R   0.099269 0.598647 0.749906 0.820146
C128  C     C_R   0.900983 0.401234 0.250115 0.822119
C129  C     C_R   0.202185 0.240309 0.270319 0.158884
C130  C     C_R   0.793255 0.754052 0.730364 0.161681
C131  C     C_R   0.759613 0.202416 0.270481 0.158903
C132  C     C_R   0.244986 0.794054 0.731180 0.161659
C133  C     C_R   0.797840 0.759696 0.270323 0.158850
C134  C     C_R   0.206738 0.245962 0.730343 0.161648
C135  C     C_R   0.240599 0.797457 0.270701 0.158506
C136  C     C_R   0.754881 0.205995 0.731115 0.161702
C137  C     C_R   0.204534 0.756221 0.732952 0.085281
C138  C     C_R   0.794844 0.245615 0.273975 0.078040
C139  C     C_R   0.755562 0.794641 0.732018 0.085367
C140  C     C_R   0.245194 0.204863 0.273923 0.078725
C141  C     C_R   0.795312 0.243863 0.732819 0.085676
C142  C     C_R   0.205249 0.754362 0.274252 0.080838
C143  C     C_R   0.244426 0.205368 0.732001 0.085385
C144  C     C_R   0.754832 0.795136 0.273930 0.078730
C145  C     C_R   0.702361 0.740500 0.770505 0.158885
C146  C     C_R   0.293662 0.254478 0.230802 0.161745
C147  C     C_R   0.260474 0.701618 0.769629 0.159004
C148  C     C_R   0.746915 0.292093 0.229133 0.160800
C149  C     C_R   0.297658 0.259498 0.770515 0.158842
C150  C     C_R   0.706322 0.745523 0.230792 0.161746
C151  C     C_R   0.739637 0.298326 0.769713 0.158960
C152  C     C_R   0.253007 0.707388 0.229525 0.159202
C153  C     C_R   0.706127 0.254657 0.231018 0.083449
C154  C     C_R   0.296029 0.744529 0.773199 0.078644
C155  C     C_R   0.255915 0.295018 0.232465 0.085508
C156  C     C_R   0.745432 0.705124 0.774098 0.078650
C157  C     C_R   0.293324 0.745467 0.230700 0.086096
C158  C     C_R   0.704075 0.255420 0.773272 0.078917
C159  C     C_R   0.744064 0.704979 0.232461 0.085489
C160  C     C_R   0.254587 0.294867 0.774111 0.078656
H1    H     H_    0.000571 0.583228 0.445447 0.179513
H2    H     H_    0.001576 0.416784 0.554555 0.179506
H3    H     H_    0.416760 0.000780 0.445416 0.179511
H4    H     H_    0.583224 0.001826 0.554585 0.179507
H5    H     H_    0.999428 0.416780 0.445435 0.179513
H6    H     H_    0.998424 0.583208 0.554565 0.179511
H7    H     H_    0.583272 0.999219 0.445466 0.179505
H8    H     H_    0.416743 0.998174 0.554535 0.179500
H9    H     H_    0.500756 0.083226 0.945447 0.179518
H10   H     H_    0.501757 0.916786 0.054555 0.179470
H11   H     H_    0.916758 0.500646 0.945416 0.179504
H12   H     H_    0.083227 0.501656 0.054584 0.179470
H13   H     H_    0.499244 0.916781 0.945435 0.179499
H14   H     H_    0.498243 0.083204 0.054565 0.179506
H15   H     H_    0.083272 0.499352 0.945466 0.179487
H16   H     H_    0.916738 0.498335 0.054535 0.179482
O1    O     O_3   0.500000 0.000000 0.250000 -0.509143
O2    O     O_3   0.500000 0.000000 0.750000 -0.509205
O3    O     O_3   1.000000 0.500000 0.250000 -0.509205
O4    O     O_3   0.000000 0.500000 0.750000 -0.509207
O5    O     O_R   0.457230 0.000000 0.324840 -0.596865
O6    O     O_R   0.542770 0.000000 0.675160 -0.596510
O7    O     O_R   0.000000 0.457230 0.324840 -0.596866
O8    O     O_R   0.000000 0.542770 0.675160 -0.596503
O9    O     O_R   0.542770 0.000000 0.324840 -0.596968
O10   O     O_R   0.457230 0.000000 0.675160 -0.596630
O11   O     O_R   0.000000 0.542770 0.324840 -0.596939
O12   O     O_R   0.000000 0.457230 0.675160 -0.596531
O13   O     O_R   0.957230 0.500000 0.824840 -0.596859
O14   O     O_R   0.042770 0.500000 0.175160 -0.596481
O15   O     O_R   0.500000 0.957230 0.824840 -0.596849
O16   O     O_R   0.500000 0.042770 0.175160 -0.596522
O17   O     O_R   0.042770 0.500000 0.824840 -0.596970
O18   O     O_R   0.957230 0.500000 0.175160 -0.596621
O19   O     O_R   0.500000 0.042770 0.824840 -0.596882
O20   O     O_R   0.500000 0.957230 0.175160 -0.596552
O21   O     O_R   0.602770 0.060140 0.269640 -0.624144
O22   O     O_R   0.397230 0.939860 0.730360 -0.625811
O23   O     O_R   0.939860 0.602770 0.269640 -0.624016
O24   O     O_R   0.060140 0.397230 0.730360 -0.625871
O25   O     O_R   0.397230 0.939860 0.269640 -0.623969
O26   O     O_R   0.602770 0.060140 0.730360 -0.625768
O27   O     O_R   0.060140 0.397230 0.269640 -0.624046
O28   O     O_R   0.939860 0.602770 0.730360 -0.625917
O29   O     O_R   0.602770 0.939860 0.730360 -0.628471
O30   O     O_R   0.397230 0.060140 0.269640 -0.627795
O31   O     O_R   0.939860 0.397230 0.730360 -0.628401
O32   O     O_R   0.060140 0.602770 0.269640 -0.627668
O33   O     O_R   0.397230 0.060140 0.730360 -0.628551
O34   O     O_R   0.602770 0.939860 0.269640 -0.627898
O35   O     O_R   0.060140 0.602770 0.730360 -0.628300
O36   O     O_R   0.939860 0.397230 0.269640 -0.627852
O37   O     O_R   0.102770 0.560140 0.769640 -0.624137
O38   O     O_R   0.897230 0.439860 0.230360 -0.625824
O39   O     O_R   0.439860 0.102770 0.769640 -0.624077
O40   O     O_R   0.560140 0.897230 0.230360 -0.625795
O41   O     O_R   0.897230 0.439860 0.769640 -0.624019
O42   O     O_R   0.102770 0.560140 0.230360 -0.626740
O43   O     O_R   0.560140 0.897230 0.769640 -0.624129
O44   O     O_R   0.439860 0.102770 0.230360 -0.625820
O45   O     O_R   0.102770 0.439860 0.230360 -0.628450
O46   O     O_R   0.897230 0.560140 0.769640 -0.627813
O47   O     O_R   0.439860 0.897230 0.230360 -0.628572
O48   O     O_R   0.560140 0.102770 0.769640 -0.627903
O49   O     O_R   0.897230 0.560140 0.230360 -0.628464
O50   O     O_R   0.102770 0.439860 0.769640 -0.627901
O51   O     O_R   0.560140 0.102770 0.230360 -0.628431
O52   O     O_R   0.439860 0.897230 0.769640 -0.627828
Zn1   Zn    Zn3+2 0.500000 0.061050 0.221990 1.014607
Zn2   Zn    Zn3+2 0.500000 0.938950 0.778010 1.015270
Zn3   Zn    Zn3+2 0.938950 0.500000 0.221990 1.014749
Zn4   Zn    Zn3+2 0.061050 0.500000 0.778010 1.015397
Zn5   Zn    Zn3+2 0.500000 0.938950 0.221990 1.014449
Zn6   Zn    Zn3+2 0.500000 0.061050 0.778010 1.015296
Zn7   Zn    Zn3+2 0.061050 0.500000 0.221990 1.014368
Zn8   Zn    Zn3+2 0.938950 0.500000 0.778010 1.015362
Zn9   Zn    Zn3+2 0.000000 0.561050 0.721990 1.014664
Zn10  Zn    Zn3+2 1.000000 0.438950 0.278010 1.015249
Zn11  Zn    Zn3+2 0.438950 0.000000 0.721990 1.014648
Zn12  Zn    Zn3+2 0.561050 0.000000 0.278010 1.015360
Zn13  Zn    Zn3+2 0.000000 0.438950 0.721990 1.014658
Zn14  Zn    Zn3+2 0.000000 0.561050 0.278010 1.015450
Zn15  Zn    Zn3+2 0.561050 0.000000 0.721990 1.014602
Zn16  Zn    Zn3+2 0.438950 0.000000 0.278010 1.015310
Br1   Br    Br    0.001064 0.615973 0.377539 -0.479300
Br2   Br    Br    0.002795 0.384055 0.622467 -0.478533
Br3   Br    Br    0.384002 0.001392 0.377502 -0.479388
Br4   Br    Br    0.615964 0.003189 0.622504 -0.478647
Br5   Br    Br    0.998932 0.384032 0.377525 -0.479330
Br6   Br    Br    0.997205 0.615940 0.622478 -0.478436
Br7   Br    Br    0.616018 0.998609 0.377557 -0.479330
Br8   Br    Br    0.384015 0.996817 0.622448 -0.478726
Br9   Br    Br    0.501346 0.115969 0.877538 -0.479166
Br10  Br    Br    0.503066 0.884061 0.122469 -0.479795
Br11  Br    Br    0.884000 0.501189 0.877502 -0.479140
Br12  Br    Br    0.115971 0.502917 0.122502 -0.478677
Br13  Br    Br    0.498652 0.884036 0.877525 -0.479198
Br14  Br    Br    0.496927 0.115932 0.122479 -0.478792
Br15  Br    Br    0.116020 0.498812 0.877558 -0.479176
Br16  Br    Br    0.884008 0.497058 0.122448 -0.478921
C161  C     C_3   0.250600 0.158782 0.298255 -0.354982
C162  C     C_3   0.214043 0.149623 0.327390 -0.882986
H17   H     H_    0.207306 0.186135 0.341397 0.265149
H18   H     H_    0.177688 0.130923 0.318627 0.258979
H19   H     H_    0.232406 0.121061 0.344554 0.268893
H20   H     H_    0.251737 0.122340 0.283453 0.219642
H21   H     H_    0.289451 0.163189 0.310422 0.223991
C163  C     C_3   0.758858 0.848680 0.715427 -0.352729
C164  C     C_3   0.808256 0.869985 0.699921 -0.883061
H22   H     H_    0.842005 0.866093 0.717032 0.255996
H23   H     H_    0.815212 0.851872 0.675295 0.271006
H24   H     H_    0.802508 0.912232 0.695258 0.258639
H25   H     H_    0.727434 0.851621 0.696631 0.224402
H26   H     H_    0.750225 0.877240 0.735525 0.214585
C165  C     C_3   0.839783 0.252288 0.299114 -0.355544
C166  C     C_3   0.848854 0.216100 0.328445 -0.882717
H27   H     H_    0.812176 0.209082 0.342219 0.264799
H28   H     H_    0.868127 0.179900 0.319960 0.259218
H29   H     H_    0.876897 0.234960 0.345755 0.269167
H30   H     H_    0.876810 0.254105 0.284932 0.220596
H31   H     H_    0.834022 0.291144 0.311019 0.223082
C167  C     C_3   0.149800 0.759974 0.717274 -0.351884
C168  C     C_3   0.127583 0.809944 0.703082 -0.884280
H32   H     H_    0.132199 0.842927 0.720719 0.256168
H33   H     H_    0.144489 0.818059 0.678250 0.270786
H34   H     H_    0.085140 0.804224 0.699123 0.258164
H35   H     H_    0.146256 0.729417 0.697941 0.224412
H36   H     H_    0.122054 0.750256 0.737646 0.214316
C169  C     C_3   0.749452 0.841215 0.298269 -0.355030
C170  C     C_3   0.786022 0.850351 0.327424 -0.882995
H37   H     H_    0.792782 0.813824 0.341410 0.265179
H38   H     H_    0.822364 0.869075 0.318687 0.258956
H39   H     H_    0.767659 0.878887 0.344599 0.268888
H40   H     H_    0.748317 0.877661 0.283475 0.219627
H41   H     H_    0.710606 0.836816 0.310419 0.223991
C171  C     C_3   0.241111 0.151331 0.715400 -0.352760
C172  C     C_3   0.191690 0.130026 0.699892 -0.883095
H42   H     H_    0.157958 0.133955 0.716992 0.256029
H43   H     H_    0.184720 0.148112 0.675257 0.270978
H44   H     H_    0.197417 0.087772 0.695244 0.258628
H45   H     H_    0.272510 0.148389 0.696606 0.224387
H46   H     H_    0.249769 0.122769 0.735495 0.214588
C173  C     C_3   0.160171 0.747995 0.299304 -0.354351
C174  C     C_3   0.150758 0.784541 0.328393 -0.884112
H47   H     H_    0.187171 0.791296 0.342529 0.264703
H48   H     H_    0.132035 0.820841 0.319572 0.259972
H49   H     H_    0.122158 0.766072 0.345483 0.269166
H50   H     H_    0.123241 0.746003 0.285004 0.221117
H51   H     H_    0.165858 0.709289 0.311420 0.223352
C175  C     C_3   0.849910 0.240211 0.716971 -0.352220
C176  C     C_3   0.871903 0.190418 0.702404 -0.883554
H52   H     H_    0.867903 0.157322 0.720008 0.255881
H53   H     H_    0.854346 0.182377 0.677739 0.271402
H54   H     H_    0.914218 0.196318 0.698037 0.258249
H55   H     H_    0.853315 0.270991 0.697782 0.224379
H56   H     H_    0.877849 0.249654 0.737304 0.214277
C177  C     C_3   0.246146 0.838261 0.705729 -0.368967
C178  C     C_3   0.272587 0.821318 0.673510 -0.808256
H57   H     H_    0.313663 0.810035 0.678405 0.261910
H58   H     H_    0.251405 0.788128 0.662319 0.262506
H59   H     H_    0.272395 0.854496 0.655789 0.260723
H60   H     H_    0.209038 0.856556 0.700374 0.211712
H61   H     H_    0.267105 0.872488 0.715456 0.208643
C179  C     C_3   0.766730 0.148922 0.286844 -0.362990
C180  C     C_3   0.782063 0.106843 0.261729 -0.836889
H62   H     H_    0.755038 0.104818 0.240309 0.264429
H63   H     H_    0.821875 0.114407 0.252248 0.257302
H64   H     H_    0.781832 0.068197 0.274284 0.251633
H65   H     H_    0.795557 0.146944 0.306424 0.223671
H66   H     H_    0.730027 0.137706 0.299601 0.214103
C181  C     C_3   0.836235 0.751543 0.704125 -0.368448
C182  C     C_3   0.817508 0.724164 0.672657 -0.811315
H67   H     H_    0.806237 0.683376 0.678362 0.261630
H68   H     H_    0.783880 0.745169 0.661882 0.262979
H69   H     H_    0.849761 0.723504 0.654283 0.261016
H70   H     H_    0.854593 0.788282 0.697953 0.211900
H71   H     H_    0.870740 0.730564 0.713422 0.209518
C183  C     C_3   0.148167 0.232800 0.285883 -0.362974
C184  C     C_3   0.107031 0.217608 0.260113 -0.837668
H72   H     H_    0.105219 0.245302 0.239057 0.264542
H73   H     H_    0.115454 0.178216 0.250221 0.257974
H74   H     H_    0.068038 0.216946 0.272207 0.251205
H75   H     H_    0.145642 0.203848 0.305329 0.223535
H76   H     H_    0.136363 0.269280 0.298679 0.214112
C185  C     C_3   0.753642 0.161815 0.705644 -0.368277
C186  C     C_3   0.727711 0.178996 0.673299 -0.808822
H77   H     H_    0.686633 0.190455 0.677996 0.261867
H78   H     H_    0.749175 0.212124 0.662278 0.262685
H79   H     H_    0.727940 0.145876 0.655535 0.260686
H80   H     H_    0.790682 0.143149 0.700597 0.211017
H81   H     H_    0.732248 0.127747 0.715174 0.208886
C187  C     C_3   0.233796 0.850951 0.287132 -0.362025
C188  C     C_3   0.218002 0.893009 0.262118 -0.836513
H82   H     H_    0.244739 0.895072 0.240564 0.264228
H83   H     H_    0.178073 0.885365 0.252841 0.257413
H84   H     H_    0.218335 0.931656 0.274675 0.251615
H85   H     H_    0.205481 0.852953 0.306994 0.223191
H86   H     H_    0.270731 0.862196 0.299618 0.213941
C189  C     C_3   0.163762 0.248495 0.704077 -0.368478
C190  C     C_3   0.182499 0.275891 0.672633 -0.811318
H87   H     H_    0.193773 0.316675 0.678362 0.261628
H88   H     H_    0.216127 0.254889 0.661873 0.262974
H89   H     H_    0.150250 0.276565 0.654237 0.261028
H90   H     H_    0.145408 0.211761 0.697873 0.211944
H91   H     H_    0.129259 0.269472 0.713360 0.209555
C191  C     C_3   0.851877 0.767216 0.285889 -0.363102
C192  C     C_3   0.892981 0.782388 0.260121 -0.837487
H92   H     H_    0.894769 0.754680 0.239068 0.264569
H93   H     H_    0.884546 0.821773 0.250221 0.257952
H94   H     H_    0.931989 0.783060 0.272219 0.251237
H95   H     H_    0.854423 0.796191 0.305326 0.223576
H96   H     H_    0.863695 0.730745 0.298693 0.214147
C193  C     C_3   0.751249 0.659490 0.798736 -0.355108
C194  C     C_3   0.714852 0.650503 0.827971 -0.882998
H97   H     H_    0.708105 0.687121 0.841862 0.265009
H98   H     H_    0.678500 0.631640 0.819347 0.259121
H99   H     H_    0.733375 0.622141 0.845199 0.269009
H100  H     H_    0.752529 0.622814 0.784177 0.220032
H101  H     H_    0.790138 0.664331 0.810786 0.223676
C195  C     C_3   0.259420 0.349306 0.216226 -0.352652
C196  C     C_3   0.309014 0.370869 0.201129 -0.883565
H102  H     H_    0.342507 0.366825 0.218428 0.256050
H103  H     H_    0.316371 0.353060 0.176460 0.271085
H104  H     H_    0.303270 0.413162 0.196641 0.258434
H105  H     H_    0.228267 0.352516 0.197265 0.224495
H106  H     H_    0.250489 0.377562 0.236448 0.214480
C197  C     C_3   0.342994 0.749301 0.796955 -0.354566
C198  C     C_3   0.352971 0.712246 0.825727 -0.883348
H107  H     H_    0.316850 0.705233 0.840093 0.265295
H108  H     H_    0.371434 0.676070 0.816503 0.258668
H109  H     H_    0.382011 0.730297 0.842719 0.268697
H110  H     H_    0.378949 0.750618 0.781666 0.218975
H111  H     H_    0.339138 0.787921 0.809474 0.224424
C199  C     C_3   0.652423 0.257597 0.213891 -0.351335
C200  C     C_3   0.630869 0.307183 0.198690 -0.882715
H112  H     H_    0.636386 0.341100 0.215520 0.256881
H113  H     H_    0.647591 0.313509 0.173563 0.268271
H114  H     H_    0.588252 0.302042 0.194972 0.258543
H115  H     H_    0.650117 0.226340 0.194939 0.223761
H116  H     H_    0.623482 0.248496 0.233690 0.215214
C201  C     C_3   0.248784 0.340486 0.798765 -0.355161
C202  C     C_3   0.285190 0.349446 0.828022 -0.883009
H117  H     H_    0.291960 0.312811 0.841888 0.265038
H118  H     H_    0.321530 0.368336 0.819426 0.259105
H119  H     H_    0.266664 0.377779 0.845261 0.269002
H120  H     H_    0.247501 0.377172 0.784220 0.220025
H121  H     H_    0.209899 0.335640 0.810795 0.223674
C203  C     C_3   0.740531 0.650684 0.216225 -0.352675
C204  C     C_3   0.690905 0.629111 0.201145 -0.883439
H122  H     H_    0.657438 0.633210 0.218440 0.256084
H123  H     H_    0.683522 0.646869 0.176462 0.270993
H124  H     H_    0.696624 0.586806 0.196687 0.258540
H125  H     H_    0.771648 0.647466 0.197258 0.224497
H126  H     H_    0.749503 0.622439 0.236447 0.214530
C205  C     C_3   0.657216 0.250585 0.797076 -0.354573
C206  C     C_3   0.647207 0.287680 0.825818 -0.883467
H127  H     H_    0.683293 0.294635 0.840254 0.265243
H128  H     H_    0.628831 0.323876 0.816550 0.258885
H129  H     H_    0.618095 0.269674 0.842758 0.268708
H130  H     H_    0.621212 0.249173 0.781818 0.219140
H131  H     H_    0.661194 0.211993 0.809609 0.224355
C207  C     C_3   0.346408 0.743228 0.212754 -0.354744
C208  C     C_3   0.365901 0.695607 0.194072 -0.863643
H132  H     H_    0.367268 0.660868 0.210841 0.252102
H133  H     H_    0.342400 0.689180 0.171038 0.273794
H134  H     H_    0.406907 0.703235 0.185861 0.256955
H135  H     H_    0.348445 0.776578 0.195255 0.222907
H136  H     H_    0.376339 0.749493 0.232474 0.213198
C209  C     C_3   0.750448 0.333885 0.202146 -0.368524
C210  C     C_3   0.780956 0.314513 0.171998 -0.810705
H137  H     H_    0.821409 0.304120 0.179288 0.261294
H138  H     H_    0.761372 0.280190 0.160975 0.262091
H139  H     H_    0.782656 0.346123 0.153172 0.261064
H140  H     H_    0.713840 0.350575 0.193939 0.214217
H141  H     H_    0.769518 0.369390 0.211695 0.209292
C211  C     C_3   0.268436 0.647283 0.784639 -0.362891
C212  C     C_3   0.282697 0.606654 0.758330 -0.837983
H142  H     H_    0.254636 0.605696 0.737432 0.264633
H143  H     H_    0.322014 0.614883 0.748254 0.257866
H144  H     H_    0.283156 0.567362 0.770032 0.250918
H145  H     H_    0.298052 0.644349 0.803685 0.223452
H146  H     H_    0.232341 0.635256 0.797792 0.214053
C213  C     C_3   0.337115 0.252440 0.204868 -0.368742
C214  C     C_3   0.318987 0.225547 0.173085 -0.810540
H147  H     H_    0.307654 0.184658 0.178435 0.261777
H148  H     H_    0.285534 0.246691 0.162199 0.262899
H149  H     H_    0.351570 0.225214 0.154946 0.260985
H150  H     H_    0.355552 0.289292 0.199082 0.211774
H151  H     H_    0.371471 0.231350 0.214289 0.209299
C215  C     C_3   0.648525 0.733187 0.786363 -0.362953
C216  C     C_3   0.607072 0.717761 0.760856 -0.837602
H152  H     H_    0.605026 0.745232 0.739688 0.264524
H153  H     H_    0.615350 0.678262 0.751089 0.257852
H154  H     H_    0.568220 0.717247 0.773138 0.251275
H155  H     H_    0.646205 0.704415 0.805928 0.223551
H156  H     H_    0.636899 0.769800 0.799069 0.214075
C217  C     C_3   0.250393 0.664503 0.203164 -0.351576
C218  C     C_3   0.228134 0.685237 0.170271 -0.810440
H157  H     H_    0.187044 0.698330 0.174082 0.259497
H158  H     H_    0.251998 0.718087 0.160810 0.261560
H159  H     H_    0.228137 0.653342 0.151602 0.258934
H160  H     H_    0.286843 0.642409 0.199851 0.201885
H161  H     H_    0.225194 0.631624 0.210886 0.209034
C219  C     C_3   0.731802 0.352608 0.784829 -0.362661
C220  C     C_3   0.717336 0.393319 0.758618 -0.837874
H162  H     H_    0.745245 0.394349 0.737656 0.264595
H163  H     H_    0.677948 0.385111 0.748625 0.257869
H164  H     H_    0.716952 0.432571 0.770377 0.250982
H165  H     H_    0.702374 0.355484 0.803978 0.223342
H166  H     H_    0.768004 0.364595 0.797898 0.214051
C221  C     C_3   0.662862 0.747573 0.204838 -0.368831
C222  C     C_3   0.680980 0.774485 0.173075 -0.810592
H167  H     H_    0.692313 0.815372 0.178445 0.261806
H168  H     H_    0.714431 0.753347 0.162198 0.262910
H169  H     H_    0.648393 0.774826 0.154919 0.260933
H170  H     H_    0.644434 0.710723 0.199022 0.211814
H171  H     H_    0.628507 0.768654 0.214253 0.209323
C223  C     C_3   0.351508 0.266816 0.786384 -0.362996
C224  C     C_3   0.392938 0.282231 0.760886 -0.837569
H172  H     H_    0.394967 0.254753 0.739719 0.264528
H173  H     H_    0.384652 0.321726 0.751116 0.257838
H174  H     H_    0.431801 0.282749 0.773178 0.251290
H175  H     H_    0.353844 0.295604 0.805944 0.223589
H176  H     H_    0.363143 0.230207 0.799095 0.214106

loop_
_geom_bond_atom_site_label_1
_geom_bond_atom_site_label_2
_ccdc_geom_bond_type
C111  O15   A    
C142  C173  S    
C170  H39   S    
C217  C218  S    
C122  O30   A    
C12   C49   T    
C175  H56   S    
C150  C221  S    
O46   Zn8   S    
C167  C168  S    
O31   Zn13  S    
O9    Zn12  S    
C73   Br1   S    
O20   Zn5   S    
C220  H164  S    
O13   Zn8   S    
O27   Zn10  S    
C42   H10   S    
C134  C143  A    
C55   C124  S    
C135  C142  A    
C130  C181  S    
C165  C166  S    
C179  C180  S    
C84   Br12  S    
C58   C113  S    
C219  H166  S    
O35   Zn9   S    
C3    C19   S    
C148  C209  S    
O5    Zn16  S    
C61   C118  S    
C64   C115  S    
C124  O32   A    
O40   Zn5   S    
C21   C159  A    
O12   Zn13  S    
C76   Br4   S    
C9    C52   T    
C20   C132  A    
C10   C51   T    
C21   C133  A    
O2    Zn11  S    
C188  H83   S    
C52   C127  S    
C208  H134  S    
C72   C110  S    
O16   Zn1   S    
C54   C125  S    
C65   C77   A    
C150  C159  A    
C108  O8    A    
C118  O48   A    
C151  C158  A    
C67   C79   A    
C106  O10   A    
C1    C60   T    
C87   Br15  S    
C2    C59   T    
C67   C105  S    
C38   C78   A    
C26   C138  A    
C132  C137  A    
C212  H142  S    
C41   H9    S    
C110  O14   A    
C35   H3    S    
C5    C64   T    
C6    C63   T    
C33   H1    S    
C44   H12   S    
C7    C62   T    
C136  C141  A    
C197  H111  S    
C45   H13   S    
C173  C174  S    
C223  H176  S    
C27   C145  A    
C187  C188  S    
C25   C147  A    
C222  H167  S    
C26   C148  A    
C72   C84   A    
C70   C112  S    
C222  H169  S    
C33   C73   A    
C171  C172  S    
C137  C167  S    
C96   C104  S    
C196  H102  S    
C19   C153  A    
C18   C130  A    
C148  C153  A    
O43   Zn2   S    
O3    Zn3   S    
C197  C198  S    
C17   C155  A    
C18   C156  A    
C211  C212  S    
O2    Zn15  S    
C212  H144  S    
C152  C157  A    
C120  O46   A    
C48   C96   A    
C178  H59   S    
C129  C183  S    
C147  C211  S    
C108  O12   A    
C127  O37   A    
C162  H18   S    
C23   C135  A    
C38   C90   A    
C189  H91   S    
C206  H127  S    
C165  H30   S    
C161  H20   S    
C131  C138  A    
C125  O39   A    
O50   Zn4   S    
C192  H94   S    
C31   C143  A    
C70   C82   A    
C210  H138  S    
C32   C144  A    
C199  C200  S    
C219  C220  S    
O10   Zn11  S    
C4    C20   S    
C32   C150  A    
O4    Zn8   S    
C163  H26   S    
C189  C190  S    
C209  H141  S    
O14   Zn7   S    
O17   Zn4   S    
C81   Br9   S    
C204  H122  S    
C134  C189  S    
C191  H95   S    
O23   Zn14  S    
C128  O38   A    
C195  C196  S    
C155  C195  S    
C59   C120  S    
C187  H86   S    
C43   C83   A    
C45   C93   A    
O6    Zn15  S    
C97   C98   T    
C209  C210  S    
C171  H46   S    
C169  H41   S    
O44   Zn1   S    
C51   C128  S    
O42   Zn7   S    
C115  O49   A    
O3    Zn10  S    
C161  C162  S    
C113  O51   A    
C183  H75   S    
C66   C74   A    
C119  O45   A    
C60   C119  S    
C185  H80   S    
C180  H63   S    
C194  H97   S    
C62   C117  S    
C178  H58   S    
C186  H78   S    
C177  H60   S    
C86   Br14  S    
C99   C100  T    
C198  H107  S    
C157  C207  S    
C196  H104  S    
C217  H160  S    
O19   Zn6   S    
C109  O17   A    
C189  H90   S    
O47   Zn5   S    
C181  H70   S    
C131  C179  S    
C173  H51   S    
C216  H154  S    
C24   C136  A    
C174  H48   S    
C14   C55   T    
C207  H135  S    
C213  H151  S    
C168  H34   S    
C172  H43   S    
C118  O26   A    
O11   Zn14  S    
C190  H87   S    
C95   C103  S    
C169  C170  S    
C71   C83   A    
C174  H49   S    
C215  H156  S    
C218  H157  S    
C206  H129  S    
C182  H67   S    
O2    Zn6   S    
C125  O33   A    
C181  H71   S    
C37   H5    S    
C179  H65   S    
C115  O23   A    
C27   C139  A    
C214  H147  S    
C194  H99   S    
C47   C87   A    
C25   C137  A    
C44   C96   A    
C33   C89   A    
C29   C151  A    
C30   C152  A    
C46   C94   A    
C29   C141  A    
C46   H14   S    
C153  C199  S    
C195  H106  S    
C203  C204  S    
C204  H124  S    
C94   C102  S    
C126  O40   A    
O51   Zn1   S    
C176  H53   S    
C124  O42   A    
C207  C208  S    
C120  O28   A    
C67   C75   A    
C69   C85   A    
C186  H79   S    
C36   H4    S    
C202  H117  S    
C107  O7    A    
C203  H125  S    
C133  C144  A    
O18   Zn3   S    
O33   Zn11  S    
C34   H2    S    
C15   C31   S    
C162  H17   S    
C151  C219  S    
C16   C32   S    
C28   C146  A    
C138  C165  S    
C85   Br13  S    
C193  H101  S    
C22   C160  A    
C198  H109  S    
C7    C23   S    
C23   C157  A    
C220  H163  S    
C223  C224  S    
C165  H31   S    
C149  C160  A    
C211  H145  S    
C114  O52   A    
C216  H152  S    
C184  H74   S    
C166  H27   S    
C114  O22   A    
C168  H32   S    
C105  O5    A    
O29   Zn15  S    
C65   C107  S    
C190  H89   S    
C47   H15   S    
C111  O19   A    
C48   H16   S    
C101  C102  T    
C224  H172  S    
C182  H69   S    
C121  O29   A    
C176  H52   S    
C162  H19   S    
O52   Zn2   S    
C188  H82   S    
C224  H174  S    
C9    C25   S    
C208  H133  S    
C167  H36   S    
C50   C121  S    
O25   Zn16  S    
C12   C28   S    
C214  H149  S    
C13   C29   S    
O32   Zn14  S    
C199  H115  S    
O7    Zn10  S    
C158  C205  S    
C31   C149  A    
C200  H114  S    
C2    C18   S    
O38   Zn3   S    
C6    C22   S    
C170  H37   S    
C39   C91   A    
O48   Zn6   S    
C191  C192  S    
C112  O20   A    
C136  C185  S    
C145  C156  A    
C41   C93   A    
C146  C155  A    
C28   C140  A    
C43   C95   A    
C48   C88   A    
C201  H120  S    
C156  C193  S    
C36   C92   A    
C123  O41   A    
C164  H22   S    
O45   Zn7   S    
C135  C187  S    
C121  O43   A    
O39   Zn6   S    
C43   H11   S    
C130  C139  A    
C221  H171  S    
C201  C202  S    
C175  H55   S    
C212  H143  S    
C66   C78   A    
C119  O27   A    
C133  C191  S    
O4    Zn13  S    
C37   C77   A    
C205  H131  S    
C83   Br11  S    
C5    C21   S    
C39   C79   A    
C181  C182  S    
C15   C54   T    
C112  O16   A    
C184  H72   S    
C166  H29   S    
C41   C81   A    
C56   C123  S    
C192  H93   S    
C159  C203  S    
C210  H139  S    
C213  H150  S    
C173  H50   S    
C20   C154  A    
C34   C74   A    
C71   C87   A    
C63   C116  S    
C77   Br5   S    
C93   C101  S    
C191  H96   S    
O8    Zn9   S    
C188  H84   S    
C75   Br3   S    
C38   H6    S    
C175  C176  S    
C42   C94   A    
C79   Br7   S    
C74   Br2   S    
O30   Zn16  S    
C66   C108  S    
C44   C84   A    
C200  H112  S    
O2    Zn2   S    
C169  H40   S    
C30   C142  A    
C37   C89   A    
C222  H168  S    
C11   C50   T    
C221  H170  S    
C128  O36   A    
C223  H175  S    
C183  H76   S    
O26   Zn15  S    
C180  H62   S    
C143  C171  S    
C194  H98   S    
C69   C81   A    
C88   Br16  S    
C3    C58   T    
C146  C213  S    
C163  C164  S    
C198  H108  S    
C164  H24   S    
C103  C104  T    
C196  H103  S    
C205  H130  S    
C82   Br10  S    
O24   Zn13  S    
C206  H128  S    
C216  H153  S    
C68   C80   A    
C139  C163  S    
C207  H136  S    
C219  H165  S    
C168  H33   S    
C69   C111  S    
C172  H42   S    
C192  H92   S    
C42   C82   A    
C221  C222  S    
C190  H88   S    
C35   C75   A    
C145  C215  S    
O49   Zn3   S    
C218  H158  S    
C22   C134  A    
O4    Zn9   S    
C182  H68   S    
C161  H21   S    
O1    Zn1   S    
C116  O24   A    
O21   Zn12  S    
C24   C158  A    
C152  C217  S    
C149  C223  S    
C179  H66   S    
C107  O11   A    
C65   C73   A    
C214  H148  S    
C105  O9    A    
C147  C154  A    
C16   C53   T    
C106  O6    A    
C160  C201  S    
C36   C76   A    
C8    C24   S    
C210  H137  S    
C215  H155  S    
C109  O13   A    
C218  H159  S    
C4    C57   T    
C110  O18   A    
C40   C80   A    
C11   C27   S    
C204  H123  S    
C8    C61   T    
C10   C26   S    
C215  C216  S    
C187  H85   S    
C68   C106  S    
C14   C30   S    
C117  O25   A    
O41   Zn8   S    
C72   C88   A    
C202  H118  S    
C19   C131  A    
C171  H45   S    
C203  H126  S    
C17   C129  A    
O3    Zn7   S    
C197  H110  S    
C126  O34   A    
C208  H132  S    
C116  O50   A    
O1    Zn5   S    
C89   C97   S    
O34   Zn12  S    
C185  H81   S    
C180  H64   S    
C45   C85   A    
C193  H100  S    
C34   C90   A    
C178  H57   S    
C202  H119  S    
C177  H61   S    
C205  C206  S    
C220  H162  S    
C217  H161  S    
C123  O31   A    
O22   Zn11  S    
C201  H121  S    
C68   C76   A    
C40   C92   A    
O37   Zn4   S    
C211  H146  S    
O1    Zn12  S    
C127  O35   A    
C174  H47   S    
C184  H73   S    
C166  H28   S    
C183  C184  S    
C140  C161  S    
C80   Br8   S    
C172  H44   S    
C117  O47   A    
C70   C86   A    
C92   C100  S    
O4    Zn4   S    
C113  O21   A    
C132  C177  S    
C154  C197  S    
C163  H25   S    
O28   Zn9   S    
C224  H173  S    
C57   C114  S    
C144  C169  S    
C122  O44   A    
C91   C99   S    
C13   C56   T    
C164  H23   S    
C213  C214  S    
C199  H116  S    
C193  C194  S    
C200  H113  S    
C186  H77   S    
C129  C140  A    
C209  H140  S    
O15   Zn2   S    
C78   Br6   S    
C49   C122  S    
C71   C109  S    
C195  H105  S    
C170  H38   S    
C39   H7    S    
C177  C178  S    
O36   Zn10  S    
C40   H8    S    
O3    Zn14  S    
C53   C126  S    
C167  H35   S    
O1    Zn16  S    
C1    C17   S    
C141  C175  S    
C176  H54   S    
C47   C95   A    
C185  C186  S    
C90   C98   S    
C46   C86   A    
C35   C91   A    
