data_mof_unit_11599.cif
_audit_creation_date              2013-03-05T15:48:44-0500
_audit_creation_method            fapswitch 2.2
_symmetry_space_group_name_H-M    P1
_symmetry_Int_Tables_number       1
_space_group_crystal_system       triclinic
_cell_length_a                    10.751317
_cell_length_b                    12.992117
_cell_length_c                    11.729163
_cell_angle_alpha                 100.180817
_cell_angle_beta                  94.751693
_cell_angle_gamma                 90.86389
_cell_volume                      1606.28098958

loop_
_atom_site_label
_atom_site_type_symbol
_atom_site_description
_atom_site_fract_x
_atom_site_fract_y
_atom_site_fract_z
_atom_type_partial_charge
O1    O     O_R   0.506640 0.354460 0.582000 -0.605783
O2    O     O_R   0.490840 0.341410 0.386200 -0.525748
C1    C     C_R   0.499140 0.299097 0.478426 0.831499
O3    O     O_R   0.325590 0.506510 0.597900 -0.602888
O4    O     O_R   0.309790 0.493450 0.402100 -0.568077
C2    C     C_R   0.259669 0.497593 0.499394 0.778280
Cu1   Cu    Cu3+1 0.509350 0.507730 0.615930 0.991059
Cu2   Cu    Cu3+1 0.490650 0.492270 0.384070 1.016150
O5    O     O_R   0.509160 0.658590 0.613800 -0.545817
O6    O     O_R   0.493360 0.645540 0.418000 -0.607063
O7    O     O_R   0.690210 0.506550 0.597900 -0.554103
O8    O     O_R   0.674410 0.493490 0.402100 -0.579034
C3    C     C_R   0.501359 0.700915 0.521589 0.812245
C4    C     C_R   0.740035 0.497204 0.499932 0.790404
C5    C     C_3   0.078029 0.424347 0.582269 -0.372091
H1    H     H_    0.105742 0.342437 0.552455 0.184598
C6    C     C_3   0.935087 0.427585 0.586307 -0.325388
H2    H     H_    0.914107 0.461876 0.676140 0.221166
H3    H     H_    0.118729 0.639904 0.628591 0.198511
H4    H     H_    0.906026 0.642519 0.625080 0.251029
C7    C     C_3   0.076763 0.608183 0.539054 -0.391055
C8    C     C_3   0.059994 0.452518 0.375436 -0.345976
C9    C     C_3   0.121565 0.495782 0.499050 0.050577
H5    H     H_    0.089241 0.502007 0.313373 0.186891
H6    H     H_    0.092445 0.371958 0.346868 0.252445
C10   C     C_3   0.877803 0.494935 0.499229 0.009465
C11   C     C_3   0.932966 0.608056 0.537320 -0.421427
C12   C     C_3   0.916782 0.452796 0.374001 0.195874
H7    H     H_    0.883288 0.508587 0.316761 0.107762
H8    H     H_    0.107984 0.660671 0.480861 0.166519
C13   C     C_R   0.500175 0.814444 0.533948 -0.055542
C14   C     C_R   0.501336 0.185613 0.466151 -0.057573
C15   C     C_R   0.523198 0.015164 0.348364 -0.193273
C16   C     C_R   0.519062 0.123266 0.358523 -0.088508
C17   C     C_R   0.488002 0.139276 0.563746 -0.256080
C18   C     C_R   0.492350 0.031322 0.554395 0.166662
C19   C     C_R   0.509952 0.968771 0.445818 0.162122
C20   C     C_R   0.513875 0.860776 0.436399 -0.253584
C21   C     C_R   0.483141 0.876862 0.641701 -0.136283
C22   C     C_R   0.479301 0.984969 0.651896 -0.191475
H9    H     H_    0.527605 0.812972 0.352984 0.155040
H10   H     H_    0.471252 0.842166 0.717670 0.187041
H11   H     H_    0.537106 0.968010 0.264720 0.152018
H12   H     H_    0.531092 0.158005 0.282607 0.203197
N1    N     N_R   0.523430 0.519360 0.790130 -0.243700
N2    N     N_R   0.476570 0.480640 0.209880 -0.236970
C23   C     C_R   0.372544 0.412334 0.018394 -0.319772
C24   C     C_R   0.384324 0.418337 0.139973 0.550425
C25   C     C_R   0.557686 0.536605 0.157926 0.017629
C26   C     C_R   0.547755 0.531574 0.035069 0.004334
C27   C     C_R   0.453752 0.468765 0.964793 0.000012
C28   C     C_R   0.443002 0.463490 0.842254 -0.021517
C29   C     C_R   0.616256 0.581328 0.858777 0.552727
C30   C     C_R   0.629283 0.587771 0.980646 -0.323409
H13   H     H_    0.370743 0.414154 0.788540 0.137194
H14   H     H_    0.703248 0.636983 0.032208 0.172272
H15   H     H_    0.629874 0.585818 0.211865 0.132695
H16   H     H_    0.123343 0.450390 0.671785 0.186702
H17   H     H_    0.894743 0.658836 0.476474 0.158786
H18   H     H_    0.465615 0.032150 0.735582 0.152395
H19   H     H_    0.474022 0.187034 0.647125 0.158830
N3    N     N_R   0.703859 0.639782 0.808786 0.127654
O9    O     O_R   0.675598 0.733074 0.791592 -0.375342
O10   O     O_R   0.821189 0.617379 0.820372 -0.407764
H20   H     H_    0.299366 0.362817 0.965950 0.178717
N4    N     N_R   0.295219 0.358715 0.187095 0.116891
O11   O     O_R   0.177845 0.367734 0.154659 -0.395507
O12   O     O_R   0.328923 0.270880 0.216800 -0.361709
H21   H     H_    0.893226 0.347149 0.568323 0.201920
N5    N     N_R   0.861158 0.348868 0.323585 0.139869
O13   O     O_R   0.784249 0.337803 0.230260 -0.328585
O14   O     O_R   0.895353 0.265914 0.364586 -0.368569

loop_
_geom_bond_atom_site_label_1
_geom_bond_atom_site_label_2
_geom_bond_distance
_ccdc_geom_bond_type
C6    H2    1.111768 S    
O1    C1    1.293369 A    
O4    Cu2   1.973285 S    
N4    O12   1.298867 A    
C28   H13   1.082804 S    
C6    H21   1.109645 S    
C19   C20   1.389384 A    
C22   H18   1.083892 S    
H4    C11   1.110999 S    
C5    H16   1.113060 S    
C29   N3    1.426522 S    
C10   C12   1.567607 S    
C23   C24   1.409306 A    
N1    C28   1.368910 A    
C13   C20   1.400677 A    
N3    O10   1.300418 A    
Cu2   O8    1.968974 S    
C5    C9    1.554356 S    
O2    C1    1.294616 A    
C7    C11   1.544433 S    
C25   H15   1.082641 S    
Cu1   Cu2   2.681729 S    
C17   H19   1.084735 S    
C11   H17   1.113323 S    
C29   C30   1.412116 A    
C4    C10   1.482609 S    
Cu1   O7    1.973286 S    
O6    C3    1.293464 A    
N2    C25   1.373367 A    
C10   C11   1.552090 S    
N3    O9    1.299784 A    
C23   H20   1.084388 S    
O1    Cu1   1.959767 S    
O3    Cu1   1.968976 S    
O4    C2    1.294841 A    
C2    C9    1.484298 S    
Cu1   N1    2.014800 S    
O3    C2    1.290421 A    
C12   H7    1.116090 S    
C8    C12   1.538484 S    
C13   C21   1.403210 A    
C15   C19   1.399311 A    
C15   C16   1.390090 A    
C21   H10   1.082880 S    
C8    H5    1.113321 S    
C7    C9    1.549572 S    
C1    C14   1.456607 S    
O7    C4    1.294875 A    
C30   H14   1.084073 S    
N5    O14   1.301485 A    
C6    C10   1.554384 S    
N1    C29   1.380569 A    
C27   C28   1.421699 A    
C15   H11   1.083870 S    
N2    C24   1.384757 A    
C26   C30   1.395351 A    
N5    O13   1.301317 A    
N4    O11   1.300619 A    
C20   H9    1.084728 S    
Cu2   O6    1.959767 S    
C25   C26   1.425902 A    
C7    H8    1.113186 S    
O2    Cu2   1.964590 S    
C21   C22   1.389931 A    
Cu1   O5    1.964590 S    
C16   H12   1.082902 S    
O5    C3    1.294526 A    
C8    C9    1.548542 S    
C18   C19   1.413082 A    
C18   C22   1.399180 A    
C23   C27   1.389118 A    
C17   C18   1.389178 A    
C26   C27   1.402172 A    
Cu2   N2    2.014685 S    
C24   N4    1.428265 S    
C5    C6    1.542437 S    
C3    C13   1.456720 S    
C12   N5    1.471489 S    
C14   C17   1.400549 A    
C5    H1    1.113025 S    
O8    C4    1.289236 A    
H3    C7    1.113194 S    
C8    H6    1.111693 S    
C14   C16   1.403243 A    
