data_mof_unit_67951.cif
_audit_creation_date              2012-12-10T20:25:44-0500
_audit_creation_method            fapswitch 2.2
_symmetry_space_group_name_H-M    P1
_symmetry_Int_Tables_number       1
_space_group_crystal_system       triclinic
_cell_length_a                    8.565862
_cell_length_b                    10.754035
_cell_length_c                    9.875638
_cell_angle_alpha                 90.311248
_cell_angle_beta                  98.768507
_cell_angle_gamma                 90.982155
_cell_volume                      898.925471478

loop_
_atom_site_label
_atom_site_type_symbol
_atom_type_description
_atom_site_fract_x
_atom_site_fract_y
_atom_site_fract_z
_atom_type_partial_charge
C1    C     C_R   0.497377 0.260189 0.499488 0.916594
C2    C     C_R   0.368178 0.464170 0.911332 0.041633
C3    C     C_3   0.282429 0.342108 0.893058 -0.507773
C4    C     C_R   0.201139 0.498893 0.464039 0.931733
C5    C     C_3   0.283019 0.341634 0.047456 0.313812
C6    C     C_R   0.498612 0.739829 0.500028 0.879807
C7    C     C_R   0.798622 0.496186 0.535866 0.975555
C8    C     C_2   0.035737 0.497860 0.444759 -0.410367
C9    C     C_2   0.963868 0.492487 0.554890 -0.346788
C10   C     C_R   0.493590 0.064271 0.621216 -0.084669
C11   C     C_R   0.482444 0.128513 0.498175 -0.037673
C12   C     C_R   0.450162 0.934121 0.373683 -0.203302
C13   C     C_R   0.449797 0.062972 0.373459 -0.245165
C14   C     C_3   0.895638 0.598714 0.959396 0.105704
C15   C     C_3   0.954480 0.722861 0.027159 -0.372784
C16   C     C_3   0.122971 0.714624 0.102241 -0.894229
C17   C     C_3   0.094185 0.269797 0.176825 0.092044
C18   C     C_3   0.037368 0.146453 0.106944 -0.326136
C19   C     C_3   0.992329 0.053635 0.210665 -0.974857
C20   C     C_3   0.847534 0.917742 0.655299 0.086837
C21   C     C_3   0.922979 0.804624 0.599997 -0.330078
C22   C     C_3   0.029045 0.841420 0.495551 -0.950394
C23   C     C_R   0.485147 0.871209 0.498557 -0.105756
C24   C     C_R   0.497738 0.937657 0.620947 -0.047779
C25   C     C_3   0.606672 0.934969 0.755684 0.762954
C26   C     C_3   0.596963 0.078001 0.758178 0.070177
C27   C     C_R   0.368641 0.463572 0.053187 0.163006
C28   C     C_R   0.621981 0.551886 0.089125 -0.249587
C29   C     C_R   0.624318 0.551213 0.943746 0.602778
Cl1   Cl    Cl    0.507903 0.866147 0.884319 -0.654216
Cl2   Cl    Cl    0.772713 0.170802 0.757187 -0.699096
H1    H     H_    0.973636 0.504200 0.340495 0.176210
H2    H     H_    0.974991 0.573719 0.884827 0.173457
H3    H     H_    0.905745 0.522073 0.035444 0.147586
H4    H     H_    0.952210 0.795703 0.947973 0.286653
H5    H     H_    0.875928 0.751763 0.100697 0.224135
H6    H     H_    0.129678 0.641348 0.181015 0.287740
H7    H     H_    0.159773 0.804759 0.153598 0.264558
H8    H     H_    0.205125 0.693510 0.028776 0.283533
H9    H     H_    0.996464 0.307266 0.225938 0.163374
H10   H     H_    0.194975 0.256314 0.260754 0.139415
H11   H     H_    0.932339 0.163175 0.029055 0.286479
H12   H     H_    0.162703 0.350260 0.832380 0.234623
H13   H     H_    0.131561 0.106447 0.054989 0.225095
H14   H     H_    0.098184 0.030491 0.285251 0.273130
H15   H     H_    0.944067 0.967554 0.156628 0.284531
H16   H     H_    0.900457 0.092369 0.266269 0.275095
H17   H     H_    0.945528 0.978993 0.705178 0.212895
H18   H     H_    0.780238 0.968517 0.568395 0.161474
H19   H     H_    0.993825 0.754771 0.686011 0.239992
H20   H     H_    0.828118 0.741558 0.549581 0.218725
H21   H     H_    0.955225 0.876972 0.402416 0.273270
H22   H     H_    0.093064 0.759181 0.466232 0.268663
H23   H     H_    0.354844 0.268065 0.856950 0.176428
H24   H     H_    0.117413 0.913627 0.538529 0.277369
H25   H     H_    0.356024 0.266340 0.100715 0.067374
H26   H     H_    0.025948 0.487691 0.659156 0.174558
H27   H     H_    0.431128 0.110398 0.276137 0.165385
H28   H     H_    0.430811 0.884822 0.276466 0.197750
H29   H     H_    0.528543 0.112304 0.837062 0.135542
H30   H     H_    0.717391 0.593867 0.159316 0.159354
N1    N     N_R   0.498950 0.499140 0.142680 -0.149938
N2    N     N_R   0.498950 0.499180 0.857030 -0.126364
O1    O     O_R   0.500020 0.316790 0.614690 -0.585469
O2    O     O_3   0.129086 0.357520 0.079490 -0.638747
O3    O     O_3   0.756735 0.878629 0.756541 -0.608645
O4    O     O_R   0.500000 0.316760 0.385350 -0.654198
O5    O     O_R   0.271760 0.500010 0.587850 -0.611647
O6    O     O_R   0.271740 0.499970 0.358500 -0.627039
O7    O     O_R   0.500000 0.683240 0.614650 -0.547303
O8    O     O_R   0.499980 0.683210 0.385310 -0.627257
O9    O     O_R   0.728260 0.500030 0.641500 -0.558865
O10   O     O_R   0.728240 0.499990 0.412150 -0.630385
O11   O     O_3   0.741834 0.612034 0.885067 -0.570241
Zn1   Zn    Zn3+2 0.500010 0.500020 0.653130 1.040687
Zn2   Zn    Zn3+2 0.499990 0.499980 0.346870 0.939033

loop_
_geom_bond_atom_site_label_1
_geom_bond_atom_site_label_2
_ccdc_geom_bond_type
C14   H3    S    
C23   C24   A    
C19   H14   S    
O10   Zn2   S    
C25   Cl1   S    
C20   H18   S    
C29   O11   S    
C27   N1    A    
C18   H13   S    
C8    C9    D    
C5    H25   S    
C17   O2    S    
C4    O5    A    
C1    C11   S    
C5    C27   S    
C16   H6    S    
C4    C8    S    
C2    C27   A    
N1    Zn2   S    
C28   H30   S    
C10   C26   S    
C14   H2    S    
C29   N2    A    
C17   C18   S    
C25   C26   S    
C19   H15   S    
C26   Cl2   S    
C7    O10   A    
C20   H17   S    
C21   C22   S    
C24   C25   S    
O5    Zn1   S    
C12   C13   A    
C11   C13   A    
C12   C23   A    
C3    H12   S    
C22   H24   S    
N2    Zn1   S    
O9    Zn1   S    
C6    C23   S    
C14   O11   S    
C15   H4    S    
C28   C29   A    
C1    O4    A    
O1    Zn1   S    
C2    C3    S    
C22   H22   S    
C9    H26   S    
C18   H11   S    
O8    Zn2   S    
C3    H23   S    
C19   H16   S    
C17   H10   S    
C10   C11   A    
C22   H21   S    
C16   H8    S    
C15   C16   S    
C8    H1    S    
C1    O1    A    
C15   H5    S    
C21   H20   S    
C20   C21   S    
O7    Zn1   S    
O6    Zn2   S    
C5    O2    S    
C18   C19   S    
C20   O3    S    
C7    O9    A    
C7    C9    S    
C2    N2    A    
C4    O6    A    
C13   H27   S    
C21   H19   S    
C10   C24   A    
C6    O7    A    
C14   C15   S    
C12   H28   S    
C26   H29   S    
C25   O3    S    
O4    Zn2   S    
C16   H7    S    
C6    O8    A    
C3    C5    S    
C17   H9    S    
C28   N1    A    
