data_mof_unit_21945.cif
_audit_creation_date              2012-12-11T15:23:34-0500
_audit_creation_method            fapswitch 2.2
_symmetry_space_group_name_H-M    P1
_symmetry_Int_Tables_number       1
_space_group_crystal_system       triclinic
_cell_length_a                    17.357391
_cell_length_b                    24.344115
_cell_length_c                    15.001129
_cell_angle_alpha                 89.830897
_cell_angle_beta                  125.46687
_cell_angle_gamma                 90.214606
_cell_volume                      5162.5489821

loop_
_atom_site_label
_atom_site_type_symbol
_atom_type_description
_atom_site_fract_x
_atom_site_fract_y
_atom_site_fract_z
_atom_type_partial_charge
C1    C     C_R   0.311303 0.374993 0.909185 -0.126739
C2    C     C_R   0.684991 0.370284 0.090934 -0.125514
C3    C     C_R   0.852132 0.847834 0.910048 -0.124535
C4    C     C_R   0.181287 0.866419 0.090768 -0.128107
C5    C     C_R   0.382361 0.682856 0.999000 0.042300
C6    C     C_R   0.684691 0.642945 0.002359 0.042528
C7    C     C_R   0.880802 0.182616 0.999160 0.041104
C8    C     C_R   0.119897 0.183168 0.001148 0.047495
C9    C     C_R   0.568844 0.499941 0.366890 0.048242
C10   C     C_R   0.517215 0.499743 0.690857 0.044975
C11   C     C_R   0.060970 0.999957 0.363948 0.041213
C12   C     C_R   0.040038 0.000713 0.713856 0.043927
C13   C     C_R   0.200940 0.499538 0.634348 0.138541
C14   C     C_R   0.820430 0.498112 0.336069 0.139798
C15   C     C_R   0.702168 0.998868 0.633466 0.132927
C16   C     C_R   0.325302 0.000258 0.310679 0.137601
C17   C     C_2   0.969731 0.458582 0.395975 -0.113535
C18   C     C_2   0.071936 0.455201 0.471828 -0.117503
C19   C     C_2   0.476849 0.959102 0.379669 -0.112756
C20   C     C_2   0.577881 0.954727 0.465593 -0.113733
C21   C     C_2   0.921740 0.496621 0.410027 -0.202929
C22   C     C_2   0.121781 0.500796 0.520334 -0.195144
C23   C     C_2   0.426933 0.000780 0.380572 -0.194943
C24   C     C_2   0.628465 0.999840 0.516985 -0.195665
C25   C     C_R   0.287859 0.764751 0.900023 -0.171367
C26   C     C_R   0.839882 0.689600 0.102080 -0.170083
C27   C     C_R   0.788647 0.265654 0.900607 -0.170440
C28   C     C_R   0.211373 0.267021 0.100042 -0.171260
C29   C     C_R   0.737719 0.308993 0.900932 -0.167732
C30   C     C_R   0.258774 0.312833 0.099870 -0.166799
C31   C     C_R   0.233506 0.805798 0.900282 -0.170638
C32   C     C_R   0.890503 0.733334 0.101803 -0.171680
C33   C     C_R   0.754512 0.325740 0.000099 0.147434
C34   C     C_R   0.239947 0.331935 0.000774 0.143737
C35   C     C_R   0.249543 0.821364 0.999589 0.150004
C36   C     C_R   0.859427 0.758739 0.002315 0.143593
C37   C     C_R   0.836371 0.308186 0.099186 -0.170614
C38   C     C_R   0.159585 0.312775 0.901779 -0.167420
C39   C     C_R   0.333067 0.805520 0.098660 -0.172827
C40   C     C_R   0.792623 0.732281 0.903504 -0.172058
C41   C     C_R   0.387599 0.764610 0.098392 -0.170260
C42   C     C_R   0.742261 0.688359 0.903861 -0.168342
C43   C     C_R   0.887557 0.265025 0.098909 -0.168840
C44   C     C_R   0.112075 0.267004 0.901861 -0.170894
C45   C     C_R   0.442123 0.650911 0.090324 -0.124259
C46   C     C_R   0.595513 0.630000 0.910696 -0.124993
C47   C     C_R   0.941304 0.150721 0.090399 -0.123345
C48   C     C_R   0.058455 0.151360 0.910104 -0.138951
C49   C     C_R   0.357594 0.739654 0.999102 0.143171
C50   C     C_R   0.758505 0.671668 0.002896 0.147658
C51   C     C_R   0.856520 0.239674 0.999546 0.143163
C52   C     C_R   0.144349 0.240688 0.001032 0.142200
C53   C     C_R   0.580708 0.549900 0.603425 -0.170153
C54   C     C_R   0.600463 0.549955 0.526766 -0.172249
C55   C     C_R   0.092294 0.051092 0.614683 -0.169942
C56   C     C_R   0.097542 0.050822 0.526405 -0.171634
C57   C     C_R   0.598827 0.500154 0.479311 0.141516
C58   C     C_R   0.561021 0.499996 0.633127 0.150967
C59   C     C_R   0.092627 0.000737 0.477454 0.143566
C60   C     C_R   0.082154 0.001281 0.653744 0.146646
C61   C     C_R   0.601700 0.450406 0.528193 -0.171894
C62   C     C_R   0.581991 0.450304 0.604883 -0.171207
C63   C     C_R   0.103420 0.951331 0.531692 -0.171872
C64   C     C_R   0.098835 0.951658 0.620615 -0.168816
C65   C     C_R   0.551696 0.454066 0.303998 -0.140389
C66   C     C_R   0.494888 0.453850 0.725827 -0.130091
C67   C     C_R   0.046178 0.953875 0.301794 -0.124119
C68   C     C_R   0.007707 0.954587 0.737459 -0.124482
C69   C     C_R   0.246329 0.545209 0.697393 -0.147385
C70   C     C_R   0.765791 0.544517 0.289328 -0.147028
C71   C     C_R   0.747102 0.044802 0.696352 -0.146610
C72   C     C_R   0.268516 0.046127 0.269973 -0.144689
C73   C     C_R   0.549146 0.545474 0.302034 -0.121795
C74   C     C_R   0.495483 0.545358 0.726450 -0.130823
C75   C     C_R   0.045098 0.045531 0.300266 -0.124213
C76   C     C_R   0.015930 0.046234 0.747723 -0.128106
C77   C     C_R   0.247631 0.453756 0.697330 -0.127890
C78   C     C_R   0.763641 0.452914 0.287003 -0.134564
C79   C     C_R   0.747701 0.953271 0.697805 -0.111602
C80   C     C_R   0.268328 0.954067 0.274475 -0.128422
C81   C     C_R   0.351381 0.651043 0.907769 -0.125166
C82   C     C_R   0.687594 0.627900 0.093235 -0.123827
C83   C     C_R   0.850531 0.150912 0.907853 -0.122911
C84   C     C_R   0.149541 0.151159 0.092070 -0.129447
C85   C     C_R   0.402739 0.375111 0.092516 -0.125344
C86   C     C_R   0.592510 0.368224 0.908538 -0.124051
C87   C     C_R   0.943216 0.848044 0.092547 -0.123404
C88   C     C_R   0.088842 0.864831 0.908382 -0.130229
C89   C     C_R   0.313065 0.361961 0.000757 0.041071
C90   C     C_R   0.681397 0.354840 0.999915 0.041671
C91   C     C_R   0.882687 0.816073 0.001546 0.041654
C92   C     C_R   0.176470 0.849877 0.999665 0.044783
H1    H     H_    0.253547 0.369934 0.824183 0.092849
H2    H     H_    0.740660 0.362034 0.174996 0.084359
H3    H     H_    0.813337 0.834454 0.825931 0.084058
H4    H     H_    0.234287 0.855594 0.174393 0.082743
H5    H     H_    0.956697 0.528358 0.472199 0.134806
H6    H     H_    0.092285 0.540881 0.484757 0.132664
H7    H     H_    0.460020 0.035490 0.435686 0.131799
H8    H     H_    0.604144 0.039988 0.478793 0.131540
H9    H     H_    0.267657 0.749120 0.821851 0.105417
H10   H     H_    0.859325 0.674246 0.180231 0.106876
H11   H     H_    0.767552 0.249515 0.822422 0.104915
H12   H     H_    0.234205 0.249777 0.178203 0.104956
H13   H     H_    0.679994 0.325263 0.823013 0.104208
H14   H     H_    0.316234 0.329135 0.177908 0.107477
H15   H     H_    0.174453 0.821232 0.822351 0.103170
H16   H     H_    0.946681 0.750271 0.179853 0.105528
H17   H     H_    0.856157 0.323567 0.177351 0.102571
H18   H     H_    0.138910 0.329018 0.823693 0.107504
H19   H     H_    0.352259 0.820581 0.176791 0.102692
H20   H     H_    0.771765 0.748435 0.825306 0.105435
H21   H     H_    0.446038 0.748941 0.176427 0.105069
H22   H     H_    0.685052 0.671724 0.825984 0.104878
H23   H     H_    0.944420 0.248469 0.176966 0.104342
H24   H     H_    0.056588 0.249787 0.823733 0.104861
H25   H     H_    0.573759 0.589048 0.631866 0.103225
H26   H     H_    0.605622 0.589149 0.496558 0.104957
H27   H     H_    0.086479 0.090336 0.643734 0.107341
H28   H     H_    0.095553 0.089948 0.491022 0.105681
H29   H     H_    0.487448 0.663948 0.174681 0.083866
H30   H     H_    0.565651 0.642342 0.828078 0.083457
H31   H     H_    0.986711 0.163821 0.174701 0.082248
H32   H     H_    0.011937 0.165207 0.826375 0.082077
H33   H     H_    0.570470 0.412073 0.331630 0.084847
H34   H     H_    0.488666 0.412319 0.698305 0.081835
H35   H     H_    0.062689 0.911714 0.329067 0.084244
H36   H     H_    0.003680 0.913483 0.709360 0.082982
H37   H     H_    0.235231 0.587289 0.669099 0.090199
H38   H     H_    0.786826 0.586165 0.318085 0.086074
H39   H     H_    0.737325 0.086607 0.666952 0.090492
H40   H     H_    0.290086 0.088741 0.286015 0.096124
H41   H     H_    0.564553 0.587961 0.327133 0.082446
H42   H     H_    0.489588 0.587019 0.699390 0.081718
H43   H     H_    0.060928 0.087944 0.325725 0.083347
H44   H     H_    0.027214 0.088994 0.739702 0.092551
H45   H     H_    0.238931 0.411881 0.669165 0.082803
H46   H     H_    0.781743 0.410900 0.314503 0.086760
H47   H     H_    0.739585 0.911239 0.670576 0.081741
H48   H     H_    0.290883 0.912657 0.303185 0.085371
H49   H     H_    0.313028 0.664317 0.823564 0.084628
H50   H     H_    0.743182 0.635888 0.177472 0.087614
H51   H     H_    0.812153 0.164319 0.823723 0.083428
H52   H     H_    0.187143 0.164753 0.175924 0.080746
N1    N     N_R   0.395440 0.396300 0.944370 -0.041963
N2    N     N_R   0.604560 0.396300 0.055630 -0.040170
N3    N     N_R   0.895440 0.896300 0.944370 -0.040260
N4    N     N_R   0.104560 0.896300 0.055630 -0.038042
N5    N     N_R   0.449890 0.602500 0.055780 -0.040451
N6    N     N_R   0.550110 0.602500 0.944220 -0.039751
N7    N     N_R   0.949890 0.102500 0.055780 -0.039059
N8    N     N_R   0.050110 0.102500 0.944220 -0.037087
N9    N     N_R   0.525090 0.470990 0.205640 -0.038457
N10   N     N_R   0.474910 0.470990 0.794360 -0.036660
N11   N     N_R   0.025090 0.970990 0.205640 -0.039665
N12   N     N_R   0.974910 0.970990 0.794360 -0.039120
N13   N     N_R   0.320240 0.527820 0.794510 -0.040363
N14   N     N_R   0.679760 0.527820 0.205490 -0.038826
N15   N     N_R   0.820240 0.027820 0.794510 -0.041666
N16   N     N_R   0.179760 0.027820 0.205490 -0.041519
N17   N     N_R   0.524580 0.527810 0.205160 -0.038709
N18   N     N_R   0.475420 0.527810 0.794840 -0.036764
N19   N     N_R   0.024580 0.027810 0.205160 -0.039800
N20   N     N_R   0.975420 0.027810 0.794840 -0.039871
N21   N     N_R   0.320750 0.470990 0.794990 -0.044295
N22   N     N_R   0.679250 0.470990 0.205010 -0.040221
N23   N     N_R   0.820750 0.970990 0.794990 -0.045544
N24   N     N_R   0.179250 0.970990 0.205010 -0.042583
N25   N     N_R   0.393580 0.602500 0.942610 -0.039847
N26   N     N_R   0.606420 0.602500 0.057390 -0.040226
N27   N     N_R   0.893580 0.102500 0.942610 -0.038437
N28   N     N_R   0.106420 0.102500 0.057390 -0.036615
N29   N     N_R   0.451750 0.396300 0.057540 -0.041730
N30   N     N_R   0.548250 0.396300 0.942460 -0.039910
N31   N     N_R   0.951750 0.896300 0.057540 -0.039824
N32   N     N_R   0.048250 0.896300 0.942460 -0.037679
Ni1   Ni    Ni4+2 0.435420 0.434250 0.870220 0.211590
Ni2   Ni    Ni4+2 0.564580 0.434250 0.129780 0.210598
Ni3   Ni    Ni4+2 0.935420 0.934250 0.870220 0.208748
Ni4   Ni    Ni4+2 0.064580 0.934250 0.129780 0.208746
Ni5   Ni    Ni4+2 0.563400 0.564580 0.128670 0.209462
Ni6   Ni    Ni4+2 0.436600 0.564580 0.871330 0.211024
Ni7   Ni    Ni4+2 0.063400 0.064580 0.128670 0.207450
Ni8   Ni    Ni4+2 0.936600 0.064580 0.871330 0.207813
H53   H     H_    0.607756 0.411232 0.499103 0.105388
H54   H     H_    0.576114 0.411119 0.634566 0.103559
H55   H     H_    0.106302 0.912064 0.500365 0.105695
H56   H     H_    0.099292 0.912681 0.655675 0.104450
H57   H     H_    0.429883 0.370268 0.177464 0.093524
H58   H     H_    0.561944 0.355862 0.825808 0.083338
H59   H     H_    0.988834 0.835005 0.176917 0.083866
H60   H     H_    0.056200 0.851237 0.825771 0.082492
H61   H     H_    0.933281 0.426602 0.334458 0.122808
H62   H     H_    0.101515 0.414611 0.501777 0.116375
H63   H     H_    0.441475 0.924143 0.325664 0.120046
H64   H     H_    0.603931 0.914076 0.499468 0.115401

loop_
_geom_bond_atom_site_label_1
_geom_bond_atom_site_label_2
_ccdc_geom_bond_type
C25   C31   A    
C23   H7    S    
C55   C56   A    
C82   N26   A    
C3    N3    A    
C6    C82   A    
C87   C91   A    
C18   H62   S    
N21   Ni1   S    
C7    C83   A    
C19   C20   S    
C16   C72   A    
C82   H50   S    
C5    C49   S    
C76   H44   S    
C39   C41   A    
C55   H27   S    
C53   C54   A    
N16   N24   A    
C26   C32   A    
C12   C68   A    
N4    N32   A    
C22   H6    S    
C15   C71   A    
C32   C36   A    
C14   C21   S    
C3    C91   A    
C10   C58   S    
C77   H45   S    
N18   Ni6   S    
C26   C50   A    
C85   H57   S    
N8    N28   A    
N12   Ni3   S    
C75   H43   S    
C27   C29   A    
C84   H52   S    
C77   N21   A    
C4    N4    A    
C29   C33   A    
C70   H38   S    
N7    N27   A    
N2    Ni2   S    
C75   N19   A    
C27   H11   S    
C2    C90   A    
C65   N9    A    
C43   H23   S    
C5    C81   A    
C4    H4    S    
C17   H61   S    
C42   H22   S    
N32   Ni3   S    
C15   C79   A    
C88   C92   A    
C27   C51   A    
C83   N27   A    
N2    N30   A    
C69   N13   A    
N22   Ni2   S    
C81   N25   A    
N15   Ni8   S    
C38   H18   S    
C68   H36   S    
N16   Ni7   S    
C37   H17   S    
C28   C52   A    
C62   H54   S    
C35   C92   S    
C44   C52   A    
C39   H19   S    
N4    Ni4   S    
C8    C84   A    
C55   C60   A    
C30   H14   S    
N5    Ni5   S    
C14   C70   A    
C29   H13   S    
N3    N31   A    
C9    C73   A    
C11   C59   S    
C78   H46   S    
C41   C49   A    
C11   C67   A    
C72   H40   S    
C25   C49   A    
C10   C66   A    
C13   C77   A    
C78   N22   A    
C86   H58   S    
C30   C34   A    
N19   Ni7   S    
C45   N5    A    
C20   C24   D    
N27   Ni8   S    
C2    H2    S    
C9    C57   S    
C40   H20   S    
C79   H47   S    
C86   C90   A    
N13   N21   A    
C74   N18   A    
C85   C89   A    
C19   C23   D    
C34   C38   A    
N11   N19   A    
N24   Ni4   S    
C5    C45   A    
C73   N17   A    
C16   C80   A    
C33   C37   A    
C66   H34   S    
N9    N17   A    
C86   N30   A    
C65   H33   S    
C37   C43   A    
C35   C39   A    
C8    C48   A    
C38   C44   A    
C19   H63   S    
N20   Ni8   S    
C67   H35   S    
C21   H5    S    
C28   H12   S    
C87   H59   S    
C85   N29   A    
C36   C40   A    
C53   C58   A    
C61   H53   S    
C17   C18   S    
C6    C50   S    
C57   C61   A    
N30   Ni1   S    
C44   H24   S    
C64   H56   S    
C58   C62   A    
C42   C50   A    
C36   C91   S    
C1    H1    S    
C15   C24   S    
C46   N6    A    
C47   N7    A    
N23   Ni3   S    
C16   C23   S    
C63   H55   S    
C48   N8    A    
N26   Ni5   S    
C32   H16   S    
N5    N25   A    
C76   N20   A    
N8    Ni8   S    
C1    N1    A    
C79   N23   A    
C12   C76   A    
N6    Ni6   S    
C87   N31   A    
N11   Ni4   S    
N14   N22   A    
C66   N10   A    
C88   H60   S    
C8    C52   S    
N9    Ni2   S    
C1    C89   A    
C6    C46   A    
C18   C22   D    
C31   H15   S    
N10   N18   A    
C73   H41   S    
C40   C42   A    
C84   N28   A    
C88   N32   A    
C80   N24   A    
C48   H32   S    
C3    H3    S    
C24   H8    S    
N7    Ni7   S    
C47   H31   S    
C56   H28   S    
C67   N11   A    
C2    N2    A    
C71   N15   A    
C59   C63   A    
C72   N16   A    
C56   C59   A    
C60   C64   A    
C45   H29   S    
C54   H26   S    
N1    N29   A    
C41   H21   S    
C7    C51   S    
C28   C30   A    
C11   C75   A    
C33   C90   S    
C26   H10   S    
C83   H51   S    
C10   C74   A    
N28   Ni7   S    
C25   H9    S    
N6    N26   A    
C13   C69   A    
N29   Ni2   S    
C43   C51   A    
C74   H42   S    
C31   C35   A    
C81   H49   S    
N15   N23   A    
C13   C22   S    
C53   H25   S    
C14   C78   A    
N17   Ni5   S    
C61   C62   A    
N14   Ni5   S    
C9    C65   A    
N25   Ni6   S    
C34   C89   S    
N31   Ni4   S    
C71   H39   S    
C63   C64   A    
C12   C60   S    
N3    Ni3   S    
N12   N20   A    
C69   H37   S    
N13   Ni6   S    
N10   Ni1   S    
N1    Ni1   S    
C46   H30   S    
C80   H48   S    
C70   N14   A    
C68   N12   A    
C20   H64   S    
C7    C47   A    
C4    C92   A    
C54   C57   A    
C17   C21   D    
