data_mof_unit_13294.cif
_audit_creation_date              2012-12-11T17:19:17-0500
_audit_creation_method            fapswitch 2.2
_symmetry_space_group_name_H-M    P1
_symmetry_Int_Tables_number       1
_space_group_crystal_system       triclinic
_cell_length_a                    14.644899
_cell_length_b                    7.263963
_cell_length_c                    13.478498
_cell_angle_alpha                 90.02274
_cell_angle_beta                  99.829061
_cell_angle_gamma                 89.991943
_cell_volume                      1412.79581629

loop_
_atom_site_label
_atom_site_type_symbol
_atom_type_description
_atom_site_fract_x
_atom_site_fract_y
_atom_site_fract_z
_atom_type_partial_charge
O1    O     O_R   0.648180 0.355050 0.151550 -0.533302
O2    O     O_R   0.351820 0.644950 0.848450 -0.533301
O3    O     O_R   0.851820 0.855050 0.348450 -0.533305
O4    O     O_R   0.148180 0.144950 0.651550 -0.533305
O5    O     O_R   0.835240 0.681980 0.154280 -0.536584
O6    O     O_R   0.164760 0.318020 0.845720 -0.536584
O7    O     O_R   0.664760 0.181980 0.345720 -0.536133
O8    O     O_R   0.335240 0.818020 0.654280 -0.536133
H1    H     H_    0.676011 0.950641 0.831024 0.130984
H2    H     H_    0.323989 0.049359 0.168976 0.130984
H3    H     H_    0.823974 0.489078 0.667839 0.130664
H4    H     H_    0.176026 0.510923 0.332161 0.130664
C1    C     C_R   0.863605 0.516103 0.133211 0.691068
C2    C     C_R   0.136395 0.483897 0.866789 0.691069
C3    C     C_R   0.636399 0.016182 0.366799 0.691216
C4    C     C_R   0.363601 0.983818 0.633201 0.691215
O9    O     O_R   0.647870 0.684600 0.139630 -0.537151
O10   O     O_R   0.352130 0.315400 0.860370 -0.537151
O11   O     O_R   0.852130 0.184600 0.360370 -0.536845
O12   O     O_R   0.147870 0.815400 0.639630 -0.536845
O13   O     O_R   0.663110 0.857440 0.333700 -0.533284
O14   O     O_R   0.336890 0.142560 0.666300 -0.533284
O15   O     O_R   0.836890 0.357440 0.166300 -0.533376
O16   O     O_R   0.163110 0.642560 0.833700 -0.533376
C5    C     C_R   0.615051 0.515973 0.113209 0.718216
C6    C     C_R   0.384949 0.484027 0.886791 0.718216
C7    C     C_R   0.884951 0.015992 0.386794 0.718585
C8    C     C_R   0.115049 0.984008 0.613206 0.718585
H5    H     H_    0.511835 0.962841 0.762914 0.116416
H6    H     H_    0.488165 0.037159 0.237086 0.116416
H7    H     H_    0.988159 0.485108 0.736425 0.116370
H8    H     H_    0.011841 0.514892 0.263575 0.116370
O17   O     O_3   0.755220 0.522230 0.313690 -0.375977
O18   O     O_3   0.244780 0.477770 0.686310 -0.375977
O19   O     O_3   0.744780 0.022230 0.186310 -0.376941
O20   O     O_3   0.255220 0.977770 0.813690 -0.376941
V1    V     V_3+5 0.749030 0.796100 0.238190 1.426216
V2    V     V_3+5 0.250970 0.203900 0.761810 1.426216
V3    V     V_3+5 0.750970 0.296100 0.261810 1.427672
V4    V     V_3+5 0.249030 0.703900 0.738190 1.427672
C9    C     C_1   0.966033 0.005368 0.466764 -0.192048
C10   C     C_1   0.033967 0.994632 0.533236 -0.192048
C11   C     C_1   0.533968 0.505343 0.033238 -0.193041
C12   C     C_1   0.466032 0.494657 0.966762 -0.193041
C13   C     C_R   0.560050 0.969767 0.710468 -0.200970
C14   C     C_R   0.439950 0.030233 0.289532 -0.200970
C15   C     C_R   0.939948 0.490547 0.788919 -0.200603
C16   C     C_R   0.060052 0.509453 0.211081 -0.200603
C17   C     C_R   0.654256 0.962852 0.750356 -0.096822
C18   C     C_R   0.345744 0.037148 0.249644 -0.096822
C19   C     C_R   0.845737 0.492611 0.748765 -0.097130
C20   C     C_R   0.154263 0.507389 0.251235 -0.097130
C21   C     C_R   0.720367 0.971422 0.687340 0.264035
C22   C     C_R   0.279633 0.028578 0.312659 0.264035
C23   C     C_R   0.779632 0.498882 0.811853 0.265883
C24   C     C_R   0.220368 0.501118 0.188147 0.265883
C25   C     C_R   0.691289 0.985993 0.582940 -0.176235
C26   C     C_R   0.308711 0.014007 0.417060 -0.176235
C27   C     C_R   0.808712 0.504406 0.916521 -0.175609
C28   C     C_R   0.191288 0.495594 0.083479 -0.175609
C29   C     C_R   0.595996 0.992987 0.540509 0.034062
C30   C     C_R   0.404004 0.007013 0.459491 0.034062
C31   C     C_R   0.904007 0.502606 0.959211 0.034180
C32   C     C_R   0.095993 0.497394 0.040789 0.034180
C33   C     C_R   0.529094 0.985031 0.605525 0.066466
C34   C     C_R   0.470906 0.014969 0.394475 0.066466
C35   C     C_R   0.970909 0.495316 0.894175 0.066862
C36   C     C_R   0.029091 0.504684 0.105825 0.066862
C37   C     C_R   0.566855 0.007756 0.434954 -0.143290
C38   C     C_R   0.433144 0.992244 0.565046 -0.143290
C39   C     C_R   0.933142 0.507416 0.065055 -0.144960
C40   C     C_R   0.066858 0.492584 0.934945 -0.144959
H9    H     H_    0.743828 0.991836 0.535495 0.088705
H10   H     H_    0.256172 0.008164 0.464505 0.088705
H11   H     H_    0.756168 0.509717 0.963976 0.087802
H12   H     H_    0.243832 0.490283 0.036024 0.087802
N1    N     N_3   0.183097 0.037023 0.269424 -0.654958
H13   H     H_    0.167307 0.919018 0.225427 0.224061
H14   H     H_    0.142202 0.032331 0.325837 0.220260
N2    N     N_3   0.816903 0.962977 0.730576 -0.654957
H15   H     H_    0.832692 0.080983 0.774573 0.224061
H16   H     H_    0.857798 0.967669 0.674163 0.220260
N3    N     N_3   0.316912 0.498327 0.231709 -0.655547
H17   H     H_    0.332613 0.624162 0.268293 0.224744
H18   H     H_    0.357801 0.489751 0.175405 0.219642
N4    N     N_3   0.683088 0.501673 0.768291 -0.655547
H19   H     H_    0.667387 0.375838 0.731707 0.224744
H20   H     H_    0.642199 0.510248 0.824595 0.219642

loop_
_geom_bond_atom_site_label_1
_geom_bond_atom_site_label_2
_ccdc_geom_bond_type
C26   C30   A    
C23   C27   A    
C9    C10   T    
O10   C6    A    
C5    C11   S    
C6    C12   S    
N1    H13   S    
C30   C38   A    
C18   C22   A    
O18   V4    S    
C32   C36   A    
O19   V1    S    
C14   C34   A    
O5    V1    S    
O12   V4    S    
N4    H20   S    
C34   C37   A    
C25   H9    S    
C33   C38   A    
O14   V2    S    
C1    O15   A    
C35   C40   A    
C2    O16   A    
H4    C20   S    
O17   V3    S    
O6    V2    S    
O11   C7    A    
O5    C1    A    
C22   N1    S    
O7    C3    A    
O8    C4    A    
H7    C15   S    
O1    C5    A    
H8    C16   S    
C15   C35   A    
O4    C8    A    
O3    C7    A    
N1    H14   S    
C3    C37   S    
C31   C35   A    
C30   C34   A    
C21   N2    S    
H1    C17   S    
N2    H16   S    
C21   C25   A    
N4    H19   S    
C15   C19   A    
O12   C8    A    
C28   H12   S    
C24   C28   A    
H5    C13   S    
C11   C12   T    
C29   C33   A    
O6    C2    A    
C7    C9    S    
N3    H17   S    
C13   C17   A    
C4    C38   S    
O2    C6    A    
O9    V1    S    
C16   C36   A    
O11   V3    S    
N3    H18   S    
O4    V2    S    
C13   C33   A    
H2    C18   S    
C27   H11   S    
C26   H10   S    
C24   N3    S    
C22   C26   A    
C29   C37   A    
C4    O14   A    
C2    C40   S    
H6    C14   S    
C31   C39   A    
N2    H15   S    
C25   C29   A    
C1    C39   S    
C14   C18   A    
C27   C31   A    
C28   C32   A    
O9    C5    A    
C23   N4    S    
O20   V2    S    
O10   V2    S    
C3    O13   A    
C36   C39   A    
C17   C21   A    
C8    C10   S    
O16   V4    S    
C19   C23   A    
C32   C40   A    
H3    C19   S    
O1    V3    S    
O2    V4    S    
C16   C20   A    
O13   V1    S    
O3    V1    S    
O7    V3    S    
O8    V4    S    
O15   V3    S    
C20   C24   A    
