data_mof_unit_9086.cif
_audit_creation_date              2012-12-10T20:42:41-0500
_audit_creation_method            fapswitch 2.2
_symmetry_space_group_name_H-M    P1
_symmetry_Int_Tables_number       1
_space_group_crystal_system       triclinic
_cell_length_a                    8.898198
_cell_length_b                    10.677705
_cell_length_c                    9.889153
_cell_angle_alpha                 89.557596
_cell_angle_beta                  89.913437
_cell_angle_gamma                 90.166159
_cell_volume                      939.558436201

loop_
_atom_site_label
_atom_site_type_symbol
_atom_type_description
_atom_site_fract_x
_atom_site_fract_y
_atom_site_fract_z
_atom_type_partial_charge
C1    C     C_R   0.503842 0.260274 0.500666 0.877176
C2    C     C_R   0.395902 0.431037 0.929740 0.191528
C3    C     C_3   0.228043 0.445402 0.927103 0.538630
C4    C     C_R   0.218808 0.500124 0.500054 0.932584
C5    C     C_3   0.229920 0.446130 0.081305 -0.542728
C6    C     C_R   0.506912 0.739847 0.499291 0.890390
C7    C     C_R   0.781225 0.500165 0.499961 0.921856
C8    C     C_1   0.065466 0.500214 0.500133 -0.185763
C9    C     C_1   0.934598 0.500226 0.499967 -0.191407
C10   C     C_R   0.487880 0.062317 0.619562 0.043250
C11   C     C_R   0.525731 0.129222 0.503747 -0.108102
C12   C     C_R   0.597321 0.938464 0.391561 0.177454
C13   C     C_R   0.593545 0.068867 0.394425 -0.209008
C14   C     C_3   0.145634 0.332742 0.865941 -0.903922
C15   C     C_3   0.669752 0.875387 0.272085 -0.867246
C16   C     C_R   0.528278 0.871879 0.499946 -0.079228
C17   C     C_R   0.487136 0.935108 0.616874 0.010208
C18   C     C_3   0.348808 0.926361 0.703315 0.272420
C19   C     C_3   0.350507 0.068530 0.706349 -0.440959
C20   C     C_R   0.395995 0.431600 0.072253 0.111728
C21   C     C_R   0.610559 0.558366 0.071176 -0.125728
C22   C     C_R   0.610435 0.558567 0.927425 -0.124114
H1    H     H_    0.636782 0.122728 0.309414 0.166279
H2    H     H_    0.022576 0.342872 0.880911 0.237397
H3    H     H_    0.168865 0.326489 0.756118 0.258897
H4    H     H_    0.749368 0.802359 0.307682 0.239160
H5    H     H_    0.582440 0.832920 0.206683 0.256520
H6    H     H_    0.734470 0.943133 0.208950 0.226684
H7    H     H_    0.220206 0.789085 0.651265 0.355674
H8    H     H_    0.076155 0.571595 0.893442 0.331259
H9    H     H_    0.196867 0.537400 0.125755 0.220338
H10   H     H_    0.175838 0.363188 0.129838 0.187712
H11   H     H_    0.367671 0.881218 0.803841 0.113704
H12   H     H_    0.253858 0.113369 0.653857 0.218952
H13   H     H_    0.376173 0.106463 0.808092 0.156010
H14   H     H_    0.698102 0.607948 0.124629 0.147608
H15   H     H_    0.697760 0.608430 0.872891 0.147644
H16   H     H_    0.182111 0.243959 0.914970 0.207884
N1    N     N_R   0.499010 0.499140 0.142800 -0.091593
N2    N     N_R   0.499010 0.499180 0.857150 -0.093119
O1    O     O_R   0.500020 0.316790 0.614690 -0.622492
O2    O     O_3   0.184118 0.560882 0.871054 -0.730222
O3    O     O_R   0.500000 0.316760 0.385350 -0.620072
O4    O     O_R   0.285350 0.500020 0.614650 -0.573364
O5    O     O_R   0.285340 0.499980 0.385310 -0.618138
O6    O     O_R   0.500000 0.683240 0.614650 -0.626396
O7    O     O_R   0.499980 0.683210 0.385310 -0.611465
O8    O     O_R   0.714660 0.500020 0.614690 -0.621447
O9    O     O_R   0.714650 0.499980 0.385350 -0.626690
O10   O     O_3   0.224334 0.880358 0.632113 -0.741322
Zn1   Zn    Zn3+2 0.500010 0.500020 0.653130 0.970558
Zn2   Zn    Zn3+2 0.499990 0.499980 0.346870 0.945021

loop_
_geom_bond_atom_site_label_1
_geom_bond_atom_site_label_2
_ccdc_geom_bond_type
C8    C9    T    
C3    O2    S    
O7    Zn2   S    
C14   H16   S    
N2    Zn1   S    
C4    O4    A    
C15   H5    S    
C21   N1    A    
C12   C15   S    
C10   C19   S    
C4    C8    S    
C5    H10   S    
C22   N2    A    
C7    O8    A    
O9    Zn2   S    
C17   C18   S    
C7    O9    A    
C21   H14   S    
C19   H13   S    
C21   C22   A    
C11   C13   A    
C13   H1    S    
C15   H6    S    
C3    C14   S    
O4    Zn1   S    
C1    O1    A    
O1    Zn1   S    
C2    C3    S    
H7    O10   S    
C14   H3    S    
C18   H11   S    
C5    C20   S    
O3    Zn2   S    
C10   C11   A    
C10   C17   A    
C2    C20   A    
C4    O5    A    
C2    N2    A    
C12   C13   A    
C18   O10   S    
C18   C19   S    
C6    O7    A    
C14   H2    S    
C7    C9    S    
C20   N1    A    
H8    O2    S    
C15   H4    S    
C6    O6    A    
O5    Zn2   S    
C5    H9    S    
C22   H15   S    
C6    C16   S    
O6    Zn1   S    
C1    O3    A    
O8    Zn1   S    
C12   C16   A    
N1    Zn2   S    
C16   C17   A    
C3    C5    S    
C19   H12   S    
C1    C11   S    
