data_mof_unit_47365.cif
_audit_creation_date              2012-12-10T18:16:27-0500
_audit_creation_method            fapswitch 2.2
_symmetry_space_group_name_H-M    P1
_symmetry_Int_Tables_number       1
_space_group_crystal_system       triclinic
_cell_length_a                    12.583649
_cell_length_b                    13.140925
_cell_length_c                    27.60947
_cell_angle_alpha                 91.032661
_cell_angle_beta                  102.813746
_cell_angle_gamma                 81.843322
_cell_volume                      4406.36162498

loop_
_atom_site_label
_atom_site_type_symbol
_atom_type_description
_atom_site_fract_x
_atom_site_fract_y
_atom_site_fract_z
_atom_type_partial_charge
C1    C     C_R   0.438347 0.691097 0.494141 0.911844
C2    C     C_R   0.581353 0.549586 0.033732 0.007254
C3    C     C_R   0.553715 0.367700 0.030326 0.056138
C4    C     C_R   0.501779 0.499033 0.594265 0.984458
C5    C     C_R   0.560316 0.461136 0.056540 0.078429
C6    C     C_R   0.609088 0.635344 0.063914 -0.077362
C7    C     C_R   0.590546 0.640141 0.112033 -0.158405
C8    C     C_R   0.556140 0.557540 0.132614 -0.046944
C9    C     C_R   0.544949 0.466415 0.105681 -0.050880
C10   C     C_R   0.517820 0.380758 0.127844 -0.026064
C11   C     C_R   0.502019 0.388193 0.176495 0.527471
C12   C     C_R   0.440611 0.462352 0.721212 -0.184662
C13   C     C_R   0.538743 0.561854 0.180947 0.533853
C14   C     C_R   0.408105 0.479754 0.267065 -0.066512
C15   C     C_R   0.404430 0.485608 0.317149 -0.172132
C16   C     C_R   0.562011 0.308425 0.507129 0.890822
C17   C     C_R   0.601118 0.493240 0.338736 -0.195568
C18   C     C_R   0.604579 0.486874 0.288970 -0.075231
C19   C     C_R   0.508241 0.480851 0.253038 0.285817
C20   C     C_R   0.569666 0.549461 0.981506 -0.001935
C21   C     C_R   0.571407 0.455474 0.955959 0.098569
C22   C     C_R   0.571457 0.363084 0.981415 0.048367
C23   C     C_R   0.547050 0.451442 0.750854 0.140539
C24   C     C_R   0.545177 0.641385 0.953789 -0.206957
C25   C     C_R   0.597590 0.265710 0.907747 -0.030880
C26   C     C_R   0.526323 0.282949 0.053388 -0.189497
C27   C     C_R   0.508334 0.289668 0.101289 -0.099359
C28   C     C_R   0.499494 0.498763 0.406083 0.857097
C29   C     C_R   0.589120 0.269210 0.957270 -0.232430
C30   C     C_R   0.690089 0.063478 0.577002 -0.228622
C31   C     C_R   0.600161 0.198915 0.517891 -0.183050
C32   C     C_R   0.326665 0.824389 0.438245 -0.257581
C33   C     C_R   0.321624 0.919048 0.415906 0.513854
C34   C     C_R   0.569682 0.454277 0.904531 -0.089960
C35   C     C_R   0.388410 0.989360 0.439826 -0.250289
C36   C     C_R   0.457447 0.967704 0.487883 0.056610
C37   C     C_R   0.455224 0.874139 0.511827 -0.009622
C38   C     C_R   0.532349 0.033532 0.511756 0.129573
C39   C     C_R   0.608716 0.001896 0.556786 0.011144
C40   C     C_R   0.557602 0.543147 0.826989 0.625409
C41   C     C_R   0.597446 0.913953 0.582662 -0.091850
C42   C     C_R   0.514373 0.854515 0.561787 -0.227929
C43   C     C_R   0.530322 0.132229 0.493158 -0.272234
C44   C     C_R   0.687445 0.161596 0.558007 0.347871
C45   C     C_R   0.555770 0.548585 0.877778 -0.178987
C46   C     C_R   0.398427 0.799503 0.484111 -0.191035
C47   C     C_R   0.089687 0.345308 0.429573 0.353540
C48   C     C_R   0.798077 0.634482 0.556338 0.072479
C49   C     C_R   0.897935 0.671931 0.562768 -0.187183
C50   C     C_R   0.976993 0.625287 0.538233 -0.197221
C51   C     C_R   0.958061 0.538205 0.508527 0.056459
C52   C     C_R   0.566307 0.360502 0.827900 0.610067
C53   C     C_R   0.852972 0.506656 0.501170 0.278395
C54   C     C_R   0.038369 0.482341 0.485525 -0.047566
C55   C     C_R   0.009781 0.400907 0.452479 0.035981
C56   C     C_R   0.537821 0.643228 0.902767 0.460446
C57   C     C_R   0.902791 0.376255 0.443842 -0.194378
C58   C     C_R   0.826781 0.427331 0.468267 -0.161885
C59   C     C_R   0.147711 0.501904 0.495538 -0.029946
C60   C     C_R   0.196445 0.369295 0.441723 -0.079009
C61   C     C_R   0.637544 0.456771 0.729655 0.471603
C62   C     C_R   0.619315 0.475914 0.678892 -0.168714
C63   C     C_R   0.421677 0.482175 0.670273 -0.048495
C64   C     C_2   0.306394 0.509157 0.643264 0.977032
C65   C     C_2   0.632050 0.163235 0.888278 1.023679
C66   C     C_2   0.665208 0.890012 0.633490 0.966701
C67   C     C_R   0.579508 0.358725 0.879851 -0.074809
C68   C     C_2   0.483334 0.777200 0.593327 0.970073
C69   C     C_2   0.671927 0.713238 0.049522 0.924566
C70   C     C_R   0.512377 0.487731 0.648382 -0.164967
C71   C     C_R   0.501013 0.493002 0.353273 -0.044979
H1    H     H_    0.513798 0.211669 0.034386 0.170971
H2    H     H_    0.387711 0.057752 0.418907 0.183801
H3    H     H_    0.260289 0.328206 0.425382 0.176849
H4    H     H_    0.876773 0.315254 0.419273 0.212993
H5    H     H_    0.176994 0.560438 0.520628 0.159863
H6    H     H_    0.735100 0.671789 0.574279 0.177012
H7    H     H_    0.050058 0.660984 0.541694 0.145600
H8    H     H_    0.913191 0.738208 0.585734 0.208975
H9    H     H_    0.748326 0.401385 0.461298 0.205986
H10   H     H_    0.326403 0.485042 0.327517 0.178332
H11   H     H_    0.333422 0.475202 0.239196 0.160624
H12   H     H_    0.677120 0.497858 0.365741 0.170436
H13   H     H_    0.608597 0.706769 0.134432 0.225448
H14   H     H_    0.525869 0.713043 0.971725 0.203638
H15   H     H_    0.689723 0.482142 0.663292 0.246893
H16   H     H_    0.192201 0.618525 0.605567 0.332894
H17   H     H_    0.937893 0.418884 0.752397 0.404412
H18   H     H_    0.616278 0.012501 0.884349 0.387389
H19   H     H_    0.884249 0.205513 0.531159 0.356430
H20   H     H_    0.813787 0.836069 0.676154 0.379931
H21   H     H_    0.203872 0.850911 0.289125 0.399232
H22   H     H_    0.320003 0.827063 0.571585 0.318095
H23   H     H_    0.486632 0.223056 0.117375 0.206248
H24   H     H_    0.969306 0.118718 0.388977 0.402409
H25   H     H_    0.435215 0.919826 0.892297 0.411666
H26   H     H_    0.784949 0.744709 0.012396 0.371186
H27   H     H_    0.682179 0.487110 0.278142 0.161008
H28   H     H_    0.603469 0.197123 0.977496 0.179008
H29   H     H_    0.753118 0.037678 0.609452 0.214619
H30   H     H_    0.371722 0.462156 0.738840 0.186477
H31   H     H_    0.467264 0.163778 0.461981 0.168859
H32   H     H_    0.283359 0.766163 0.417453 0.200029
N1    N     N_R   0.559726 0.450985 0.803522 -0.348800
N2    N     N_R   0.513219 0.477655 0.201898 -0.359846
N3    N     N_R   0.222180 0.444690 0.474320 -0.134173
N4    N     N_R   0.776980 0.554780 0.525420 -0.132093
O1    O     O_R   0.366730 0.627160 0.487740 -0.601631
O2    O     O_R   0.410930 0.482330 0.420550 -0.619466
O3    O     O_R   0.589030 0.517690 0.436960 -0.651569
O4    O     O_2   0.557832 0.628191 0.800570 -0.410027
O5    O     O_2   0.237689 0.454437 0.647119 -0.583927
O6    O     O_R   0.274856 0.601575 0.616511 -0.736211
O7    O     O_2   0.790172 0.538579 0.795686 -0.240013
O8    O     O_2   0.792238 0.352364 0.800945 -0.239141
O9    O     O_3   0.864729 0.424458 0.729327 -0.497931
O10   O     O_2   0.705334 0.151883 0.865214 -0.507992
O11   O     O_R   0.584735 0.078481 0.898770 -0.781669
O12   O     O_2   0.547906 0.649240 0.207080 -0.523355
O13   O     O_2   0.738374 0.329132 0.609737 -0.256568
O14   O     O_2   0.872059 0.173876 0.628895 -0.230710
O15   O     O_3   0.858226 0.270405 0.546425 -0.518259
O16   O     O_2   0.623638 0.906041 0.669448 -0.517427
O17   O     O_R   0.776295 0.849439 0.639924 -0.819194
O18   O     O_2   0.124651 0.974933 0.356729 -0.237240
O19   O     O_2   0.283549 0.025190 0.329926 -0.233084
O20   O     O_3   0.252719 0.833468 0.322161 -0.558346
O21   O     O_2   0.554551 0.718645 0.620633 -0.570606
O22   O     O_R   0.372987 0.771265 0.592680 -0.712362
O23   O     O_2   0.556775 0.273806 0.801370 -0.480481
O24   O     O_2   0.969217 0.287622 0.343805 -0.305215
O25   O     O_2   0.160493 0.204345 0.367299 -0.224781
O26   O     O_3   0.020927 0.150486 0.415295 -0.537101
O27   O     O_2   0.593819 0.797183 0.855296 -0.201593
O28   O     O_2   0.402828 0.761924 0.829539 -0.222133
O29   O     O_3   0.459793 0.855808 0.912503 -0.547797
O30   O     O_2   0.659920 0.801147 0.064816 -0.585523
O31   O     O_R   0.747315 0.685188 0.019580 -0.764416
O32   O     O_2   0.477743 0.306369 0.198604 -0.523943
O33   O     O_R   0.544830 0.662520 0.504140 -0.620706
O34   O     O_R   0.410970 0.482310 0.563040 -0.604792
O35   O     O_R   0.589070 0.517670 0.579450 -0.581315
O36   O     O_R   0.455170 0.337480 0.495860 -0.617548
O37   O     O_R   0.633270 0.372840 0.512260 -0.572431
S1    S     S_3+6 0.773581 0.442831 0.766047 0.089486
S2    S     S_3+6 0.790596 0.234905 0.587883 0.079124
S3    S     S_3+6 0.242989 0.942338 0.354848 0.078019
S4    S     S_3+6 0.060526 0.245803 0.386628 0.043211
S5    S     S_3+6 0.498163 0.766271 0.873011 0.099871
Zn1   Zn    Zn3+2 0.381080 0.476390 0.489050 0.988106
Zn2   Zn    Zn3+2 0.618920 0.523610 0.510950 1.015270

loop_
_geom_bond_atom_site_label_1
_geom_bond_atom_site_label_2
_ccdc_geom_bond_type
C10   C27   A    
C48   H6    S    
C6    C69   S    
C42   C68   S    
O13   S2    D    
C8    C13   A    
N3    Zn1   S    
C22   C29   A    
C26   H1    S    
C41   C42   A    
C35   C36   A    
C25   C67   A    
C4    C70   S    
O29   S5    S    
C7    C8    A    
C15   H10   S    
C16   C31   S    
C62   H15   S    
C12   C23   A    
C26   C27   A    
C31   C43   A    
C36   C37   A    
C16   O37   A    
O37   Zn2   S    
C4    O35   A    
C38   C39   A    
C1    C46   S    
C64   O5    D    
C48   N4    A    
C30   H29   S    
H24   O26   S    
C62   C70   A    
C18   C19   A    
C37   C42   A    
C61   S1    S    
C11   O32   S    
C33   S3    S    
C47   C60   A    
C54   C55   A    
O36   Zn1   S    
C52   N1    A    
C20   C24   A    
C45   C56   A    
C8    C9    A    
C11   N2    A    
C44   S2    S    
C65   O11   S    
C9    C10   A    
C68   O21   D    
C61   C62   A    
C37   C46   A    
C58   H9    S    
N4    Zn2   S    
C7    H13   S    
C21   C22   A    
C25   C29   A    
H19   O15   S    
C30   C44   A    
C2    C6    A    
H22   O22   S    
C50   H7    S    
C13   O12   S    
O34   Zn1   S    
C50   C51   A    
C40   O4    S    
C54   C59   A    
C69   O30   D    
C40   C45   A    
C59   N3    A    
C31   C44   A    
C29   H28   S    
C2    C20   A    
O25   S4    D    
C16   O36   A    
C25   C65   S    
C39   C41   A    
O3    Zn2   S    
O18   S3    D    
C4    O34   A    
O26   S4    S    
C12   C63   A    
C21   C34   A    
C28   O3    A    
O28   S5    D    
O27   S5    D    
C38   C43   A    
C49   H8    S    
C17   H12   S    
O35   Zn2   S    
H17   O9    S    
C5    C9    A    
C40   N1    A    
C53   N4    A    
C23   N1    S    
C14   C15   A    
C63   C70   A    
C53   C58   A    
C17   C18   A    
C32   H32   S    
O24   S4    D    
C34   C45   A    
H18   O11   S    
C52   C67   A    
O33   Zn2   S    
C6    C7    A    
C1    O33   A    
O1    Zn1   S    
C19   N2    S    
C13   N2    A    
C48   C49   A    
C17   C71   A    
H20   O17   S    
C55   C57   A    
C66   O17   S    
C28   C71   S    
C14   H11   S    
H21   O20   S    
C3    C5    A    
H26   O31   S    
C60   N3    A    
C47   C55   A    
C24   H14   S    
C69   O31   S    
C47   S4    S    
C35   H2    S    
C64   O6    S    
O14   S2    D    
C32   C46   A    
C14   C19   A    
C3    C26   A    
O7    S1    D    
H25   O29   S    
C34   C67   A    
O19   S3    D    
C41   C66   S    
C28   O2    A    
C24   C56   A    
C15   C71   A    
O8    S1    D    
C51   C54   A    
C52   O23   S    
C32   C33   A    
C57   H4    S    
C36   C38   A    
O2    Zn1   S    
C27   H23   S    
C43   H31   S    
C12   H30   S    
C57   C58   A    
O9    S1    S    
C60   H3    S    
C33   C35   A    
C30   C39   A    
O15   S2    S    
C68   O22   S    
H16   O6    S    
C10   C11   A    
C1    O1    A    
C63   C64   S    
C2    C5    A    
C23   C61   A    
C20   C21   A    
C49   C50   A    
C65   O10   D    
C66   O16   D    
C3    C22   A    
C18   H27   S    
C51   C53   A    
C56   S5    S    
C59   H5    S    
O20   S3    S    
