data_mof_unit_30018.cif
_audit_creation_date              2012-12-10T19:07:37-0500
_audit_creation_method            fapswitch 2.2
_symmetry_space_group_name_H-M    P1
_symmetry_Int_Tables_number       1
_space_group_crystal_system       triclinic
_cell_length_a                    10.840639
_cell_length_b                    10.817735
_cell_length_c                    9.554885
_cell_angle_alpha                 89.697261
_cell_angle_beta                  90.711703
_cell_angle_gamma                 90.388007
_cell_volume                      1120.38516308

loop_
_atom_site_label
_atom_site_type_symbol
_atom_type_description
_atom_site_fract_x
_atom_site_fract_y
_atom_site_fract_z
_atom_type_partial_charge
C1    C     C_R   0.497944 0.262469 0.500005 0.820047
C2    C     C_R   0.939017 0.469266 0.623718 0.139846
C3    C     C_3   0.938241 0.541008 0.756828 -0.499193
C4    C     C_3   0.077921 0.538704 0.755285 -0.441517
C5    C     C_R   0.420988 0.061999 0.592119 0.130340
C6    C     C_R   0.491324 0.129262 0.496483 -0.126488
C7    C     C_R   0.546691 0.065678 0.385960 -0.196650
C8    C     C_R   0.547232 0.936773 0.385636 -0.198799
C9    C     C_R   0.492866 0.870593 0.495929 -0.088834
C10   C     C_R   0.423210 0.935024 0.592671 0.071625
C11   C     C_3   0.413458 0.926911 0.747939 -0.471372
C12   C     C_R   0.262476 0.496508 0.499191 0.814989
C13   C     C_3   0.408340 0.067841 0.747292 0.064306
C14   C     C_R   0.535779 0.603005 0.073625 0.271219
C15   C     C_R   0.452277 0.403484 0.074202 -0.076109
C16   C     C_R   0.452577 0.403501 0.925588 -0.071494
C17   C     C_R   0.535134 0.603242 0.926202 0.259135
C18   C     C_3   0.658140 0.664709 0.922020 -0.511561
C19   C     C_3   0.658975 0.664554 0.080548 -0.495800
C20   C     C_R   0.499327 0.737510 0.499515 0.805660
C21   C     C_R   0.737880 0.497587 0.500464 0.799712
C22   C     C_R   0.066040 0.468043 0.622314 0.177608
C23   C     C_R   0.129675 0.482082 0.497367 -0.103233
C24   C     C_R   0.062918 0.478133 0.370480 -0.204000
C25   C     C_R   0.934235 0.479161 0.371601 -0.207933
C26   C     C_R   0.871242 0.484445 0.499570 -0.106038
Cu1   Cu    Cu3+1 0.499990 0.499980 0.640670 0.954679
Cu2   Cu    Cu3+1 0.500010 0.500020 0.359330 0.949156
H1    H     H_    0.109370 0.481201 0.270798 0.172295
H2    H     H_    0.498572 0.890719 0.798526 0.170985
H3    H     H_    0.488346 0.112767 0.800818 0.129540
H4    H     H_    0.415184 0.324284 0.129268 0.162350
H5    H     H_    0.416216 0.324649 0.870237 0.185623
H6    H     H_    0.728015 0.603232 0.877851 0.215637
H7    H     H_    0.654844 0.758772 0.875359 0.192161
H8    H     H_    0.731590 0.604554 0.127143 0.211248
H9    H     H_    0.654459 0.758905 0.124869 0.189275
H10   H     H_    0.885028 0.482260 0.272378 0.162900
H11   H     H_    0.900493 0.635610 0.742289 0.202383
H12   H     H_    0.899697 0.485952 0.844764 0.204449
H13   H     H_    0.120496 0.631637 0.740491 0.200173
H14   H     H_    0.118885 0.482152 0.841305 0.217564
H15   H     H_    0.595140 0.115138 0.304215 0.162112
H16   H     H_    0.596038 0.889577 0.303971 0.148361
H17   H     H_    0.326606 0.880619 0.780831 0.228327
N1    N     N_R   0.500790 0.500930 0.147930 -0.193832
N2    N     N_R   0.500790 0.500890 0.852020 -0.193294
O1    O     O_R   0.500000 0.319640 0.618810 -0.584023
O2    O     O_R   0.500010 0.319680 0.381230 -0.590370
O3    O     O_R   0.319650 0.499970 0.618810 -0.571380
O4    O     O_R   0.319660 0.500010 0.381230 -0.584286
O5    O     O_R   0.499990 0.680320 0.618770 -0.583291
O6    O     O_R   0.500000 0.680360 0.381190 -0.581567
O7    O     O_R   0.680340 0.499990 0.618770 -0.578268
O8    O     O_R   0.680350 0.500030 0.381190 -0.588342
Br1   Br    Br    0.246905 0.129410 0.797663 -0.566034

loop_
_geom_bond_atom_site_label_1
_geom_bond_atom_site_label_2
_ccdc_geom_bond_type
Cu1   O1    S    
C2    C22   A    
C12   O3    A    
C23   C24   A    
C1    O1    A    
C6    C7    A    
C7    H15   S    
C25   H10   S    
C4    C22   S    
C9    C10   A    
C9    C20   S    
C5    C13   S    
C14   C17   A    
Cu1   O3    S    
C21   C26   S    
C13   Br1   S    
C10   C11   S    
C17   C18   S    
Cu1   O7    S    
C3    H11   S    
C5    C10   A    
C2    C26   A    
C24   C25   A    
Cu2   O6    S    
C11   C13   S    
C12   C23   S    
Cu2   N1    S    
C5    C6    A    
C4    H14   S    
C16   N2    A    
Cu2   O8    S    
C3    H12   S    
C2    C3    S    
C19   H8    S    
C18   H6    S    
C21   O7    A    
C16   H5    S    
Cu2   O4    S    
C11   H17   S    
C4    H13   S    
C1    C6    S    
C8    H16   S    
C7    C8    A    
C12   O4    A    
Cu1   O5    S    
C11   H2    S    
C20   O5    A    
C18   C19   S    
C18   H7    S    
Cu1   N2    S    
Cu1   Cu2   S    
C21   O8    A    
C24   H1    S    
C20   O6    A    
C19   H9    S    
C15   N1    A    
C25   C26   A    
C22   C23   A    
C1    O2    A    
C14   C19   S    
C13   H3    S    
C3    C4    S    
C15   C16   A    
C17   N2    A    
C8    C9    A    
C14   N1    A    
Cu2   O2    S    
C15   H4    S    
