data_mof_unit_33155.cif
_audit_creation_date              2012-12-10T18:21:22-0500
_audit_creation_method            fapswitch 2.2
_symmetry_space_group_name_H-M    P1
_symmetry_Int_Tables_number       1
_space_group_crystal_system       triclinic
_cell_length_a                    15.015395
_cell_length_b                    14.264352
_cell_length_c                    10.673901
_cell_angle_alpha                 89.930457
_cell_angle_beta                  84.193097
_cell_angle_gamma                 90.622681
_cell_volume                      2274.31622154

loop_
_atom_site_label
_atom_site_type_symbol
_atom_type_description
_atom_site_fract_x
_atom_site_fract_y
_atom_site_fract_z
_atom_type_partial_charge
C1    C     C_R   0.326476 0.499921 0.507068 0.861168
C2    C     C_R   0.027101 0.398595 0.681692 -0.258167
C3    C     C_R   0.082117 0.454364 0.596505 0.098309
C4    C     C_R   0.502008 0.500043 0.257869 0.828331
C5    C     C_R   0.045013 0.499249 0.496570 -0.113727
C6    C     C_R   0.100486 0.548423 0.402735 0.026244
C7    C     C_R   0.061502 0.601378 0.310875 0.450890
C8    C     C_R   0.968935 0.596215 0.305459 -0.341867
C9    C     C_R   0.172976 0.469646 0.612113 -0.034609
C10   C     C_R   0.229784 0.501402 0.506254 -0.243873
C11   C     C_R   0.193667 0.541054 0.401079 0.418114
C12   C     C_3   0.596337 0.486183 0.913108 -0.591625
C13   C     C_R   0.553547 0.800393 0.408829 0.146151
C14   C     C_R   0.558791 0.202407 0.413488 0.112751
C15   C     C_R   0.447781 0.799799 0.590915 0.142773
C16   C     C_R   0.447622 0.198699 0.590387 0.134501
C17   C     C_R   0.457354 0.899379 0.601378 0.012081
C18   C     C_R   0.459684 0.099955 0.602852 0.003483
C19   C     C_R   0.672618 0.500066 0.495267 0.870954
C20   C     C_R   0.504844 0.950146 0.503103 0.042335
C21   C     C_R   0.506460 0.050859 0.503911 0.038998
C22   C     C_R   0.547899 0.900572 0.401767 0.012380
C23   C     C_R   0.821890 0.540238 0.388331 0.387206
C24   C     C_R   0.551246 0.102078 0.403240 0.037537
C25   C     C_R   0.417119 0.950201 0.704813 -0.218840
C26   C     C_R   0.418606 0.047802 0.705801 -0.209318
C27   C     C_R   0.583056 0.050842 0.295592 -0.222118
C28   C     C_R   0.583723 0.952858 0.295767 -0.210521
C29   C     C_R   0.499396 0.499899 0.742235 0.854060
C30   C     C_3   0.476789 0.598548 0.075935 -0.328315
C31   C     C_3   0.432816 0.426264 0.083005 -0.425137
C32   C     C_3   0.463198 0.595090 0.936763 0.275527
C33   C     C_3   0.441743 0.416006 0.939245 0.322806
C34   C     C_R   0.767988 0.498361 0.488545 -0.163427
C35   C     C_3   0.596252 0.476261 0.057216 -0.466406
C36   C     C_3   0.501998 0.500022 0.121554 0.067126
C37   C     C_3   0.498986 0.499604 0.879452 0.089108
C38   C     C_3   0.205684 0.466203 0.743746 -0.349379
C39   C     C_3   0.137497 0.507629 0.848086 -0.448877
C40   C     C_3   0.178975 0.552773 0.957308 -0.680265
C41   C     C_3   0.621251 0.751955 0.316150 -0.380203
C42   C     C_3   0.718327 0.783809 0.331403 -0.329950
C43   C     C_3   0.776360 0.785982 0.205182 -0.838629
C44   C     C_3   0.641828 0.256700 0.356845 -0.349913
C45   C     C_R   0.804562 0.449871 0.583140 -0.337509
C46   C     C_3   0.710369 0.214686 0.256360 -0.463378
C47   C     C_3   0.792356 0.279336 0.232281 -0.875882
C48   C     C_3   0.370482 0.752309 0.667985 -0.400825
C49   C     C_3   0.281644 0.780624 0.618889 -0.335089
C50   C     C_3   0.201434 0.736503 0.696295 -0.889549
C51   C     C_3   0.363488 0.239852 0.657041 -0.361009
C52   C     C_3   0.283098 0.201020 0.592510 -0.324789
C53   C     C_3   0.193286 0.214684 0.669050 -0.926841
C54   C     C_3   0.879756 0.339549 0.782750 -0.427984
C55   C     C_3   0.832547 0.400699 0.887709 -0.358168
C56   C     C_R   0.896597 0.447380 0.586674 0.097401
C57   C     C_3   0.897888 0.446612 0.970243 -0.832664
C58   C     C_R   0.951993 0.496925 0.492629 -0.026136
C59   C     C_R   0.914201 0.544231 0.394554 0.066184
C60   C     C_R   0.934629 0.396792 0.681358 0.176803
H1    H     H_    0.531285 0.649806 0.090225 0.123396
H2    H     H_    0.363969 0.448390 0.118022 0.203785
H3    H     H_    0.500396 0.655735 0.889794 0.105922
H4    H     H_    0.477266 0.349238 0.913500 0.094507
H5    H     H_    0.647793 0.524240 0.090405 0.185203
H6    H     H_    0.614188 0.403364 0.081338 0.188949
H7    H     H_    0.638681 0.547433 0.879151 0.192595
H8    H     H_    0.626311 0.422563 0.866380 0.185490
H9    H     H_    0.759405 0.414592 0.653759 0.165107
H10   H     H_    0.227822 0.505604 0.995352 0.322960
H11   H     H_    0.209762 0.621206 0.928255 0.285203
H12   H     H_    0.443599 0.356240 0.124670 0.151233
H13   H     H_    0.124931 0.565991 0.033456 0.250140
H14   H     H_    0.094384 0.560603 0.808274 0.237209
H15   H     H_    0.094072 0.450688 0.891229 0.224218
H16   H     H_    0.219812 0.392943 0.768502 0.220187
H17   H     H_    0.269366 0.505936 0.742536 0.227159
H18   H     H_    0.306317 0.542793 0.290960 0.315575
H19   H     H_    0.075376 0.695994 0.177657 0.312757
H20   H     H_    0.769845 0.719477 0.152948 0.293074
H21   H     H_    0.755843 0.844553 0.146222 0.236193
H22   H     H_    0.847614 0.796886 0.221435 0.247547
H23   H     H_    0.055830 0.356278 0.750803 0.148930
H24   H     H_    0.721306 0.854621 0.373951 0.217425
H25   H     H_    0.747997 0.735270 0.396852 0.251768
H26   H     H_    0.619493 0.676158 0.327530 0.256063
H27   H     H_    0.603555 0.764514 0.219090 0.170539
H28   H     H_    0.772172 0.349836 0.201736 0.265952
H29   H     H_    0.827019 0.286781 0.318966 0.269974
H30   H     H_    0.839953 0.249389 0.156809 0.255733
H31   H     H_    0.733833 0.145758 0.287705 0.250270
H32   H     H_    0.680595 0.208715 0.165604 0.221681
H33   H     H_    0.620854 0.322656 0.316256 0.247658
H34   H     H_    0.939622 0.635300 0.233107 0.196600
H35   H     H_    0.680194 0.271595 0.438197 0.232518
H36   H     H_    0.206243 0.659396 0.691390 0.279982
H37   H     H_    0.198845 0.759770 0.795789 0.265145
H38   H     H_    0.138799 0.757773 0.657535 0.256259
H39   H     H_    0.273729 0.857931 0.621838 0.225782
H40   H     H_    0.281403 0.757843 0.519285 0.258810
H41   H     H_    0.376570 0.676892 0.661934 0.252005
H42   H     H_    0.370827 0.767719 0.769634 0.186669
H43   H     H_    0.198864 0.212768 0.771997 0.258315
H44   H     H_    0.166296 0.281843 0.641239 0.269468
H45   H     H_    0.382769 0.916012 0.786324 0.155331
H46   H     H_    0.145327 0.159068 0.645776 0.254907
H47   H     H_    0.282195 0.234711 0.498573 0.229699
H48   H     H_    0.289852 0.124447 0.575638 0.227818
H49   H     H_    0.357216 0.222904 0.758695 0.154852
H50   H     H_    0.364884 0.316372 0.657226 0.263572
H51   H     H_    0.362450 0.601068 0.837006 0.333707
H52   H     H_    0.329477 0.351115 0.924077 0.313368
H53   H     H_    0.726004 0.549321 0.278105 0.309108
H54   H     H_    0.941342 0.393198 0.008145 0.251529
H55   H     H_    0.939729 0.499810 0.915130 0.259699
H56   H     H_    0.385585 0.080957 0.788294 0.148248
H57   H     H_    0.859854 0.482581 0.050581 0.269806
H58   H     H_    0.793069 0.456606 0.847891 0.224844
H59   H     H_    0.785175 0.355565 0.948346 0.213741
H60   H     H_    0.829624 0.295829 0.739165 0.163840
H61   H     H_    0.922607 0.288326 0.826623 0.194501
H62   H     H_    0.603262 0.084691 0.207278 0.145018
H63   H     H_    0.610683 0.919057 0.209992 0.157417
H64   H     H_    0.415066 0.624226 0.131579 0.233175
N1    N     N_R   0.500070 0.750030 0.500050 -0.131961
N2    N     N_R   0.500070 0.249970 0.500050 -0.141265
O1    O     O_R   0.367860 0.580280 0.500020 -0.613666
O2    O     O_3   0.113852 0.661248 0.231607 -0.708280
O3    O     O_3   0.371728 0.605922 0.926645 -0.756127
O4    O     O_3   0.357108 0.411940 0.895101 -0.806902
O5    O     O_3   0.787339 0.574263 0.282220 -0.823619
O6    O     O_R   0.367860 0.419720 0.500020 -0.622011
O7    O     O_R   0.500000 0.580270 0.314790 -0.646387
O8    O     O_R   0.500000 0.419730 0.314790 -0.638128
O9    O     O_R   0.632160 0.580270 0.499960 -0.625040
O10   O     O_R   0.632160 0.419730 0.499960 -0.646609
O11   O     O_R   0.500030 0.580270 0.685200 -0.667132
O12   O     O_R   0.500030 0.419730 0.685200 -0.618059
O13   O     O_3   0.247294 0.573152 0.296217 -0.698884
Zn1   Zn    Zn3+2 0.500020 0.607200 0.499990 0.916979
Zn2   Zn    Zn3+2 0.500020 0.392800 0.499990 0.908725

loop_
_geom_bond_atom_site_label_1
_geom_bond_atom_site_label_2
_ccdc_geom_bond_type
C33   O4    S    
H19   O2    S    
C4    C36   S    
C16   C51   S    
C40   H11   S    
C54   H60   S    
C18   C21   A    
C41   C42   S    
C35   C36   S    
C18   C26   A    
C24   C27   A    
C1    O6    A    
H18   O13   S    
C13   C41   S    
C28   H63   S    
C25   H45   S    
C7    C8    A    
C57   H55   S    
C54   C60   S    
C23   C59   A    
C41   H26   S    
C12   H8    S    
C40   H10   S    
C5    C58   A    
C57   H57   S    
C8    C59   A    
C38   C39   S    
C2    C60   A    
C46   H32   S    
C35   H5    S    
C53   H44   S    
C19   O9    A    
C17   C20   A    
C40   H13   S    
C39   H14   S    
C14   C24   A    
C12   C37   S    
C11   O13   S    
C44   H33   S    
C46   C47   S    
C53   H46   S    
H51   O3    S    
C45   C56   A    
C31   C33   S    
C39   H15   S    
C7    O2    S    
C9    C10   A    
C13   N1    A    
C51   H49   S    
C22   C28   A    
C47   H29   S    
C31   H2    S    
C2    H23   S    
C15   C48   S    
C32   O3    S    
C12   H7    S    
C27   H62   S    
C44   C46   S    
C4    O8    A    
N1    Zn1   S    
O9    Zn1   S    
C41   H27   S    
O11   Zn1   S    
C50   H38   S    
C45   H9    S    
C51   C52   S    
C42   H24   S    
C52   H47   S    
C6    C11   A    
C42   H25   S    
C38   H16   S    
C46   H31   S    
C35   H6    S    
C19   O10   A    
C19   C34   S    
C33   C37   S    
C56   C60   A    
O10   Zn2   S    
C3    C9    A    
C49   H39   S    
C23   C34   A    
C48   H42   S    
C23   O5    S    
C34   C45   A    
C32   C37   S    
C12   C35   S    
C57   H54   S    
C48   C49   S    
C54   H61   S    
C30   H64   S    
C51   H50   S    
C55   C57   S    
C15   N1    A    
C43   H21   S    
C47   H30   S    
C58   C59   A    
O1    Zn1   S    
C21   C24   A    
C8    H34   S    
C39   C40   S    
C52   C53   S    
C14   C44   S    
O6    Zn2   S    
C15   C17   A    
C54   C55   S    
C31   H12   S    
C50   H37   S    
H53   O5    S    
C1    C10   S    
C1    O1    A    
C32   H3    S    
C20   C22   A    
C3    C5    A    
O12   Zn2   S    
C29   O12   A    
C6    C7    A    
C38   H17   S    
C29   O11   A    
N2    Zn2   S    
C14   N2    A    
C30   C36   S    
C17   C25   A    
C47   H28   S    
C2    C3    A    
C25   C26   A    
C44   H35   S    
C49   H40   S    
C30   C32   S    
C50   H36   S    
C5    C6    A    
C53   H43   S    
C33   H4    S    
C48   H41   S    
C9    C38   S    
C43   H20   S    
C56   C58   A    
C13   C22   A    
C26   H56   S    
C10   C11   A    
C55   H59   S    
C20   C21   A    
C52   H48   S    
O7    Zn1   S    
C16   C18   A    
C49   C50   S    
C42   C43   S    
C30   H1    S    
C29   C37   S    
C27   C28   A    
C43   H22   S    
C31   C36   S    
H52   O4    S    
C16   N2    A    
C4    O7    A    
O8    Zn2   S    
C55   H58   S    
