data_mof_unit_31591.cif
_audit_creation_date              2012-12-11T17:36:12-0500
_audit_creation_method            fapswitch 2.2
_symmetry_space_group_name_H-M    P1
_symmetry_Int_Tables_number       1
_space_group_crystal_system       triclinic
_cell_length_a                    25.828559
_cell_length_b                    6.904095
_cell_length_c                    21.701371
_cell_angle_alpha                 90.000946
_cell_angle_beta                  96.125361
_cell_angle_gamma                 89.998712
_cell_volume                      3847.756078

loop_
_atom_site_label
_atom_site_type_symbol
_atom_type_description
_atom_site_fract_x
_atom_site_fract_y
_atom_site_fract_z
_atom_type_partial_charge
O1    O     O_R   0.208650 0.594520 0.175450 -0.533100
O2    O     O_R   0.791350 0.405480 0.824550 -0.533100
O3    O     O_R   0.291350 0.094520 0.324550 -0.533104
O4    O     O_R   0.708650 0.905480 0.675450 -0.533104
O5    O     O_R   0.192980 0.260780 0.300160 -0.541265
O6    O     O_R   0.807020 0.739220 0.699840 -0.541264
O7    O     O_R   0.307020 0.760780 0.199840 -0.541265
O8    O     O_R   0.692980 0.239220 0.800160 -0.541264
C1    C     C_R   0.178801 0.432868 0.318434 0.684263
C2    C     C_R   0.821199 0.567132 0.681565 0.684265
C3    C     C_R   0.321197 0.932864 0.181563 0.684267
C4    C     C_R   0.678802 0.067136 0.818437 0.684266
O9    O     O_R   0.202550 0.264660 0.174420 -0.536806
O10   O     O_R   0.797450 0.735340 0.825580 -0.536806
O11   O     O_R   0.297450 0.764660 0.325580 -0.536807
O12   O     O_R   0.702550 0.235340 0.674420 -0.536810
O13   O     O_R   0.300990 0.096480 0.197920 -0.539736
O14   O     O_R   0.699010 0.903520 0.802080 -0.539736
O15   O     O_R   0.199010 0.596480 0.302080 -0.539733
O16   O     O_R   0.800990 0.403520 0.697920 -0.539735
C5    C     C_R   0.190949 0.433474 0.151173 0.720204
C6    C     C_R   0.809051 0.566526 0.848827 0.720204
C7    C     C_R   0.309050 0.933472 0.348827 0.720216
C8    C     C_R   0.690949 0.066528 0.651173 0.720216
O17   O     O_3   0.282290 0.427760 0.257860 -0.365485
O18   O     O_3   0.717710 0.572240 0.742140 -0.365487
O19   O     O_3   0.217710 0.927760 0.242140 -0.365487
O20   O     O_3   0.782290 0.072240 0.757860 -0.365486
V1    V     V_3+5 0.244010 0.152080 0.248540 1.420218
V2    V     V_3+5 0.755990 0.847920 0.751460 1.420218
V3    V     V_3+5 0.255990 0.652080 0.251460 1.420223
V4    V     V_3+5 0.744010 0.347920 0.748540 1.420219
C9    C     C_R   0.657513 0.059699 0.591688 -0.123982
C10   C     C_R   0.342487 0.940310 0.408311 -0.123977
C11   C     C_R   0.842487 0.559662 0.908312 -0.123970
C12   C     C_R   0.157513 0.440338 0.091688 -0.123969
C13   C     C_R   0.648795 0.100801 0.480224 0.412136
C14   C     C_R   0.351195 0.899418 0.519781 0.412110
C15   C     C_R   0.851174 0.600112 0.019798 0.412143
C16   C     C_R   0.148826 0.399888 0.980202 0.412141
C17   C     C_R   0.679344 0.098514 0.537165 -0.186209
C18   C     C_R   0.320648 0.901685 0.462841 -0.186230
C19   C     C_R   0.820635 0.598022 0.962851 -0.186199
C20   C     C_R   0.179365 0.401978 0.037149 -0.186200
C21   C     C_R   0.603753 0.027875 0.589646 -0.197686
C22   C     C_R   0.396252 0.972006 0.410350 -0.197660
C23   C     C_R   0.896258 0.528094 0.910347 -0.197671
C24   C     C_R   0.103742 0.471905 0.089653 -0.197671
C25   C     C_R   0.570809 0.030903 0.532554 0.007986
C26   C     C_R   0.429194 0.969051 0.467445 0.007980
C27   C     C_R   0.929191 0.530894 0.967448 0.007997
C28   C     C_R   0.070808 0.469105 0.032552 0.007997
C29   C     C_R   0.594679 0.054807 0.476724 -0.016974
C30   C     C_R   0.405320 0.945270 0.523277 -0.016968
C31   C     C_R   0.905305 0.554341 0.023284 -0.016975
C32   C     C_R   0.094695 0.445658 0.976716 -0.016975
C33   C     C_R   0.515234 0.007907 0.529308 0.040350
C34   C     C_R   0.484770 0.992033 0.470689 0.040364
C35   C     C_R   0.984772 0.508063 0.970692 0.040367
C36   C     C_R   0.015228 0.491936 0.029308 0.040366
C37   C     C_R   0.510940 0.992675 0.416986 -0.258271
C38   C     C_R   0.489065 0.007316 0.583011 -0.258288
C39   C     C_R   0.989049 0.492144 0.083003 -0.258273
C40   C     C_R   0.010951 0.507855 0.916997 -0.258273
C41   C     C_R   0.564752 0.024268 0.419165 0.342092
C42   C     C_R   0.435251 0.975804 0.580835 0.342133
C43   C     C_R   0.935229 0.523543 0.080830 0.342091
C44   C     C_R   0.064771 0.476456 0.919170 0.342092
H1    H     H_    0.410825 0.001921 0.366622 0.108877
H2    H     H_    0.589182 0.997808 0.633367 0.108898
H3    H     H_    0.089156 0.501642 0.133386 0.108876
H4    H     H_    0.910844 0.498357 0.866614 0.108876
C45   C     C_R   0.427317 0.793646 0.079331 -0.121425
C46   C     C_R   0.572685 0.206355 0.920670 -0.121424
C47   C     C_R   0.072760 0.293628 0.420768 -0.121413
C48   C     C_R   0.927238 0.706372 0.579229 -0.121412
C49   C     C_R   0.388062 0.778689 0.119290 -0.162581
C50   C     C_R   0.611940 0.221312 0.880712 -0.162577
C51   C     C_R   0.112014 0.278672 0.380808 -0.162524
C52   C     C_R   0.887985 0.721328 0.619190 -0.162519
C53   C     C_R   0.363541 0.945802 0.139678 -0.058007
C54   C     C_R   0.636458 0.054198 0.860322 -0.058008
C55   C     C_R   0.136453 0.445812 0.360315 -0.058009
C56   C     C_R   0.863546 0.554188 0.639685 -0.058009
C57   C     C_R   0.379592 0.127787 0.118952 -0.160396
C58   C     C_R   0.620406 0.872212 0.881046 -0.160399
C59   C     C_R   0.120322 0.627825 0.380934 -0.160432
C60   C     C_R   0.879679 0.372175 0.619067 -0.160433
H5    H     H_    0.361801 0.260003 0.133311 0.122490
H6    H     H_    0.638196 0.739996 0.866685 0.122490
H7    H     H_    0.138046 0.760065 0.366486 0.122479
H8    H     H_    0.861956 0.239934 0.633515 0.122480
C61   C     C_R   0.418725 0.142242 0.079126 -0.125211
C62   C     C_R   0.581273 0.857757 0.920872 -0.125211
C63   C     C_R   0.081188 0.642280 0.420759 -0.125199
C64   C     C_R   0.918812 0.357720 0.579241 -0.125197
H9    H     H_    0.430108 0.283994 0.063930 0.107910
H10   H     H_    0.569889 0.716005 0.936066 0.107909
H11   H     H_    0.069740 0.784056 0.435871 0.107868
H12   H     H_    0.930261 0.215943 0.564130 0.107868
C65   C     C_R   0.442818 0.975579 0.058967 0.129499
C66   C     C_R   0.557182 0.024421 0.941033 0.129499
C67   C     C_R   0.057179 0.475589 0.441027 0.129508
C68   C     C_R   0.942821 0.524411 0.558972 0.129507
C69   C     C_1   0.483174 0.992328 0.017381 -0.044505
C70   C     C_1   0.516826 0.007672 0.982619 -0.044504
C71   C     C_1   0.016825 0.492332 0.482617 -0.044504
C72   C     C_1   0.983175 0.507668 0.517382 -0.044503
O21   O     O_3   0.589098 0.012923 0.365479 -0.623518
H13   H     H_    0.562896 0.991379 0.329305 0.296212
O22   O     O_3   0.410908 0.987223 0.634522 -0.623517
H14   H     H_    0.437116 0.008660 0.670698 0.296205
O23   O     O_3   0.910875 0.511738 0.134500 -0.623536
H15   H     H_    0.937077 0.490068 0.170667 0.296208
O24   O     O_3   0.089125 0.488261 0.865500 -0.623537
H16   H     H_    0.062923 0.509932 0.829333 0.296206
H17   H     H_    0.279463 0.868828 0.461078 0.135699
H18   H     H_    0.720521 0.131503 0.538932 0.135708
H19   H     H_    0.220556 0.369217 0.038906 0.135681
H20   H     H_    0.779444 0.630784 0.961094 0.135681
O25   O     O_3   0.673080 0.155470 0.429484 -0.604554
H21   H     H_    0.649758 0.248728 0.405448 0.329092
O26   O     O_3   0.326896 0.844944 0.570532 -0.604546
H22   H     H_    0.350189 0.751605 0.594573 0.329098
O27   O     O_3   0.826862 0.654319 0.070566 -0.604561
H23   H     H_    0.850153 0.747514 0.094673 0.329117
O28   O     O_3   0.173138 0.345682 0.929434 -0.604562
H24   H     H_    0.149847 0.252486 0.905327 0.329117
H25   H     H_    0.490530 0.963128 0.372128 0.115986
H26   H     H_    0.509479 0.036899 0.627865 0.115996
H27   H     H_    0.009460 0.462370 0.127845 0.115996
H28   H     H_    0.990540 0.537628 0.872155 0.115996
H29   H     H_    0.445515 0.663109 0.064236 0.107902
H30   H     H_    0.554487 0.336892 0.935768 0.107902
H31   H     H_    0.054628 0.163069 0.435950 0.107880
H32   H     H_    0.945370 0.836932 0.564047 0.107880
H33   H     H_    0.376878 0.636312 0.134039 0.118767
H34   H     H_    0.623124 0.363689 0.865964 0.118766
H35   H     H_    0.123262 0.136272 0.366145 0.118740
H36   H     H_    0.876735 0.863728 0.633852 0.118741

loop_
_geom_bond_atom_site_label_1
_geom_bond_atom_site_label_2
_ccdc_geom_bond_type
C48   C68   A    
C55   C59   A    
C60   C64   A    
O1    C5    A    
C15   O27   S    
C59   H7    S    
O19   V1    S    
C9    C21   A    
C38   H26   S    
O3    C7    A    
O22   H14   S    
C10   C18   A    
C52   C56   A    
O15   V3    S    
C48   H32   S    
C25   C33   A    
O26   H22   S    
C5    C12   S    
C3    C53   S    
O7    C3    A    
C6    C11   S    
C35   C40   A    
C26   C30   A    
C36   C39   A    
C40   C44   A    
O9    V1    S    
C49   H33   S    
C14   C18   A    
O4    C8    A    
C63   H11   S    
C62   H10   S    
O24   H16   S    
C47   C67   A    
C46   H30   S    
O1    V3    S    
O13   V1    S    
O2    V4    S    
C2    C56   S    
O3    V1    S    
C22   H1    S    
C58   C62   A    
C57   C61   A    
C1    O15   A    
C15   C31   A    
C40   H28   S    
C2    O16   A    
C16   C32   A    
C59   C63   A    
O2    C6    A    
C71   C72   T    
C66   C70   S    
C10   C22   A    
C49   C53   A    
C17   H18   S    
C11   C19   A    
C16   C20   A    
C14   O26   S    
C37   H25   S    
C19   H20   S    
C46   C66   A    
C13   C29   A    
C34   C37   A    
O11   C7    A    
C11   C23   A    
C35   C36   A    
O12   C8    A    
C65   C69   S    
O10   V2    S    
C50   H34   S    
C63   C67   A    
O5    V1    S    
O17   V1    S    
C39   C43   A    
O7    V3    S    
C38   C42   A    
O19   V3    S    
C26   C34   A    
C60   H8    S    
O20   V4    S    
C51   H35   S    
C58   H6    S    
C61   C65   A    
C57   H5    S    
O18   V4    S    
C15   C19   A    
C20   H19   S    
C33   C38   A    
C32   C44   A    
C16   O28   S    
O8    V4    S    
O5    C1    A    
C50   C54   A    
C31   C43   A    
C14   C30   A    
C21   C25   A    
O8    C4    A    
C7    C10   S    
O9    C5    A    
C41   O21   S    
O25   H21   S    
C1    C55   S    
O14   V2    S    
O6    V2    S    
C45   H29   S    
O18   V2    S    
C39   H27   S    
C64   C68   A    
O27   H23   S    
C42   O22   S    
C13   O25   S    
C12   C20   A    
C27   C35   A    
C24   H3    S    
O28   H24   S    
C4    C54   S    
C61   H9    S    
C68   C72   S    
C29   C41   A    
O23   H15   S    
O16   V4    S    
C3    O13   A    
C21   H2    S    
O17   V3    S    
C56   C60   A    
O6    C2    A    
C23   C27   A    
C48   C52   A    
C18   H17   S    
O11   V3    S    
C30   C42   A    
O12   V4    S    
C69   C70   T    
C22   C26   A    
C8    C9    S    
C9    C17   A    
O10   C6    A    
O20   V2    S    
C43   O23   S    
C52   H36   S    
O21   H13   S    
C54   C58   A    
C33   C34   A    
C47   H31   S    
C25   C29   A    
C64   H12   S    
C45   C65   A    
C12   C24   A    
C27   C31   A    
C13   C17   A    
O4    V2    S    
C23   H4    S    
C44   O24   S    
C51   C55   A    
C37   C41   A    
C24   C28   A    
C62   C66   A    
C28   C36   A    
C46   C50   A    
C4    O14   A    
C45   C49   A    
C67   C71   S    
C47   C51   A    
C53   C57   A    
C28   C32   A    
