data_mof_unit_64387.cif
_audit_creation_date              2012-12-10T17:13:11-0500
_audit_creation_method            fapswitch 2.2
_symmetry_space_group_name_H-M    P1
_symmetry_Int_Tables_number       1
_space_group_crystal_system       triclinic
_cell_length_a                    30.546446
_cell_length_b                    30.728836
_cell_length_c                    25.023198
_cell_angle_alpha                 89.610734
_cell_angle_beta                  129.405021
_cell_angle_gamma                 90.071213
_cell_volume                      18148.2468047

loop_
_atom_site_label
_atom_site_type_symbol
_atom_type_description
_atom_site_fract_x
_atom_site_fract_y
_atom_site_fract_z
_atom_type_partial_charge
C1    C     C_R   0.691305 0.190093 0.502609 0.871019
C2    C     C_R   0.310199 0.190221 0.500449 0.868913
C3    C     C_R   0.191292 0.690094 0.502583 0.870988
C4    C     C_R   0.810198 0.690221 0.500448 0.868913
C5    C     C_R   0.644130 0.251523 0.289938 -0.028220
C6    C     C_R   0.354883 0.251323 0.710018 -0.026536
C7    C     C_R   0.144129 0.751523 0.289939 -0.028207
C8    C     C_R   0.854883 0.751323 0.710018 -0.026541
C9    C     C_R   0.462980 0.253501 0.930004 0.283914
C10   C     C_R   0.533003 0.253462 0.069737 0.284484
C11   C     C_R   0.962979 0.753500 0.930004 0.283911
C12   C     C_R   0.033001 0.753461 0.069737 0.284483
C13   C     C_R   0.748958 0.119820 0.604866 -0.172183
C14   C     C_R   0.255420 0.139819 0.376974 -0.171220
C15   C     C_R   0.248960 0.619974 0.605085 -0.172220
C16   C     C_R   0.755421 0.639815 0.376978 -0.171228
C17   C     C_R   0.775700 0.082933 0.646491 -0.135002
C18   C     C_R   0.227911 0.113469 0.319073 -0.124551
C19   C     C_R   0.275739 0.583158 0.646893 -0.134885
C20   C     C_R   0.727911 0.613460 0.319084 -0.124549
C21   C     C_R   0.743655 0.047356 0.637885 -0.135939
C22   C     C_R   0.256491 0.078668 0.318641 -0.160057
C23   C     C_R   0.243734 0.547572 0.638360 -0.135924
C24   C     C_R   0.756490 0.578656 0.318657 -0.160001
C25   C     C_R   0.684712 0.049263 0.589486 -0.172979
C26   C     C_R   0.312937 0.070487 0.375599 -0.187441
C27   C     C_R   0.184790 0.549401 0.589839 -0.172968
C28   C     C_R   0.812937 0.570478 0.375613 -0.187410
C29   C     C_R   0.656686 0.086980 0.548837 0.100866
C30   C     C_R   0.342710 0.097316 0.435156 0.110506
C31   C     C_R   0.156718 0.587049 0.548995 0.100874
C32   C     C_R   0.842711 0.597313 0.435163 0.110508
C33   C     C_R   0.689205 0.121590 0.553689 0.098251
C34   C     C_R   0.312499 0.131717 0.435805 0.096171
C35   C     C_R   0.189212 0.621664 0.553804 0.098182
C36   C     C_R   0.812500 0.631714 0.435808 0.096178
C37   C     C_R   0.660751 0.157079 0.507356 -0.108427
C38   C     C_R   0.340269 0.157606 0.495256 -0.089497
C39   C     C_R   0.160738 0.657084 0.507324 -0.108222
C40   C     C_R   0.840269 0.657606 0.495256 -0.089500
C41   C     C_R   0.601785 0.159853 0.461052 -0.204611
C42   C     C_R   0.396810 0.151441 0.552172 -0.218488
C43   C     C_R   0.101768 0.659788 0.460883 -0.204708
C44   C     C_R   0.896809 0.651442 0.552171 -0.218485
C45   C     C_R   0.682412 0.250491 0.365399 0.851542
C46   C     C_R   0.317489 0.250273 0.634621 0.842557
C47   C     C_R   0.182412 0.750491 0.365399 0.851491
C48   C     C_R   0.817489 0.750273 0.634621 0.842554
C49   C     C_R   0.570035 0.126992 0.458771 -0.200090
C50   C     C_R   0.426958 0.118525 0.551931 -0.192829
C51   C     C_R   0.070033 0.626921 0.458618 -0.199963
C52   C     C_R   0.926958 0.618525 0.551930 -0.192820
C53   C     C_R   0.596945 0.090861 0.502285 -0.110326
C54   C     C_R   0.401038 0.091297 0.494575 -0.126512
C55   C     C_R   0.096964 0.590855 0.502295 -0.110495
C56   C     C_R   0.901038 0.591296 0.494577 -0.126521
C57   C     C_R   0.910336 0.230446 0.747351 -0.197445
C58   C     C_R   0.090339 0.230940 0.252713 -0.198279
C59   C     C_R   0.410329 0.730434 0.747351 -0.197451
C60   C     C_R   0.590338 0.730939 0.252714 -0.198276
C61   C     C_R   0.946439 0.228861 0.819254 -0.162251
C62   C     C_R   0.054732 0.229143 0.180933 -0.164678
C63   C     C_R   0.446431 0.728847 0.819254 -0.162266
C64   C     C_R   0.554730 0.729143 0.180934 -0.164679
C65   C     C_R   0.927794 0.243820 0.854653 0.086989
C66   C     C_R   0.073818 0.243640 0.145625 0.085679
C67   C     C_R   0.427790 0.743816 0.854654 0.086988
C68   C     C_R   0.573815 0.743641 0.145625 0.085686
C69   C     C_R   0.872751 0.260618 0.817319 -0.159456
C70   C     C_R   0.128910 0.260077 0.182988 -0.160657
C71   C     C_R   0.372752 0.760624 0.817320 -0.159456
C72   C     C_R   0.628907 0.760079 0.182986 -0.160657
C73   C     C_R   0.837012 0.262892 0.745514 -0.188944
C74   C     C_R   0.164193 0.262556 0.254730 -0.190432
C75   C     C_R   0.337014 0.762899 0.745515 -0.188935
C76   C     C_R   0.664191 0.762557 0.254728 -0.190430
C77   C     C_R   0.855554 0.247724 0.710130 -0.033157
C78   C     C_R   0.145100 0.247952 0.289953 -0.035532
C79   C     C_R   0.355552 0.747722 0.710131 -0.033191
C80   C     C_R   0.645099 0.747952 0.289953 -0.035532
C81   C     C_R   0.035972 0.242446 0.070030 0.282282
C82   C     C_R   0.965804 0.242533 0.930278 0.282536
C83   C     C_R   0.535969 0.742445 0.070030 0.282277
C84   C     C_R   0.465801 0.742530 0.930278 0.282532
C85   C     C_R   0.751020 0.379615 0.394318 -0.172483
C86   C     C_R   0.244745 0.360446 0.622828 -0.170524
C87   C     C_R   0.251016 0.879666 0.394381 -0.172456
C88   C     C_R   0.744738 0.860428 0.622849 -0.170493
C89   C     C_R   0.808748 0.309925 0.497462 0.872914
C90   C     C_R   0.189788 0.309805 0.499560 0.870946
C91   C     C_R   0.308744 0.809925 0.497453 0.872926
C92   C     C_R   0.689788 0.809805 0.499560 0.870948
C93   C     C_R   0.724144 0.416239 0.352062 -0.137444
C94   C     C_R   0.272296 0.386846 0.680673 -0.127588
C95   C     C_R   0.224148 0.916315 0.352183 -0.137464
C96   C     C_R   0.772286 0.886817 0.680708 -0.127601
C97   C     C_R   0.756033 0.451867 0.360434 -0.132985
C98   C     C_R   0.243655 0.421557 0.681194 -0.156954
C99   C     C_R   0.256050 0.951942 0.360580 -0.132976
C100  C     C_R   0.743648 0.921530 0.681229 -0.157109
C101  C     C_R   0.814968 0.450264 0.409260 -0.173303
C102  C     C_R   0.187136 0.429627 0.624352 -0.188100
C103  C     C_R   0.314989 0.950312 0.409370 -0.173285
C104  C     C_R   0.687133 0.929614 0.624373 -0.188174
C105  C     C_R   0.843161 0.412798 0.450572 0.100320
C106  C     C_R   0.157349 0.402772 0.564819 0.109869
C107  C     C_R   0.343169 0.912821 0.450621 0.100293
C108  C     C_R   0.657348 0.902766 0.564830 0.109859
C109  C     C_R   0.810748 0.378153 0.445861 0.101030
C110  C     C_R   0.187582 0.368417 0.564126 0.098785
C111  C     C_R   0.310748 0.878177 0.445895 0.101023
C112  C     C_R   0.687579 0.868409 0.564137 0.098779
C113  C     C_R   0.839277 0.342922 0.492706 -0.106409
C114  C     C_R   0.159747 0.342428 0.504769 -0.088971
C115  C     C_R   0.339273 0.842923 0.492696 -0.106468
C116  C     C_R   0.659747 0.842429 0.504769 -0.088967
C117  C     C_R   0.898241 0.340399 0.539461 -0.204807
C118  C     C_R   0.103151 0.348483 0.447965 -0.218010
C119  C     C_R   0.398239 0.840377 0.539412 -0.204761
C120  C     C_R   0.603154 0.848491 0.447953 -0.218008
C121  C     C_R   0.929924 0.373286 0.541684 -0.199051
C122  C     C_R   0.073010 0.381401 0.448203 -0.192217
C123  C     C_R   0.429927 0.873263 0.541641 -0.199074
C124  C     C_R   0.573014 0.881410 0.448192 -0.192187
C125  C     C_R   0.902941 0.409191 0.497640 -0.110890
C126  C     C_R   0.098982 0.408711 0.505470 -0.126475
C127  C     C_R   0.402947 0.909189 0.497644 -0.110835
C128  C     C_R   0.598984 0.908713 0.505470 -0.126492
C129  C     C_R   0.062674 0.441273 0.501545 0.871337
C130  C     C_R   0.938349 0.441002 0.499360 0.874965
C131  C     C_R   0.562674 0.941274 0.501546 0.871285
C132  C     C_R   0.438354 0.940999 0.499361 0.874964
C133  C     C_R   0.817621 0.249494 0.634632 0.851010
C134  C     C_R   0.182473 0.249697 0.365360 0.842286
C135  C     C_R   0.317621 0.749493 0.634632 0.851000
C136  C     C_R   0.682473 0.749697 0.365360 0.842285
C137  C     C_R   0.561553 0.059064 0.500609 0.874689
C138  C     C_R   0.437360 0.058745 0.498473 0.870962
C139  C     C_R   0.061566 0.559055 0.500612 0.874707
C140  C     C_R   0.937360 0.558745 0.498474 0.871027
C141  C     C_R   0.640961 0.215451 0.253687 -0.185974
C142  C     C_R   0.357550 0.215351 0.746707 -0.186059
C143  C     C_R   0.140956 0.715448 0.253686 -0.185997
C144  C     C_R   0.857545 0.715353 0.746706 -0.186055
C145  C     C_R   0.604479 0.216106 0.181875 -0.160887
C146  C     C_R   0.392887 0.216138 0.818443 -0.160846
C147  C     C_R   0.104475 0.716103 0.181875 -0.160891
C148  C     C_R   0.892881 0.716140 0.818443 -0.160847
C149  C     C_R   0.571327 0.253113 0.145379 0.086826
C150  C     C_R   0.425372 0.253179 0.854395 0.089174
C151  C     C_R   0.071326 0.753112 0.145379 0.086825
C152  C     C_R   0.925371 0.753179 0.854396 0.089178
C153  C     C_R   0.574955 0.289436 0.181669 -0.158444
C154  C     C_R   0.422166 0.289429 0.817630 -0.163153
C155  C     C_R   0.074957 0.789437 0.181669 -0.158444
C156  C     C_R   0.922170 0.789427 0.817631 -0.163162
C157  C     C_R   0.610860 0.288506 0.253630 -0.200689
C158  C     C_R   0.387440 0.288357 0.745788 -0.208286
C159  C     C_R   0.110862 0.788507 0.253630 -0.200673
C160  C     C_R   0.887444 0.788355 0.745789 -0.208296
H1    H     H_    0.666229 0.186551 0.280818 0.156737
H2    H     H_    0.332759 0.186436 0.719990 0.155733
H3    H     H_    0.166222 0.686548 0.280818 0.156733
H4    H     H_    0.832751 0.686439 0.719989 0.155736
H5    H     H_    0.925453 0.218614 0.720942 0.154028
H6    H     H_    0.074838 0.219479 0.279011 0.155419
H7    H     H_    0.425443 0.718594 0.720941 0.154043
H8    H     H_    0.574837 0.719478 0.279013 0.155419
H9    H     H_    0.988692 0.215604 0.847079 0.147424
H10   H     H_    0.012457 0.216141 0.153128 0.148347
H11   H     H_    0.488680 0.715583 0.847079 0.147425
H12   H     H_    0.512455 0.716140 0.153130 0.148342
H13   H     H_    0.857595 0.272575 0.843621 0.149124
H14   H     H_    0.144408 0.271641 0.156739 0.149454
H15   H     H_    0.357599 0.772589 0.843622 0.149125
H16   H     H_    0.644403 0.771644 0.156736 0.149450
H17   H     H_    0.794723 0.276083 0.717681 0.156609
H18   H     H_    0.206539 0.275444 0.282654 0.157267
H19   H     H_    0.294729 0.776098 0.717683 0.156619
H20   H     H_    0.706537 0.775447 0.282651 0.157267
H21   H     H_    0.919800 0.313200 0.575202 0.157878
H22   H     H_    0.082474 0.327970 0.402789 0.146880
H23   H     H_    0.419796 0.813162 0.575120 0.157913
H24   H     H_    0.582478 0.827985 0.402769 0.146867
H25   H     H_    0.724603 0.352523 0.385561 0.145246
H26   H     H_    0.268587 0.333635 0.624823 0.136899
H27   H     H_    0.224589 0.852575 0.385604 0.145270
H28   H     H_    0.768578 0.833617 0.624841 0.136876
H29   H     H_    0.678433 0.417130 0.313230 0.134291
H30   H     H_    0.316044 0.380422 0.725102 0.137555
H31   H     H_    0.178434 0.917227 0.313375 0.134285
H32   H     H_    0.816031 0.880385 0.725145 0.137571
H33   H     H_    0.838178 0.478712 0.415305 0.134550
H34   H     H_    0.168845 0.457323 0.629423 0.161593
H35   H     H_    0.338213 0.978757 0.415442 0.134495
H36   H     H_    0.668850 0.957319 0.629439 0.161686
H37   H     H_    0.602644 0.187792 0.154977 0.149728
H38   H     H_    0.394426 0.187872 0.845697 0.149291
H39   H     H_    0.102637 0.687788 0.154977 0.149728
H40   H     H_    0.894417 0.687875 0.845696 0.149289
H41   H     H_    0.975734 0.370560 0.577562 0.162160
H42   H     H_    0.028726 0.385136 0.403292 0.172557
H43   H     H_    0.475737 0.870520 0.577486 0.162124
H44   H     H_    0.528730 0.885150 0.403272 0.172556
H45   H     H_    0.549599 0.318282 0.154480 0.145879
H46   H     H_    0.447021 0.318303 0.844378 0.145916
H47   H     H_    0.049603 0.818283 0.154481 0.145882
H48   H     H_    0.947029 0.818299 0.844379 0.145918
H49   H     H_    0.613090 0.316803 0.280847 0.146489
H50   H     H_    0.385522 0.316604 0.718218 0.150074
H51   H     H_    0.113094 0.816805 0.280847 0.146486
H52   H     H_    0.885530 0.816601 0.718220 0.150084
H53   H     H_    0.580261 0.187230 0.425693 0.160184
H54   H     H_    0.417442 0.171876 0.597425 0.148395
H55   H     H_    0.080234 0.687114 0.425409 0.160060
H56   H     H_    0.917441 0.671878 0.597421 0.148399
H57   H     H_    0.775508 0.146868 0.613844 0.151355
H58   H     H_    0.231603 0.166685 0.374917 0.140577
H59   H     H_    0.275477 0.647032 0.613999 0.151260
H60   H     H_    0.731605 0.666684 0.374917 0.140576
H61   H     H_    0.821429 0.081797 0.685020 0.138477
H62   H     H_    0.184227 0.119987 0.274544 0.142933
H63   H     H_    0.321465 0.582084 0.685508 0.138486
H64   H     H_    0.684228 0.619977 0.274555 0.142931
H65   H     H_    0.764481 0.018319 0.669049 0.137183
H66   H     H_    0.234862 0.057863 0.273781 0.133862
H67   H     H_    0.264590 0.518589 0.669674 0.137003
H68   H     H_    0.734861 0.557847 0.273803 0.133833
H69   H     H_    0.661332 0.020860 0.583200 0.134140
H70   H     H_    0.331182 0.042718 0.370615 0.161437
H71   H     H_    0.161455 0.520989 0.583622 0.134317
H72   H     H_    0.831184 0.542708 0.370637 0.161391
N1    N     N_R   0.515086 0.291551 0.033799 -0.178517
N2    N     N_R   0.480796 0.291570 0.965070 -0.179331
N3    N     N_R   0.015088 0.791550 0.033800 -0.178513
N4    N     N_R   0.980798 0.791569 0.965071 -0.179329
N5    N     N_R   0.480713 0.215482 0.965994 -0.176810
N6    N     N_R   0.515232 0.215462 0.034617 -0.176666
N7    N     N_R   0.980708 0.715481 0.965994 -0.176810
N8    N     N_R   0.015227 0.715461 0.034617 -0.176670
N9    N     N_R   0.944506 0.242577 0.964100 -0.177473
N10   N     N_R   0.057293 0.242319 0.036220 -0.177940
N11   N     N_R   0.444502 0.742587 0.964101 -0.177477
N12   N     N_R   0.557290 0.742307 0.036220 -0.177938
N13   N     N_R   0.978988 0.242381 0.032778 -0.176468
N14   N     N_R   0.022797 0.242202 0.967518 -0.176487
N15   N     N_R   0.478986 0.742392 0.032778 -0.176464
N16   N     N_R   0.522793 0.742188 0.967518 -0.176486
O1    O     O_R   0.678340 0.230070 0.500020 -0.617819
O2    O     O_R   0.321660 0.230070 0.499980 -0.616106
O3    O     O_R   0.178340 0.730070 0.500020 -0.617792
O4    O     O_R   0.821660 0.730070 0.499980 -0.616104
O5    O     O_R   0.074600 0.454200 0.557500 -0.641821
O6    O     O_R   0.925400 0.454200 0.442500 -0.628357
O7    O     O_R   0.574600 0.954200 0.557500 -0.641801
O8    O     O_R   0.425400 0.954200 0.442500 -0.628332
O9    O     O_R   0.517070 0.045810 0.442480 -0.614754
O10   O     O_R   0.482930 0.045810 0.557520 -0.615964
O11   O     O_R   0.017070 0.545810 0.442480 -0.614770
O12   O     O_R   0.982930 0.545810 0.557520 -0.615954
O13   O     O_R   0.574570 0.045820 0.557490 -0.628185
O14   O     O_R   0.425430 0.045820 0.442510 -0.641964
O15   O     O_R   0.074570 0.545820 0.557490 -0.628252
O16   O     O_R   0.925430 0.545820 0.442510 -0.641949
O17   O     O_R   0.730080 0.178340 0.500000 -0.621971
O18   O     O_R   0.269920 0.178340 0.500000 -0.619329
O19   O     O_R   0.230080 0.678340 0.500000 -0.621938
O20   O     O_R   0.769920 0.678340 0.500000 -0.619326
O21   O     O_R   0.673200 0.275870 0.398140 -0.630871
O22   O     O_R   0.326800 0.275870 0.601860 -0.627763
O23   O     O_R   0.173200 0.775870 0.398140 -0.630890
O24   O     O_R   0.826800 0.775870 0.601860 -0.627760
O25   O     O_R   0.724950 0.224150 0.398130 -0.617458
O26   O     O_R   0.275050 0.224150 0.601870 -0.618702
O27   O     O_R   0.224950 0.724150 0.398130 -0.617471
O28   O     O_R   0.775050 0.724150 0.601870 -0.618705
O29   O     O_R   0.769940 0.321680 0.500000 -0.620806
O30   O     O_R   0.230060 0.321680 0.500000 -0.619161
O31   O     O_R   0.269940 0.821680 0.500000 -0.620813
O32   O     O_R   0.730060 0.821680 0.500000 -0.619160
O33   O     O_R   0.821690 0.269960 0.499980 -0.617459
O34   O     O_R   0.178310 0.269960 0.500020 -0.615560
O35   O     O_R   0.321690 0.769960 0.499980 -0.617465
O36   O     O_R   0.678310 0.769960 0.500020 -0.615559
O37   O     O_R   0.775070 0.275880 0.601870 -0.616493
O38   O     O_R   0.224930 0.275880 0.398130 -0.617541
O39   O     O_R   0.275070 0.775880 0.601870 -0.616479
O40   O     O_R   0.724930 0.775880 0.398130 -0.617542
O41   O     O_R   0.826820 0.224150 0.601850 -0.633363
O42   O     O_R   0.173180 0.224150 0.398150 -0.629813
O43   O     O_R   0.326820 0.724150 0.601850 -0.633339
O44   O     O_R   0.673180 0.724150 0.398150 -0.629812
O45   O     O_R   0.017100 0.454190 0.442490 -0.615917
O46   O     O_R   0.982900 0.454190 0.557510 -0.614848
O47   O     O_R   0.517100 0.954190 0.442490 -0.615918
O48   O     O_R   0.482900 0.954190 0.557510 -0.614843
Zn1   Zn    Zn3+2 0.715460 0.284550 0.500010 0.955407
Zn2   Zn    Zn3+2 0.284540 0.284550 0.499990 0.959250
Zn3   Zn    Zn3+2 0.215460 0.784550 0.500010 0.955413
Zn4   Zn    Zn3+2 0.784540 0.784550 0.499990 0.959250
Zn5   Zn    Zn3+2 0.784560 0.215470 0.499990 0.953446
Zn6   Zn    Zn3+2 0.215440 0.215470 0.500010 0.958006
Zn7   Zn    Zn3+2 0.284560 0.715470 0.499990 0.953476
Zn8   Zn    Zn3+2 0.715440 0.715470 0.500010 0.958009
Zn9   Zn    Zn3+2 0.961620 0.500000 0.423200 0.950370
Zn10  Zn    Zn3+2 0.038380 0.500000 0.576800 0.950456
Zn11  Zn    Zn3+2 0.461620 0.000000 0.423200 0.950395
Zn12  Zn    Zn3+2 0.538380 0.000000 0.576800 0.950505
H73   H     H_    0.524240 0.129906 0.423265 0.161822
H74   H     H_    0.471208 0.114724 0.596916 0.172676
H75   H     H_    0.024231 0.629783 0.422999 0.161927
H76   H     H_    0.971207 0.614725 0.596914 0.172680
H77   H     H_    0.735099 0.480714 0.328768 0.136523
H78   H     H_    0.265295 0.442381 0.726032 0.133511
H79   H     H_    0.235123 0.980809 0.328962 0.136572
H80   H     H_    0.765287 0.942348 0.726074 0.133603

loop_
_geom_bond_atom_site_label_1
_geom_bond_atom_site_label_2
_ccdc_geom_bond_type
C99   C103  A    
O17   Zn5   S    
C90   O34   A    
C142  C146  A    
O19   Zn7   S    
O4    Zn4   S    
C26   H70   S    
C46   O26   A    
N9    N13   A    
C86   C110  A    
C154  C158  A    
C155  H47   S    
C56   C140  S    
C131  O7    A    
C7    C159  A    
C29   C33   A    
C100  C104  A    
C55   C139  S    
O6    Zn9   S    
O44   Zn8   S    
C149  C153  A    
C146  C150  A    
C152  C156  A    
O2    Zn2   S    
C70   C74   A    
O13   Zn12  S    
C151  C155  A    
O14   Zn11  S    
C75   H19   S    
C141  C145  A    
O22   Zn2   S    
C3    C39   S    
C144  H4    S    
C69   H13   S    
O26   Zn6   S    
C41   C49   A    
C118  H22   S    
C25   C29   A    
C62   H10   S    
C89   C113  S    
C27   C31   A    
C28   C32   A    
C4    O4    A    
C82   N14   A    
C148  H40   S    
C126  C129  S    
C98   C102  A    
C83   N12   A    
C17   C21   A    
C132  O48   A    
C133  O41   A    
C81   N10   A    
C19   C23   A    
C94   H30   S    
C13   C33   A    
C41   H53   S    
C74   H18   S    
C129  O45   A    
C68   C72   A    
C20   H64   S    
C98   H78   S    
N10   N14   A    
C78   C134  S    
C130  O6    A    
C137  O9    A    
O32   Zn4   S    
C53   C137  S    
C61   H9    S    
C59   H7    S    
C10   N1    A    
C140  O12   A    
C44   H56   S    
C68   C83   S    
C57   C61   A    
O46   Zn10  S    
C119  C123  A    
C130  O46   A    
C59   C63   A    
C123  H43   S    
C60   C64   A    
C121  H41   S    
C65   C82   S    
O30   Zn2   S    
C49   C53   A    
C134  O38   A    
C95   C99   A    
C90   C114  S    
C156  H48   S    
C17   H61   S    
C132  O8    A    
C107  C127  A    
C61   C65   A    
C12   N8    A    
C57   H5    S    
C83   N15   A    
C73   C77   A    
C14   H58   S    
C103  C107  A    
C75   C79   A    
O16   Zn9   S    
C138  O10   A    
C157  H49   S    
C139  O15   A    
C30   C34   A    
C7    C143  A    
O11   Zn9   S    
C159  H51   S    
O8    Zn11  S    
C66   C70   A    
C30   C54   A    
C64   C68   A    
C3    O3    A    
C10   C149  S    
C1    O1    A    
C2    O18   A    
O31   Zn3   S    
C118  C122  A    
C85   C93   A    
C4    C40   S    
C71   H15   S    
C87   C95   A    
O18   Zn6   S    
C91   O35   A    
N1    N2    A    
C28   H72   S    
C51   C55   A    
C44   C52   A    
C46   O22   A    
N5    N6    A    
C6    C158  A    
C85   H25   S    
C62   C66   A    
C155  C159  A    
C156  C160  A    
O34   Zn6   S    
C87   H27   S    
C116  C120  A    
O45   Zn9   S    
C92   O32   A    
C147  C151  A    
C121  C125  A    
C120  H24   S    
C2    C38   S    
C123  C127  A    
C89   O29   A    
C52   H76   S    
C119  H23   S    
C108  C128  A    
C91   O31   A    
C70   H14   S    
C42   C50   A    
C153  H45   S    
C48   O28   A    
C129  O5    A    
C26   C30   A    
C115  C119  A    
C9    N5    A    
C113  C117  A    
C15   H59   S    
C128  C131  S    
C93   C97   A    
C112  C116  A    
C21   C25   A    
C60   C80   A    
C18   C22   A    
C107  C111  A    
C76   C80   A    
C146  H38   S    
C14   C34   A    
C22   H66   S    
C93   H29   S    
C13   C17   A    
C84   N16   A    
C31   C55   A    
C96   H32   S    
C99   H79   S    
C92   O36   A    
C16   C36   A    
C45   O25   A    
C96   C100  A    
C16   H60   S    
C47   O27   A    
C37   C41   A    
C58   H6    S    
C47   O23   A    
C40   C44   A    
C48   O24   A    
C140  O16   A    
C137  O13   A    
C58   C62   A    
C12   N3    A    
O47   Zn11  S    
C88   C96   A    
O41   Zn5   S    
C147  H39   S    
N7    N8    A    
O43   Zn7   S    
C15   C19   A    
C25   H69   S    
C50   C54   A    
O39   Zn3   S    
C114  C118  A    
C85   C109  A    
C87   C111  A    
C94   C98   A    
C102  H34   S    
C143  H3    S    
C105  C109  A    
C138  O14   A    
C139  O11   A    
N3    N4    A    
C69   C73   A    
C6    C142  A    
O24   Zn4   S    
C144  C148  A    
C124  C128  A    
C103  H35   S    
C100  H80   S    
C101  H33   S    
C51   H75   S    
C9    C150  S    
C3    O19   A    
C24   C28   A    
C19   H63   S    
C136  O44   A    
C59   C79   A    
C5    C45   S    
C33   C37   A    
C108  C112  A    
C82   N9    A    
C7    C47   S    
C64   H12   S    
C35   C39   A    
C105  C125  A    
C8    C48   S    
C57   C77   A    
C63   H11   S    
C104  H36   S    
O9    Zn11  S    
O10   Zn12  S    
O7    Zn12  S    
C86   H26   S    
C5    C157  A    
C31   C35   A    
C8    C160  A    
C32   C36   A    
C104  C108  A    
C11   N4    A    
O37   Zn1   S    
C9    N2    A    
C134  O42   A    
O15   Zn10  S    
C76   H20   S    
C142  H2    S    
C4    O20   A    
C79   C135  S    
C106  C126  A    
C89   O33   A    
C80   C136  S    
C90   O30   A    
C122  H42   S    
O23   Zn3   S    
O48   Zn12  S    
C66   C81   S    
C43   C51   A    
C65   C69   A    
C91   C115  S    
C84   N11   A    
C67   C71   A    
C72   H16   S    
C153  C157  A    
C18   H62   S    
O3    Zn3   S    
C58   C78   A    
C88   C112  A    
N12   N16   A    
C22   C26   A    
O5    Zn10  S    
C13   H57   S    
C32   C56   A    
C145  C149  A    
C158  H50   S    
O1    Zn1   S    
C141  H1    S    
C14   C18   A    
O20   Zn8   S    
C43   H55   S    
O21   Zn1   S    
C143  C147  A    
C60   H8    S    
C124  H44   S    
O25   Zn5   S    
C38   C42   A    
C2    O2    A    
O27   Zn7   S    
C11   N7    A    
C117  C121  A    
C127  C132  S    
C86   C94   A    
C125  C130  S    
C20   C24   A    
C154  H46   S    
C102  C106  A    
O42   Zn6   S    
C23   C27   A    
C74   C78   A    
C16   C20   A    
C73   H17   S    
C67   C84   S    
C97   H77   S    
C12   C151  S    
C77   C133  S    
C49   H73   S    
C15   C35   A    
C50   H74   S    
C101  C105  A    
C160  H52   S    
C63   C67   A    
C148  C152  A    
C81   N13   A    
C36   C40   A    
C39   C43   A    
O12   Zn10  S    
C122  C126  A    
C145  H37   S    
C42   H54   S    
C92   C116  S    
C5    C141  A    
C131  O47   A    
C72   C76   A    
C8    C144  A    
C109  C113  A    
O28   Zn8   S    
O29   Zn1   S    
C27   H71   S    
C10   N6    A    
C135  O39   A    
C136  O40   A    
O33   Zn5   S    
C106  C110  A    
O35   Zn7   S    
C110  C114  A    
O36   Zn8   S    
C6    C46   S    
C34   C38   A    
C23   H67   S    
C95   H31   S    
C21   H65   S    
C133  O37   A    
C71   C75   A    
O40   Zn4   S    
C54   C138  S    
C29   C53   A    
C45   O21   A    
C117  H21   S    
N11   N15   A    
C52   C56   A    
C11   C152  S    
C88   H28   S    
C1    O17   A    
C150  C154  A    
O38   Zn2   S    
C111  C115  A    
C24   H68   S    
C135  O43   A    
C97   C101  A    
C120  C124  A    
C1    C37   S    
