data_mof_unit_30513.cif
_audit_creation_date              2012-12-11T16:19:07-0500
_audit_creation_method            fapswitch 2.2
_symmetry_space_group_name_H-M    P1
_symmetry_Int_Tables_number       1
_space_group_crystal_system       triclinic
_cell_length_a                    6.999401
_cell_length_b                    31.271812
_cell_length_c                    35.039913
_cell_angle_alpha                 90.000045
_cell_angle_beta                  90.00048
_cell_angle_gamma                 89.999773
_cell_volume                      7669.67464131

loop_
_atom_site_label
_atom_site_type_symbol
_atom_type_description
_atom_site_fract_x
_atom_site_fract_y
_atom_site_fract_z
_atom_type_partial_charge
O1    O     O_R   0.417270 0.211480 0.210950 -0.537518
O2    O     O_R   0.582730 0.788520 0.789050 -0.538987
O3    O     O_R   0.582730 0.788520 0.710950 -0.537518
O4    O     O_R   0.417270 0.211480 0.289050 -0.538986
O5    O     O_R   0.917270 0.288520 0.289050 -0.537518
O6    O     O_R   0.082730 0.711480 0.710950 -0.538979
O7    O     O_R   0.082730 0.711480 0.789050 -0.537518
O8    O     O_R   0.917270 0.288520 0.210950 -0.538985
O9    O     O_R   0.746940 0.206370 0.288750 -0.539969
O10   O     O_R   0.253060 0.793630 0.711250 -0.540016
O11   O     O_R   0.253060 0.793630 0.788750 -0.539970
O12   O     O_R   0.746940 0.206370 0.211250 -0.540014
O13   O     O_R   0.246940 0.293630 0.211250 -0.539968
O14   O     O_R   0.753060 0.706370 0.788750 -0.540016
O15   O     O_R   0.753060 0.706370 0.711250 -0.539970
O16   O     O_R   0.246940 0.293630 0.288750 -0.540015
C1    C     C_R   0.578154 0.196279 0.302001 0.729090
C2    C     C_R   0.421668 0.803817 0.698138 0.727756
C3    C     C_R   0.421847 0.803720 0.802001 0.729088
C4    C     C_R   0.578331 0.196184 0.198138 0.727759
C5    C     C_R   0.078152 0.303721 0.197999 0.729089
C6    C     C_R   0.921669 0.696184 0.801862 0.727760
C7    C     C_R   0.921846 0.696280 0.697999 0.729088
C8    C     C_R   0.078331 0.303816 0.301862 0.727758
O17   O     O_3   0.583760 0.276950 0.250000 -0.369231
O18   O     O_3   0.416240 0.723050 0.750000 -0.369228
O19   O     O_3   0.083760 0.223050 0.250000 -0.369232
O20   O     O_3   0.916240 0.776950 0.750000 -0.369234
V1    V     V_3+5 0.858600 0.245000 0.250000 1.421922
V2    V     V_3+5 0.141400 0.755000 0.750000 1.421929
V3    V     V_3+5 0.358600 0.255000 0.250000 1.421921
V4    V     V_3+5 0.641400 0.745000 0.750000 1.421929
C9    C     C_R   0.978510 0.590208 0.536585 0.573648
C10   C     C_R   0.043923 0.412563 0.461804 0.580268
C11   C     C_R   0.021413 0.409793 0.036587 0.573616
C12   C     C_R   0.956081 0.587438 0.961804 0.580281
C13   C     C_R   0.478566 0.909792 0.963414 0.573620
C14   C     C_R   0.543934 0.087436 0.038197 0.580268
C15   C     C_R   0.521419 0.090208 0.463413 0.573611
C16   C     C_R   0.456074 0.912563 0.538196 0.580274
N1    N     N_R   0.983008 0.576116 0.573680 -0.553759
N2    N     N_R   0.053379 0.426560 0.424705 -0.555841
N3    N     N_R   0.016956 0.423886 0.073682 -0.553790
N4    N     N_R   0.946601 0.573441 0.924705 -0.555837
N5    N     N_R   0.483035 0.923885 0.926319 -0.553792
N6    N     N_R   0.553396 0.073439 0.075296 -0.555841
N7    N     N_R   0.516964 0.076114 0.426318 -0.553796
N8    N     N_R   0.446599 0.926560 0.575295 -0.555836
C17   C     C_R   0.006748 0.533609 0.581848 0.630911
C18   C     C_R   0.056945 0.469480 0.416713 0.621121
C19   C     C_R   0.993242 0.466394 0.081850 0.630978
C20   C     C_R   0.943004 0.530521 0.916714 0.621120
C21   C     C_R   0.506760 0.966392 0.918151 0.630981
C22   C     C_R   0.556971 0.030519 0.083288 0.621107
C23   C     C_R   0.493248 0.033606 0.418151 0.630994
C24   C     C_R   0.443010 0.969480 0.583287 0.621115
C25   C     C_R   0.020856 0.503244 0.552354 -0.077373
C26   C     C_R   0.037924 0.499845 0.446104 -0.073407
C27   C     C_R   0.979133 0.496759 0.052356 -0.077251
C28   C     C_R   0.962008 0.500156 0.946106 -0.073411
C29   C     C_R   0.520873 0.996757 0.947646 -0.077246
C30   C     C_R   0.537962 0.000154 0.053896 -0.073400
C31   C     C_R   0.479136 0.003242 0.447645 -0.077227
C32   C     C_R   0.462016 0.999846 0.553895 -0.073405
C33   C     C_R   0.015856 0.516838 0.514085 -0.020271
C34   C     C_R   0.034391 0.486201 0.484325 -0.011806
C35   C     C_R   0.984098 0.483163 0.014086 -0.020274
C36   C     C_R   0.965570 0.513800 0.984326 -0.011801
C37   C     C_R   0.515891 0.983161 0.985915 -0.020281
C38   C     C_R   0.534421 0.013798 0.015675 -0.011787
C39   C     C_R   0.484102 0.016838 0.485915 -0.020280
C40   C     C_R   0.465573 0.986201 0.515675 -0.011793
C41   C     C_R   0.992261 0.560902 0.505595 -0.100731
C42   C     C_R   0.049634 0.442004 0.492723 -0.091711
C43   C     C_R   0.007654 0.439098 0.005596 -0.100832
C44   C     C_R   0.950365 0.557998 0.992723 -0.091720
C45   C     C_R   0.492317 0.939097 0.994404 -0.100835
C46   C     C_R   0.549648 0.057996 0.007278 -0.091711
C47   C     C_R   0.507662 0.060902 0.494404 -0.100851
C48   C     C_R   0.450361 0.942003 0.507278 -0.091716
C49   C     C_R   0.044591 0.459708 0.560636 -0.170636
C50   C     C_R   0.017942 0.543408 0.437725 -0.173403
C51   C     C_R   0.955432 0.540296 0.060637 -0.170594
C52   C     C_R   0.981946 0.456592 0.937727 -0.173379
C53   C     C_R   0.544594 0.040293 0.939365 -0.170596
C54   C     C_R   0.518001 0.956590 0.062274 -0.173406
C55   C     C_R   0.455431 0.959705 0.439364 -0.170587
C56   C     C_R   0.481959 0.043409 0.562274 -0.173388
C57   C     C_R   0.062554 0.429133 0.531624 -0.036043
C58   C     C_R   0.987873 0.573709 0.466540 -0.031599
C59   C     C_R   0.937474 0.570870 0.031625 -0.036076
C60   C     C_R   0.012002 0.426290 0.966542 -0.031572
C61   C     C_R   0.562557 0.070867 0.968376 -0.036078
C62   C     C_R   0.487945 0.926289 0.033459 -0.031566
C63   C     C_R   0.437469 0.929131 0.468376 -0.036081
C64   C     C_R   0.512015 0.073711 0.533459 -0.031564
O21   O     O_2   0.962933 0.632493 0.529968 -0.493165
O22   O     O_2   0.020389 0.370462 0.468553 -0.494319
O23   O     O_2   0.036960 0.367507 0.029971 -0.493118
O24   O     O_2   0.979642 0.629539 0.968552 -0.494319
O25   O     O_2   0.463013 0.867505 0.970030 -0.493114
O26   O     O_2   0.520388 0.129537 0.031449 -0.494322
O27   O     O_2   0.536965 0.132494 0.470030 -0.493109
O28   O     O_2   0.479628 0.870462 0.531449 -0.494323
O29   O     O_2   0.019798 0.520746 0.618521 -0.488550
O30   O     O_2   0.078273 0.482872 0.380352 -0.491190
O31   O     O_2   0.980219 0.479259 0.118523 -0.488550
O32   O     O_2   0.921661 0.517130 0.880353 -0.491186
O33   O     O_2   0.519792 0.979256 0.881478 -0.488553
O34   O     O_2   0.578297 0.017126 0.119649 -0.491193
O35   O     O_2   0.480226 0.020742 0.381478 -0.488550
O36   O     O_2   0.421674 0.982873 0.619648 -0.491190
H1    H     H_    0.054676 0.449333 0.590094 0.196638
H2    H     H_    0.016007 0.553897 0.408224 0.191856
H3    H     H_    0.945373 0.550672 0.090095 0.196641
H4    H     H_    0.983854 0.446102 0.908226 0.191847
H5    H     H_    0.554667 0.050669 0.909906 0.196643
H6    H     H_    0.516076 0.946101 0.091775 0.191850
H7    H     H_    0.445371 0.949329 0.409906 0.196641
H8    H     H_    0.483871 0.053899 0.591775 0.191846
C65   C     C_R   0.918742 0.396584 0.364308 0.488573
C66   C     C_R   0.810929 0.603577 0.630891 0.491069
C67   C     C_R   0.081247 0.603415 0.864309 0.488584
C68   C     C_R   0.189062 0.396423 0.130890 0.491166
C69   C     C_R   0.418752 0.103414 0.135692 0.488570
C70   C     C_R   0.310929 0.896422 0.869111 0.491166
C71   C     C_R   0.581243 0.896586 0.635692 0.488578
C72   C     C_R   0.689073 0.103578 0.369112 0.491184
C73   C     C_R   0.925817 0.366565 0.334505 -0.262353
C74   C     C_R   0.796401 0.632919 0.661207 -0.270134
C75   C     C_R   0.074180 0.633434 0.834507 -0.262368
C76   C     C_R   0.203606 0.367078 0.161204 -0.270281
C77   C     C_R   0.425822 0.133434 0.165494 -0.262348
C78   C     C_R   0.296387 0.867077 0.838797 -0.270283
C79   C     C_R   0.574175 0.866566 0.665494 -0.262364
C80   C     C_R   0.703618 0.132923 0.338798 -0.270307
H9    H     H_    0.820235 0.368147 0.311938 0.151772
H10   H     H_    0.680003 0.629770 0.681386 0.153971
H11   H     H_    0.179763 0.631852 0.811940 0.151774
H12   H     H_    0.320021 0.370224 0.181380 0.153951
H13   H     H_    0.320241 0.131852 0.188062 0.151773
H14   H     H_    0.179970 0.870223 0.818621 0.153950
H15   H     H_    0.679759 0.868148 0.688062 0.151771
H16   H     H_    0.820038 0.129778 0.318624 0.153947
C81   C     C_R   0.069775 0.335298 0.333409 -0.103302
C82   C     C_R   0.933261 0.665451 0.665852 -0.106523
C83   C     C_R   0.930225 0.664702 0.833409 -0.103298
C84   C     C_R   0.066732 0.334550 0.165853 -0.106476
C85   C     C_R   0.569775 0.164702 0.166591 -0.103306
C86   C     C_R   0.433266 0.834549 0.834148 -0.106473
C87   C     C_R   0.430221 0.835299 0.666591 -0.103300
C88   C     C_R   0.566737 0.165450 0.334148 -0.106466
C89   C     C_R   0.205595 0.334110 0.362862 -0.207893
C90   C     C_R   0.083208 0.668554 0.639329 -0.193423
C91   C     C_R   0.794402 0.665891 0.862861 -0.207887
C92   C     C_R   0.916760 0.331452 0.139334 -0.193440
C93   C     C_R   0.705597 0.165890 0.137139 -0.207882
C94   C     C_R   0.583239 0.831452 0.860666 -0.193441
C95   C     C_R   0.294397 0.834110 0.637139 -0.207892
C96   C     C_R   0.416759 0.168547 0.360665 -0.193441
H17   H     H_    0.317110 0.310087 0.362826 0.139996
H18   H     H_    0.189527 0.693563 0.641907 0.140838
H19   H     H_    0.682889 0.689915 0.862824 0.139997
H20   H     H_    0.810429 0.306446 0.141915 0.140847
H21   H     H_    0.817110 0.189913 0.137176 0.139995
H22   H     H_    0.689575 0.806447 0.858084 0.140847
H23   H     H_    0.182885 0.810087 0.637175 0.139993
H24   H     H_    0.310421 0.193551 0.358082 0.140849
C97   C     C_R   0.197138 0.363418 0.392994 -0.169032
C98   C     C_R   0.096503 0.639892 0.608855 -0.176948
C99   C     C_R   0.802853 0.636584 0.892993 -0.169056
C100  C     C_R   0.903455 0.360115 0.108861 -0.177069
C101  C     C_R   0.697146 0.136581 0.107007 -0.169023
C102  C     C_R   0.596541 0.860115 0.891139 -0.177074
C103  C     C_R   0.302848 0.863418 0.607007 -0.169047
C104  C     C_R   0.403457 0.139884 0.391138 -0.177095
H25   H     H_    0.302836 0.361622 0.415499 0.161874
H26   H     H_    0.212552 0.643275 0.588667 0.151437
H27   H     H_    0.697153 0.638380 0.915497 0.161865
H28   H     H_    0.787390 0.356735 0.088677 0.151454
H29   H     H_    0.802844 0.138377 0.084503 0.161869
H30   H     H_    0.712606 0.856735 0.911323 0.151450
H31   H     H_    0.197148 0.861623 0.584502 0.161866
H32   H     H_    0.287390 0.143263 0.411321 0.151453
C105  C     C_R   0.056993 0.395579 0.393764 0.265518
C106  C     C_R   0.963556 0.606616 0.604652 0.278264
C107  C     C_R   0.942994 0.604421 0.893764 0.265545
C108  C     C_R   0.036417 0.393387 0.104655 0.278374
C109  C     C_R   0.557005 0.104419 0.106237 0.265512
C110  C     C_R   0.463575 0.893386 0.895346 0.278386
C111  C     C_R   0.442989 0.895580 0.606237 0.265537
C112  C     C_R   0.536424 0.106613 0.395346 0.278401
C113  C     C_2   0.109925 0.385026 0.543835 0.882900
O37   O     O_2   0.243374 0.365948 0.529070 -0.515753
O38   O     O_R   0.008412 0.366241 0.573829 -0.643157
H33   H     H_    0.055766 0.336413 0.580082 0.323852
C114  C     C_2   0.944324 0.617674 0.453635 0.887769
O39   O     O_2   0.793975 0.634710 0.462861 -0.509056
O40   O     O_R   0.070412 0.638559 0.428953 -0.641931
H34   H     H_    0.023855 0.668097 0.421484 0.323436
C115  C     C_2   0.890143 0.614979 0.043836 0.882914
O41   O     O_2   0.756698 0.634062 0.029074 -0.515746
O42   O     O_R   0.991690 0.633762 0.073827 -0.643156
H35   H     H_    0.944362 0.663592 0.080080 0.323853
C116  C     C_2   0.055495 0.382322 0.953636 0.887782
O43   O     O_2   0.205841 0.365280 0.962856 -0.509037
O44   O     O_R   0.929354 0.361441 0.928962 -0.641930
H36   H     H_    0.975875 0.331901 0.921492 0.323437
C117  C     C_2   0.609916 0.114975 0.956166 0.882912
O45   O     O_2   0.743364 0.134054 0.970931 -0.515751
O46   O     O_R   0.508394 0.133760 0.926173 -0.643155
H37   H     H_    0.555740 0.163588 0.919920 0.323853
C118  C     C_2   0.444424 0.882322 0.046364 0.887778
O47   O     O_2   0.294079 0.865283 0.037139 -0.509043
O48   O     O_R   0.570532 0.861439 0.071043 -0.641930
H38   H     H_    0.523993 0.831900 0.078511 0.323437
C119  C     C_2   0.390133 0.885022 0.456165 0.882915
O49   O     O_2   0.256684 0.865941 0.470926 -0.515748
O50   O     O_R   0.491681 0.866238 0.426175 -0.643155
H39   H     H_    0.444350 0.836409 0.419921 0.323852
C120  C     C_2   0.555513 0.117679 0.546364 0.887782
O51   O     O_2   0.705859 0.134720 0.537144 -0.509037
O52   O     O_R   0.429378 0.138561 0.571038 -0.641930
H40   H     H_    0.475902 0.168101 0.578507 0.323437
O53   O     O_3   0.781539 0.428268 0.363450 -0.525597
C121  C     C_3   0.630116 0.417022 0.388059 0.067033
H41   H     H_    0.673167 0.395964 0.412357 0.118859
H42   H     H_    0.519911 0.400269 0.370999 0.143486
C122  C     C_3   0.543956 0.457427 0.404966 -0.587526
H43   H     H_    0.477103 0.476988 0.382151 0.255319
H44   H     H_    0.434995 0.448683 0.426534 0.162541
H45   H     H_    0.655706 0.476656 0.419391 0.212380
O54   O     O_3   0.680590 0.570560 0.628026 -0.527871
C123  C     C_3   0.531834 0.582264 0.602799 0.087471
H46   H     H_    0.559858 0.611796 0.585677 0.108914
H47   H     H_    0.401211 0.587643 0.620013 0.154537
C124  C     C_3   0.493369 0.545801 0.575061 -0.608907
H48   H     H_    0.448426 0.516699 0.590848 0.240422
H49   H     H_    0.378851 0.555235 0.554884 0.164325
H50   H     H_    0.623168 0.538491 0.558193 0.209157
O55   O     O_3   0.218445 0.571731 0.863453 -0.525601
C125  C     C_3   0.369882 0.582979 0.888059 0.067047
H51   H     H_    0.326862 0.604055 0.912347 0.118842
H52   H     H_    0.480115 0.599714 0.870992 0.143515
C126  C     C_3   0.455984 0.542578 0.904984 -0.587532
H53   H     H_    0.522786 0.522996 0.882177 0.255316
H54   H     H_    0.564979 0.551326 0.926544 0.162543
H55   H     H_    0.344212 0.523369 0.919423 0.212354
O56   O     O_3   0.319403 0.429439 0.128023 -0.527891
C127  C     C_3   0.468325 0.417708 0.102845 0.087561
H56   H     H_    0.440623 0.388097 0.085811 0.108726
H57   H     H_    0.598959 0.412452 0.120090 0.154716
C128  C     C_3   0.506548 0.454082 0.075003 -0.609091
H58   H     H_    0.551129 0.483268 0.090709 0.240339
H59   H     H_    0.621254 0.444630 0.054876 0.164391
H60   H     H_    0.376752 0.461261 0.058088 0.209145
O57   O     O_3   0.281556 0.071729 0.136551 -0.525596
C129  C     C_3   0.130141 0.082971 0.111938 0.067028
H61   H     H_    0.173203 0.104022 0.087636 0.118869
H62   H     H_    0.019937 0.099730 0.128993 0.143474
C130  C     C_3   0.043973 0.042563 0.095038 -0.587511
H63   H     H_    0.977101 0.023010 0.117856 0.255321
H64   H     H_    0.935025 0.051303 0.073466 0.162536
H65   H     H_    0.155723 0.023327 0.080620 0.212393
O58   O     O_3   0.180585 0.929438 0.871979 -0.527895
C131  C     C_3   0.031659 0.917705 0.897155 0.087573
H66   H     H_    0.059349 0.888090 0.914185 0.108720
H67   H     H_    0.901022 0.912455 0.879911 0.154725
C132  C     C_3   0.993454 0.954076 0.925003 -0.609100
H68   H     H_    0.948896 0.983266 0.909302 0.240333
H69   H     H_    0.878739 0.944624 0.945128 0.164397
H70   H     H_    0.123252 0.961247 0.941920 0.209141
O59   O     O_3   0.718443 0.928270 0.636549 -0.525600
C133  C     C_3   0.869870 0.917022 0.611941 0.067043
H71   H     H_    0.826833 0.895956 0.587648 0.118850
H72   H     H_    0.980090 0.900278 0.629004 0.143499
C134  C     C_3   0.956000 0.957425 0.595025 -0.587528
H73   H     H_    0.022835 0.976996 0.617835 0.255316
H74   H     H_    0.064969 0.948680 0.573460 0.162542
H75   H     H_    0.844237 0.976646 0.580595 0.212370
O60   O     O_3   0.819416 0.070562 0.371980 -0.527897
C135  C     C_3   0.968369 0.082299 0.397149 0.087582
H76   H     H_    0.940729 0.111926 0.414166 0.108692
H77   H     H_    0.099005 0.087530 0.379900 0.154751
C136  C     C_3   0.006539 0.045941 0.425013 -0.609129
H78   H     H_    0.051043 0.016739 0.409324 0.240320
H79   H     H_    0.121285 0.055397 0.445130 0.164406
H80   H     H_    0.876744 0.038790 0.441936 0.209141

loop_
_geom_bond_atom_site_label_1
_geom_bond_atom_site_label_2
_ccdc_geom_bond_type
O17   V3    S    
O42   H35   S    
C88   C96   A    
C50   C58   A    
O18   V4    S    
O12   V1    S    
O19   V1    S    
C133  C134  S    
C96   C104  A    
C115  O41   D    
C64   C120  S    
C37   C45   A    
O52   H40   S    
C10   N2    A    
C11   N3    A    
C102  H30   S    
C56   C64   A    
C126  H55   S    
C65   O53   S    
O15   V4    S    
C102  C110  A    
C58   C114  S    
C29   C37   A    
C116  O43   D    
O16   V3    S    
C93   C101  A    
C30   C54   A    
C22   O34   S    
C135  H76   S    
C136  H78   S    
C123  H47   S    
O12   C4    A    
C98   H26   S    
O7    C6    A    
O8    V1    S    
N3    C108  S    
C42   C57   A    
C15   N7    A    
O59   C133  S    
C27   C51   A    
C41   C58   A    
C133  H71   S    
C122  H45   S    
C8    C81   S    
C26   C50   A    
C103  C111  A    
C130  H63   S    
C29   C53   A    
C74   C82   A    
C104  C112  A    
C38   C46   A    
C114  O39   D    
C46   C61   A    
C127  H57   S    
C98   C106  A    
C34   C42   A    
C124  H49   S    
C69   O57   S    
C45   C62   A    
O1    V3    S    
C3    C86   S    
C17   C25   A    
C4    C85   S    
C68   C76   A    
O3    C2    A    
O2    V4    S    
O57   C129  S    
N1    C17   A    
N7    C112  S    
C70   C110  A    
C16   N8    A    
N8    C111  S    
C60   C116  S    
C20   C28   A    
C27   C35   A    
C21   C29   A    
C26   C34   A    
O11   V2    S    
C113  O38   S    
C23   C31   A    
C125  H52   S    
C16   C48   A    
C70   O58   S    
C75   C83   A    
C56   H8    S    
C54   C62   A    
O58   C131  S    
C65   C73   A    
C119  O50   S    
C9    O21   S    
C113  O37   D    
C134  H74   S    
O9    V1    S    
C65   C105  A    
C37   C38   A    
C49   C57   A    
C100  H28   S    
C127  C128  S    
O15   C7    A    
N7    C23   A    
N5    C21   A    
O40   H34   S    
O16   C8    A    
O7    V2    S    
C95   C103  A    
C132  H68   S    
C115  O42   S    
C30   C38   A    
C99   H27   S    
C24   O36   S    
C53   C61   A    
C72   O60   S    
C71   O59   S    
C19   O31   S    
C11   O23   S    
C97   H25   S    
C80   C88   A    
C40   C48   A    
O13   V3    S    
O53   C121  S    
O5    V1    S    
C116  O44   S    
O17   V1    S    
C7    C82   S    
C125  C126  S    
O19   V3    S    
O44   H36   S    
C76   C84   A    
C5    C84   S    
C51   H3    S    
O20   V4    S    
C77   C85   A    
C50   H2    S    
C54   H6    S    
C33   C41   A    
C93   H21   S    
O50   H39   S    
C130  H64   S    
C75   H11   S    
C104  H32   S    
C136  H79   S    
C94   C102  A    
C17   O29   S    
C14   C46   A    
C91   H19   S    
C119  O49   D    
C118  O47   D    
C67   C75   A    
C92   C100  A    
C71   C111  A    
C39   C47   A    
C35   C36   A    
C89   H17   S    
C72   C112  A    
C123  C124  S    
C87   C95   A    
C44   C59   A    
C129  H62   S    
O48   H38   S    
C55   H7    S    
C120  O51   D    
C91   C99   A    
C124  H48   S    
C78   H14   S    
C49   H1    S    
O10   V2    S    
C52   C60   A    
C128  H59   S    
O46   H37   S    
C82   C90   A    
O11   C3    A    
N6    C22   A    
C24   C32   A    
C117  O45   D    
O56   C127  S    
C18   C26   A    
O13   C5    A    
C12   O24   S    
C36   C44   A    
O9    C1    A    
C48   C63   A    
C53   H5    S    
C68   O56   S    
C20   O32   S    
C59   C115  S    
C131  H67   S    
C43   C60   A    
N2    C18   A    
O4    C1    A    
N2    C105  S    
C9    C41   A    
O6    V2    S    
C72   C80   A    
C10   C42   A    
C114  O40   S    
C121  H41   S    
C121  H42   S    
C126  H54   S    
C12   C44   A    
C61   C117  S    
C122  H44   S    
C25   C49   A    
C52   H4    S    
C134  H75   S    
C129  C130  S    
C35   C43   A    
C123  H46   S    
N6    C109  S    
C13   N5    A    
C2    C87   S    
C74   H10   S    
C67   O55   S    
C83   C91   A    
C94   H22   S    
C103  H31   S    
C23   O35   S    
O54   C123  S    
O60   C135  S    
C69   C77   A    
C73   H9    S    
N8    C24   A    
C55   C63   A    
C117  O46   S    
O1    C4    A    
C32   C56   A    
C68   C108  A    
C86   C94   A    
C31   C55   A    
O2    C3    A    
C132  H70   S    
C135  H77   S    
C136  H80   S    
C90   H18   S    
C12   N4    A    
C11   C43   A    
C126  H53   S    
C101  C109  A    
C131  C132  S    
O8    C5    A    
N4    C20   A    
C130  H65   S    
C69   C109  A    
C63   C119  S    
O18   V2    S    
C132  H69   S    
C76   H12   S    
C121  C122  S    
C51   C59   A    
C77   H13   S    
C122  H43   S    
C99   C107  A    
C120  O52   S    
C28   C36   A    
C9    N1    A    
O14   C6    A    
C128  H60   S    
O20   V2    S    
C16   O28   S    
C127  H56   S    
C118  O48   S    
C81   C89   A    
C47   C64   A    
C80   H16   S    
C57   C113  S    
C92   H20   S    
C13   O25   S    
C28   C52   A    
C90   C98   A    
N3    C19   A    
C128  H58   S    
O5    C8    A    
C13   C45   A    
C97   C105  A    
O10   C2    A    
O55   C125  S    
C79   C87   A    
O6    C7    A    
C125  H51   S    
C79   H15   S    
C10   O22   S    
C95   H23   S    
N1    C106  S    
C129  H61   S    
C133  H72   S    
C73   C81   A    
C32   C40   A    
C67   C107  A    
O3    V4    S    
C71   C79   A    
C96   H24   S    
C14   N6    A    
O4    V3    S    
C66   C106  A    
C131  H66   S    
N4    C107  S    
C101  H29   S    
O38   H33   S    
C1    C88   S    
C62   C118  S    
N5    C110  S    
C39   C40   A    
C66   O54   S    
C19   C27   A    
C6    C83   S    
C70   C78   A    
C135  C136  S    
C14   O26   S    
C33   C34   A    
C124  H50   S    
C89   C97   A    
C18   O30   S    
C15   O27   S    
C22   C30   A    
C21   O33   S    
C84   C92   A    
C85   C93   A    
C134  H73   S    
O14   V4    S    
C31   C39   A    
C66   C74   A    
C100  C108  A    
C15   C47   A    
C25   C33   A    
C78   C86   A    
