data_mof_unit_12491.cif
_audit_creation_date              2012-12-11T14:33:04-0500
_audit_creation_method            fapswitch 2.2
_symmetry_space_group_name_H-M    P1
_symmetry_Int_Tables_number       1
_space_group_crystal_system       triclinic
_cell_length_a                    6.946574
_cell_length_b                    13.741049
_cell_length_c                    17.934537
_cell_angle_alpha                 112.378466
_cell_angle_beta                  95.619625
_cell_angle_gamma                 90.395846
_cell_volume                      1573.55854453

loop_
_atom_site_label
_atom_site_type_symbol
_atom_type_description
_atom_site_fract_x
_atom_site_fract_y
_atom_site_fract_z
_atom_type_partial_charge
O1    O     O_R   0.484560 0.544530 0.414330 -0.536309
O2    O     O_R   0.197040 0.638810 0.585080 -0.538905
O3    O     O_R   0.026800 0.455470 0.585670 -0.541458
C1    C     C_R   0.374246 0.678864 0.610506 0.685150
O4    O     O_R   0.155000 0.556150 0.414940 -0.543394
O5    O     O_R   0.984450 0.372220 0.414320 -0.535953
C2    C     C_R   0.317578 0.564978 0.386521 0.756117
O6    O     O_R   0.526900 0.627780 0.585680 -0.539110
O7    O     O_3   0.339170 0.439750 0.499990 -0.373864
V1    V     V_3+5 0.064350 0.511180 0.500000 1.368691
O8    O     O_R   0.654880 0.361190 0.414920 -0.542523
C3    C     C_R   0.816839 0.323938 0.386875 0.758380
O9    O     O_R   0.696930 0.443850 0.585060 -0.541389
C4    C     C_R   0.873260 0.433904 0.612535 0.692674
V2    V     V_3+5 0.564340 0.488820 0.500000 1.369476
O10   O     O_3   0.839390 0.560250 0.500010 -0.374294
C5    C     C_R   0.041415 0.860945 0.822683 -0.050924
C6    C     C_R   0.906407 0.397827 0.680029 -0.052440
C7    C     C_R   0.921379 0.821334 0.682698 -0.128058
C8    C     C_R   0.973719 0.787994 0.745633 -0.144421
C9    C     C_R   0.052156 0.968825 0.836985 -0.211931
C10   C     C_R   0.997191 0.005279 0.773790 0.097367
C11   C     C_R   0.932878 0.928577 0.695859 0.120480
C12   C     C_R   0.002133 0.114491 0.785058 0.066578
C13   C     C_R   0.944739 0.144405 0.717886 0.066660
C14   C     C_R   0.884600 0.064155 0.641759 -0.179020
C15   C     C_R   0.878695 0.958852 0.631299 -0.219362
C16   C     C_R   0.062194 0.194751 0.861194 -0.179002
C17   C     C_R   0.068358 0.300054 0.871607 -0.219290
C18   C     C_R   0.014459 0.330304 0.806998 0.120437
C19   C     C_R   0.949927 0.253598 0.729108 0.096770
C20   C     C_R   0.026496 0.437510 0.820046 -0.127161
C21   C     C_R   0.974421 0.470793 0.757042 -0.145418
C22   C     C_R   0.895172 0.289999 0.665863 -0.211361
H1    H     H_    0.829765 0.900208 0.571739 0.118083
H2    H     H_    0.846760 0.237217 0.604771 0.092245
H3    H     H_    0.989192 0.553779 0.768326 0.091818
H4    H     H_    0.117355 0.358708 0.931154 0.118352
H5    H     H_    0.869597 0.762986 0.623487 0.138763
H6    H     H_    0.959389 0.704969 0.734269 0.091573
H7    H     H_    0.100434 0.021584 0.898114 0.090460
H8    H     H_    0.839548 0.079855 0.588476 0.123043
H9    H     H_    0.107099 0.179039 0.914492 0.124174
H10   H     H_    0.078526 0.495863 0.879218 0.139259
H11   H     H_    0.101514 0.237600 0.300486 0.151747
H12   H     H_    0.868226 0.020396 0.213269 0.138652
C23   C     C_2   0.134707 0.047605 0.173808 -0.034343
C24   C     C_2   0.985421 0.077168 0.220498 -0.194395
H13   H     H_    0.685026 0.166876 0.304916 0.130671
C25   C     C_2   0.814809 0.218010 0.321290 -0.348692
C26   C     C_2   0.974404 0.184440 0.283475 -0.133217
C27   C     C_R   0.409980 0.785053 0.677512 -0.058568
C28   C     C_R   0.538468 0.472989 0.825556 -0.058196
C29   C     C_R   0.531063 0.886982 0.817699 -0.125793
C30   C     C_R   0.479448 0.790358 0.754765 -0.141321
C31   C     C_R   0.397888 0.880011 0.663723 -0.210028
C32   C     C_R   0.452049 0.980722 0.727574 0.098112
C33   C     C_R   0.517267 0.981496 0.805203 0.117983
C34   C     C_R   0.445388 0.080338 0.717749 0.065960
C35   C     C_R   0.501798 0.177790 0.785694 0.065958
C36   C     C_R   0.562156 0.172272 0.861183 -0.178226
C37   C     C_R   0.569869 0.076411 0.870431 -0.219996
C38   C     C_R   0.384545 0.085853 0.642312 -0.179331
C39   C     C_R   0.376781 0.181671 0.633046 -0.217517
C40   C     C_R   0.430078 0.276555 0.698156 0.118292
C41   C     C_R   0.495450 0.277384 0.775792 0.097587
C42   C     C_R   0.416769 0.370977 0.685506 -0.125525
C43   C     C_R   0.468985 0.467590 0.748293 -0.141461
C44   C     C_R   0.550100 0.378118 0.839526 -0.210593
H14   H     H_    0.618962 0.076597 0.929772 0.119975
H15   H     H_    0.599445 0.385718 0.900421 0.092544
H16   H     H_    0.453315 0.538755 0.736421 0.091480
H17   H     H_    0.327150 0.181470 0.573758 0.118367
H18   H     H_    0.583727 0.887820 0.876790 0.144041
H19   H     H_    0.495464 0.719134 0.766527 0.091657
H20   H     H_    0.348663 0.872460 0.602834 0.092354
H21   H     H_    0.605813 0.241268 0.914749 0.123463
H22   H     H_    0.340375 0.016904 0.588791 0.123342
H23   H     H_    0.364019 0.370093 0.626408 0.143208
H24   H     H_    0.334268 0.667219 0.194353 0.154703
H25   H     H_    0.614778 0.590542 0.308072 0.154554
C45   C     C_2   0.314059 0.602172 0.318761 -0.353136
C46   C     C_2   0.476409 0.610745 0.285269 -0.130466
H26   H     H_    0.773135 0.635979 0.207015 0.125600
C47   C     C_2   0.635028 0.655846 0.183737 -0.352762
C48   C     C_2   0.472683 0.647082 0.217169 -0.130419
H27   H     H_    0.176016 0.622105 0.295480 0.125687
O11   O     O_R   0.421600 0.630430 0.917010 -0.538842
O12   O     O_R   0.793840 0.702190 0.087630 -0.542728
O13   O     O_R   0.964010 0.886170 0.088190 -0.547814
C49   C     C_R   0.631346 0.693212 0.116059 0.757977
O14   O     O_R   0.751460 0.619510 0.917500 -0.538440
O15   O     O_R   0.921330 0.802900 0.916840 -0.541321
C50   C     C_R   0.574287 0.579272 0.892374 0.686435
O16   O     O_R   0.464290 0.713700 0.088350 -0.536042
O17   O     O_3   0.609200 0.818520 0.002630 -0.374608
V3    V     V_3+5 0.884140 0.747190 0.002530 1.362993
O18   O     O_R   0.251150 0.814630 0.917340 -0.542446
C51   C     C_R   0.074765 0.824723 0.890054 0.689583
O19   O     O_R   0.293530 0.897310 0.087470 -0.533422
C52   C     C_R   0.131231 0.936911 0.112976 0.747302
V4    V     V_3+5 0.384070 0.769710 0.002370 1.366429
O20   O     O_3   0.109180 0.698190 0.002460 -0.373076
C53   C     C_3   0.292746 0.130120 0.180824 -0.370208
C54   C     C_3   0.438621 0.097801 0.117979 -0.718746
H28   H     H_    0.539953 0.041377 0.128952 0.238653
H29   H     H_    0.363065 0.063817 0.055412 0.210912
H30   H     H_    0.526971 0.168525 0.123813 0.201993
H31   H     H_    0.220814 0.199243 0.174835 0.185258
H32   H     H_    0.374059 0.156669 0.242076 0.177246

loop_
_geom_bond_atom_site_label_1
_geom_bond_atom_site_label_2
_ccdc_geom_bond_type
C33   C37   A    
C18   C20   A    
C13   C19   A    
C31   H20   S    
O17   V4    S    
C4    C6    S    
O2    C1    A    
C7    C8    A    
C1    O6    A    
C28   C44   A    
C47   C49   S    
C47   C48   D    
C54   H29   S    
C14   C15   A    
C1    C27   S    
C23   C52   S    
C16   C17   A    
O5    C3    A    
C53   H31   S    
C8    H6    S    
C32   C34   A    
C41   C44   A    
H11   C26   S    
C45   H27   S    
C5    C8    A    
C31   C32   A    
C37   H14   S    
C44   H15   S    
C28   C43   A    
H24   C48   S    
C29   H18   S    
O8    V2    S    
C24   C26   S    
C36   H21   S    
C40   C42   A    
C17   H4    S    
C39   H17   S    
O1    V2    S    
C11   C15   A    
O12   C49   A    
O7    V1    S    
O15   C51   A    
O13   V3    S    
C27   C30   A    
C30   H19   S    
C35   C41   A    
C34   C35   A    
O9    C4    A    
V4    O20   S    
O19   V4    S    
C53   C54   S    
H25   C46   S    
O14   V3    S    
H12   C24   S    
C54   H30   S    
O11   C50   A    
C42   C43   A    
C42   H23   S    
C12   C13   A    
O4    C2    A    
C15   H1    S    
C13   C14   A    
O18   V4    S    
C45   C46   D    
C21   H3    S    
O12   V3    S    
C35   C36   A    
C7    C11   A    
O13   C52   A    
C17   C18   A    
C5    C51   S    
C3    C25   S    
C23   C24   D    
C43   H16   S    
O17   V3    S    
C46   C48   S    
O14   C50   A    
C25   C26   D    
C20   H10   S    
C19   C22   A    
H26   C47   S    
C6    C22   A    
V3    O20   S    
O3    C4    A    
C7    H5    S    
C9    H7    S    
O18   C51   A    
O6    V2    S    
O9    V2    S    
C10   C12   A    
O2    V1    S    
O15   V3    S    
C14   H8    S    
C29   C33   A    
C29   C30   A    
C23   C53   S    
C28   C50   S    
O1    C2    A    
C12   C16   A    
O5    V1    S    
O11   V4    S    
O8    C3    A    
O16   V4    S    
C54   H28   S    
C16   H9    S    
C34   C38   A    
C20   C21   A    
O7    V2    S    
O4    V1    S    
O3    V1    S    
V1    O10   S    
C39   C40   A    
C53   H32   S    
C32   C33   A    
C18   C19   A    
O19   C52   A    
C22   H2    S    
C40   C41   A    
C36   C37   A    
C6    C21   A    
C5    C9    A    
C49   O16   A    
C38   C39   A    
C27   C31   A    
C2    C45   S    
H13   C25   S    
C10   C11   A    
C9    C10   A    
V2    O10   S    
C38   H22   S    
