data_mof_unit_34125.cif
_audit_creation_date              2013-03-05T15:45:12-0500
_audit_creation_method            fapswitch 2.2
_symmetry_space_group_name_H-M    P1
_symmetry_Int_Tables_number       1
_space_group_crystal_system       triclinic
_cell_length_a                    24.403445
_cell_length_b                    17.019116
_cell_length_c                    15.537704
_cell_angle_alpha                 90.002626
_cell_angle_beta                  50.665726
_cell_angle_gamma                 90.001902
_cell_volume                      4991.29807291

loop_
_atom_site_label
_atom_site_type_symbol
_atom_site_description
_atom_site_fract_x
_atom_site_fract_y
_atom_site_fract_z
_atom_type_partial_charge
C1    C     C_R   0.351234 0.143437 0.755231 -0.120721
C2    C     C_R   0.667577 0.892880 0.197579 -0.151380
C3    C     C_R   0.648754 0.143450 0.244801 -0.120959
C4    C     C_R   0.332428 0.892863 0.802405 -0.151363
C5    C     C_R   0.851245 0.643448 0.755206 -0.120915
C6    C     C_R   0.167578 0.392892 0.197571 -0.151711
C7    C     C_R   0.148754 0.643447 0.244797 -0.120910
C8    C     C_R   0.832426 0.392869 0.802413 -0.151311
H1    H     H_    0.303722 0.158408 0.767583 0.095723
H2    H     H_    0.720828 0.896259 0.169659 0.091450
H3    H     H_    0.696265 0.158425 0.232450 0.095770
H4    H     H_    0.279178 0.896240 0.830322 0.091500
H5    H     H_    0.803734 0.658423 0.767557 0.095771
H6    H     H_    0.220831 0.396283 0.169645 0.091492
H7    H     H_    0.196267 0.658421 0.232443 0.095734
H8    H     H_    0.779174 0.396246 0.830334 0.091460
N1    N     N_R   0.388930 0.078160 0.705470 -0.043784
N2    N     N_R   0.611070 0.921840 0.294530 -0.043078
N3    N     N_R   0.611070 0.078160 0.294530 -0.043788
N4    N     N_R   0.388930 0.921840 0.705470 -0.043100
N5    N     N_R   0.888930 0.578160 0.705470 -0.043796
N6    N     N_R   0.111070 0.421840 0.294530 -0.043061
N7    N     N_R   0.111070 0.578160 0.294530 -0.043773
N8    N     N_R   0.888930 0.421840 0.705470 -0.043087
C9    C     C_R   0.615967 0.100801 0.591357 -0.135713
C10   C     C_R   0.412381 0.853735 0.408746 -0.133958
C11   C     C_R   0.384045 0.100757 0.408620 -0.135678
C12   C     C_R   0.587622 0.853738 0.591248 -0.133922
C13   C     C_R   0.115966 0.600790 0.591361 -0.135719
C14   C     C_R   0.912389 0.353735 0.408740 -0.133820
C15   C     C_R   0.884036 0.600791 0.408638 -0.135759
C16   C     C_R   0.087656 0.353736 0.591214 -0.134292
H9    H     H_    0.594977 0.094916 0.676568 0.089928
H10   H     H_    0.442654 0.837017 0.322727 0.100239
H11   H     H_    0.405057 0.094843 0.323400 0.089893
H12   H     H_    0.557353 0.837022 0.677265 0.100240
H13   H     H_    0.094972 0.594899 0.676574 0.089948
H14   H     H_    0.942664 0.337019 0.322720 0.100218
H15   H     H_    0.905030 0.594900 0.323426 0.089950
H16   H     H_    0.057397 0.337003 0.677226 0.100303
N9    N     N_R   0.580500 0.077840 0.556650 -0.039716
N10   N     N_R   0.419500 0.922160 0.443350 -0.041904
N11   N     N_R   0.419500 0.077840 0.443350 -0.039734
N12   N     N_R   0.580500 0.922160 0.556650 -0.041902
N13   N     N_R   0.080500 0.577840 0.556650 -0.039726
N14   N     N_R   0.919500 0.422160 0.443350 -0.041905
N15   N     N_R   0.919500 0.577840 0.443350 -0.039734
N16   N     N_R   0.080500 0.422160 0.556650 -0.041897
C17   C     C_R   0.689647 0.101712 0.407453 -0.153169
C18   C     C_R   0.336284 0.856212 0.594017 -0.152240
C19   C     C_R   0.310344 0.101669 0.592528 -0.153166
C20   C     C_R   0.663715 0.856212 0.405977 -0.152222
C21   C     C_R   0.189650 0.601700 0.407457 -0.153165
C22   C     C_R   0.836293 0.356202 0.594011 -0.152322
C23   C     C_R   0.810350 0.601701 0.592542 -0.153154
C24   C     C_R   0.163750 0.356253 0.405943 -0.151843
H17   H     H_    0.736316 0.098363 0.321386 0.147282
H18   H     H_    0.294825 0.844130 0.680613 0.156718
H19   H     H_    0.263659 0.098311 0.678586 0.147264
H20   H     H_    0.705170 0.844128 0.319378 0.156724
H21   H     H_    0.236322 0.598347 0.321391 0.147290
H22   H     H_    0.794838 0.344100 0.680606 0.156683
H23   H     H_    0.763678 0.598347 0.678607 0.147287
H24   H     H_    0.205211 0.344247 0.319335 0.156851
N17   N     N_R   0.626210 0.077590 0.443410 -0.046582
N18   N     N_R   0.373790 0.922410 0.556590 -0.049625
N19   N     N_R   0.373790 0.077590 0.556590 -0.046583
N20   N     N_R   0.626210 0.922410 0.443410 -0.049630
N21   N     N_R   0.126210 0.577590 0.443410 -0.046586
N22   N     N_R   0.873790 0.422410 0.556590 -0.049601
N23   N     N_R   0.873790 0.577590 0.556590 -0.046588
N24   N     N_R   0.126210 0.422410 0.443410 -0.049722
C25   C     C_R   0.557456 0.142784 0.243864 -0.142446
C26   C     C_R   0.422979 0.893123 0.803072 -0.162098
C27   C     C_R   0.442531 0.142770 0.756175 -0.142694
C28   C     C_R   0.577027 0.893137 0.196914 -0.162003
C29   C     C_R   0.057455 0.642778 0.243860 -0.142389
C30   C     C_R   0.922980 0.393125 0.803072 -0.161979
C31   C     C_R   0.942542 0.642783 0.756146 -0.142519
C32   C     C_R   0.077026 0.393141 0.196913 -0.162006
H25   H     H_    0.519899 0.158803 0.231781 0.104482
H26   H     H_    0.452306 0.896845 0.833552 0.096550
H27   H     H_    0.480082 0.158785 0.768272 0.104437
H28   H     H_    0.547699 0.896862 0.166436 0.096542
H29   H     H_    0.019900 0.658793 0.231771 0.104465
H30   H     H_    0.952312 0.396842 0.833544 0.096560
H31   H     H_    0.980098 0.658803 0.768231 0.104483
H32   H     H_    0.047697 0.396865 0.166438 0.096534
N25   N     N_R   0.554800 0.077270 0.294580 -0.040497
N26   N     N_R   0.445200 0.922730 0.705420 -0.038862
N27   N     N_R   0.445200 0.077270 0.705420 -0.040465
N28   N     N_R   0.554800 0.922730 0.294580 -0.038851
N29   N     N_R   0.054800 0.577270 0.294580 -0.040496
N30   N     N_R   0.945200 0.422730 0.705420 -0.038845
N31   N     N_R   0.945200 0.577270 0.705420 -0.040490
N32   N     N_R   0.054800 0.422730 0.294580 -0.038837
C33   C     C_R   0.384729 0.186356 0.786073 0.145621
C34   C     C_R   0.647859 0.874418 0.134090 0.153611
C35   C     C_R   0.615251 0.186377 0.213984 0.145593
C36   C     C_R   0.352152 0.874389 0.865881 0.154094
C37   C     C_R   0.884746 0.686376 0.786029 0.145635
C38   C     C_R   0.147858 0.374428 0.134086 0.153807
C39   C     C_R   0.115250 0.686368 0.213978 0.145466
C40   C     C_R   0.852149 0.374400 0.865893 0.153669
C41   C     C_R   0.685853 0.114683 0.498998 0.129351
C42   C     C_R   0.361122 0.809440 0.502691 0.122523
C43   C     C_R   0.314153 0.114605 0.500961 0.129262
C44   C     C_R   0.638880 0.809443 0.497300 0.122503
C45   C     C_R   0.185853 0.614663 0.499006 0.129326
C46   C     C_R   0.861138 0.309433 0.502678 0.122378
C47   C     C_R   0.814150 0.614668 0.500993 0.129350
C48   C     C_R   0.138946 0.309469 0.497231 0.123029
Ni1   Ni    Ni4+2 0.382710 0.000000 0.629850 0.204487
Ni2   Ni    Ni4+2 0.617290 0.000000 0.370150 0.204464
Ni3   Ni    Ni4+2 0.882710 0.500000 0.629850 0.204477
Ni4   Ni    Ni4+2 0.117290 0.500000 0.370150 0.204478
Ni5   Ni    Ni4+2 0.513020 0.000000 0.629850 0.209745
Ni6   Ni    Ni4+2 0.486980 0.000000 0.370150 0.209750
Ni7   Ni    Ni4+2 0.013020 0.500000 0.629850 0.209782
Ni8   Ni    Ni4+2 0.986980 0.500000 0.370150 0.209771
C49   C     C_R   0.185573 0.146274 0.598943 0.589368
C50   C     C_R   0.725613 0.697597 0.395445 0.583930
C51   C     C_R   0.814449 0.146388 0.400895 0.589282
C52   C     C_R   0.274399 0.697585 0.604544 0.583892
C53   C     C_R   0.685560 0.646381 0.599070 0.589319
C54   C     C_R   0.225803 0.197726 0.395283 0.583587
C55   C     C_R   0.314446 0.646363 0.400921 0.589309
C56   C     C_R   0.774438 0.197558 0.604514 0.583979
C57   C     C_R   0.642891 0.698858 0.596758 -0.375138
C58   C     C_R   0.271804 0.152269 0.398088 -0.367843
C59   C     C_R   0.357114 0.698846 0.403230 -0.375090
C60   C     C_R   0.728323 0.152261 0.601769 -0.367955
C61   C     C_R   0.142938 0.198794 0.596608 -0.375302
C62   C     C_R   0.771706 0.652268 0.398200 -0.367978
C63   C     C_R   0.857127 0.198856 0.403201 -0.375020
C64   C     C_R   0.228304 0.652255 0.601793 -0.367930
H33   H     H_    0.593318 0.716533 0.675068 0.166579
H34   H     H_    0.321865 0.136247 0.319525 0.165163
H35   H     H_    0.406687 0.716523 0.324918 0.166576
H36   H     H_    0.678299 0.136167 0.680347 0.165454
H37   H     H_    0.093329 0.216431 0.674903 0.166590
H38   H     H_    0.821736 0.636185 0.319623 0.165409
H39   H     H_    0.906694 0.216540 0.324888 0.166570
H40   H     H_    0.178275 0.636172 0.680369 0.165396
C65   C     C_R   0.666902 0.732369 0.495803 -0.114162
C66   C     C_R   0.255753 0.134220 0.499925 -0.117616
C67   C     C_R   0.333106 0.732361 0.504186 -0.114193
C68   C     C_R   0.744287 0.134317 0.499961 -0.117828
C69   C     C_R   0.167020 0.232409 0.495660 -0.113884
C70   C     C_R   0.755725 0.634307 0.500014 -0.117758
C71   C     C_R   0.833134 0.232350 0.504161 -0.114245
C72   C     C_R   0.244282 0.634292 0.499980 -0.117774
H41   H     H_    0.210480 0.880306 0.012211 0.135635
H42   H     H_    0.710961 0.285254 0.183572 0.134853
H43   H     H_    0.789537 0.880407 0.987710 0.135402
H44   H     H_    0.289061 0.285256 0.816416 0.134814
H45   H     H_    0.710473 0.380376 0.012273 0.135463
H46   H     H_    0.210965 0.785237 0.183543 0.134574
H47   H     H_    0.289534 0.380392 0.987726 0.135467
H48   H     H_    0.789058 0.785265 0.816406 0.134910
C73   C     C_2   0.639135 0.261130 0.154199 -0.210115
C74   C     C_2   0.305238 0.850084 0.982560 -0.218871
C75   C     C_2   0.360842 0.261103 0.845871 -0.210219
C76   C     C_2   0.694778 0.850136 0.017392 -0.217746
C77   C     C_2   0.139132 0.761111 0.154185 -0.210671
C78   C     C_2   0.805234 0.350111 0.982584 -0.217924
C79   C     C_2   0.860864 0.761132 0.845815 -0.210056
C80   C     C_2   0.194775 0.350138 0.017395 -0.217971
C81   C     C_2   0.691323 0.301553 0.139921 -0.112263
C82   C     C_2   0.234830 0.852782 0.043565 -0.130264
C83   C     C_2   0.308681 0.301546 0.860097 -0.112108
C84   C     C_2   0.765189 0.852864 0.956362 -0.128559
C85   C     C_2   0.191327 0.801526 0.139890 -0.110145
C86   C     C_2   0.734823 0.352836 0.043616 -0.128977
C87   C     C_2   0.808688 0.801564 0.860069 -0.112773
C88   C     C_2   0.265185 0.352852 0.956377 -0.128979
H49   H     H_    0.328861 0.821919 0.014919 0.136180
H50   H     H_    0.620245 0.277534 0.109364 0.137092
H51   H     H_    0.671155 0.821946 0.985045 0.135867
H52   H     H_    0.379712 0.277497 0.890738 0.137002
H53   H     H_    0.828859 0.321925 0.014928 0.135934
H54   H     H_    0.120243 0.777507 0.109348 0.137119
H55   H     H_    0.171153 0.321949 0.985046 0.135910
H56   H     H_    0.879746 0.777537 0.890660 0.137072
O1    O     O_3   0.160084 0.115789 0.700741 -0.682190
C89   C     C_3   0.148413 0.033966 0.703175 0.152351
H57   H     H_    0.149286 0.007723 0.767775 0.132337
H58   H     H_    0.191072 0.003798 0.623528 0.094549
C90   C     C_3   0.075724 0.017855 0.735053 -0.300567
H59   H     H_    0.033941 0.047600 0.815120 0.212173
H60   H     H_    0.074288 0.041793 0.669968 0.191805
C91   C     C_3   0.060048 0.929927 0.747189 -0.990800
H61   H     H_    0.100713 0.899185 0.667481 0.270378
H62   H     H_    0.007305 0.920162 0.769867 0.269273
H63   H     H_    0.059543 0.904719 0.813637 0.266421
O2    O     O_3   0.745449 0.715990 0.292442 -0.685079
C92   C     C_3   0.697832 0.681165 0.280657 0.154202
H64   H     H_    0.699071 0.716953 0.219620 0.142462
H65   H     H_    0.641695 0.681512 0.359119 0.090494
C93   C     C_3   0.721449 0.597361 0.235154 -0.298810
H66   H     H_    0.777369 0.598304 0.157050 0.213118
H67   H     H_    0.718267 0.559918 0.296789 0.191290
C94   C     C_3   0.675058 0.561562 0.211100 -0.989154
H68   H     H_    0.618934 0.559262 0.288345 0.264629
H69   H     H_    0.693206 0.500837 0.179087 0.278507
H70   H     H_    0.678826 0.596825 0.147355 0.266542
O3    O     O_3   0.839892 0.115949 0.299099 -0.682199
C95   C     C_3   0.851610 0.034130 0.296562 0.152291
H71   H     H_    0.850718 0.007917 0.231965 0.132346
H72   H     H_    0.808983 0.003920 0.376189 0.094514
C96   C     C_3   0.924326 0.018039 0.264596 -0.300669
H73   H     H_    0.966075 0.047851 0.184574 0.212211
H74   H     H_    0.925772 0.041916 0.329699 0.191780
C97   C     C_3   0.940060 0.930121 0.252290 -0.990833
H75   H     H_    0.899427 0.899309 0.331948 0.270370
H76   H     H_    0.992818 0.920370 0.229560 0.269214
H77   H     H_    0.940562 0.904972 0.185815 0.266441
O4    O     O_3   0.254572 0.715977 0.707545 -0.685085
C98   C     C_3   0.302205 0.681167 0.719303 0.154278
H78   H     H_    0.301043 0.717019 0.780223 0.142421
H79   H     H_    0.358330 0.681427 0.640799 0.090466
C99   C     C_3   0.278525 0.597415 0.764994 -0.298659
H80   H     H_    0.222641 0.598454 0.843196 0.213076
H81   H     H_    0.281567 0.559923 0.703521 0.191328
C100  C     C_3   0.324985 0.561599 0.788895 -0.989177
H82   H     H_    0.381069 0.559164 0.711542 0.264648
H83   H     H_    0.306760 0.500927 0.821111 0.278490
H84   H     H_    0.321379 0.596930 0.852454 0.266525
O5    O     O_3   0.660105 0.615930 0.700862 -0.682206
C101  C     C_3   0.648362 0.534118 0.703385 0.152273
H85   H     H_    0.649261 0.507881 0.767961 0.132330
H86   H     H_    0.690973 0.503906 0.623745 0.094522
C102  C     C_3   0.575632 0.518067 0.735381 -0.300571
H87   H     H_    0.533897 0.547853 0.815439 0.212180
H88   H     H_    0.574167 0.541995 0.670322 0.191828
C103  C     C_3   0.559887 0.430153 0.747612 -0.990845
H89   H     H_    0.600500 0.399369 0.667915 0.270364
H90   H     H_    0.507116 0.420433 0.770378 0.269276
H91   H     H_    0.559410 0.404949 0.814035 0.266408
O6    O     O_3   0.245829 0.216447 0.292259 -0.685341
C104  C     C_3   0.198736 0.181251 0.279600 0.154510
H92   H     H_    0.198773 0.218074 0.220502 0.141854
H93   H     H_    0.142699 0.179426 0.358307 0.089679
C105  C     C_3   0.224378 0.098637 0.230214 -0.296925
H94   H     H_    0.280086 0.101767 0.151764 0.212797
H95   H     H_    0.222630 0.060196 0.289732 0.191515
C106  C     C_3   0.178456 0.062466 0.205475 -0.989850
H96   H     H_    0.122617 0.057723 0.283056 0.264909
H97   H     H_    0.198284 0.002718 0.170205 0.278632
H98   H     H_    0.180676 0.098928 0.144009 0.266557
O7    O     O_3   0.339899 0.615909 0.299127 -0.682210
C107  C     C_3   0.351617 0.534092 0.296612 0.152304
H99   H     H_    0.350744 0.507866 0.232001 0.132383
H100  H     H_    0.308980 0.503887 0.376237 0.094543
C108  C     C_3   0.424323 0.518012 0.264689 -0.300704
H101  H     H_    0.466082 0.547816 0.184665 0.212197
H102  H     H_    0.425752 0.541904 0.329803 0.191808
C109  C     C_3   0.440057 0.430095 0.252413 -0.990626
H103  H     H_    0.399413 0.399292 0.332072 0.270378
H104  H     H_    0.492807 0.420353 0.229717 0.269229
H105  H     H_    0.440579 0.404932 0.185926 0.266436
O8    O     O_3   0.754646 0.215875 0.707516 -0.685024
C110  C     C_3   0.802399 0.181167 0.719084 0.154162
H106  H     H_    0.800863 0.216706 0.780589 0.142625
H107  H     H_    0.858554 0.182061 0.640697 0.090687
C111  C     C_3   0.779304 0.097083 0.763622 -0.299244
H108  H     H_    0.723333 0.097471 0.841608 0.213184
H109  H     H_    0.782864 0.059880 0.701454 0.191208
C112  C     C_3   0.825793 0.061409 0.787554 -0.988946
H110  H     H_    0.881987 0.059735 0.710437 0.264545
H111  H     H_    0.808077 0.000453 0.818746 0.278440
H112  H     H_    0.821603 0.096369 0.851898 0.266530

loop_
_geom_bond_atom_site_label_1
_geom_bond_atom_site_label_2
_geom_bond_distance
_ccdc_geom_bond_type
C110  C111  1.532977 S    
C94   H68   1.110874 S    
C108  H102  1.111232 S    
N21   Ni4   1.844124 S    
N18   Ni1   1.844126 S    
C2    N2    1.334303 A    
N17   Ni2   1.844124 S    
C59   H35   1.080988 S    
N1    N27   1.372776 A    
N5    Ni3   1.843630 S    
C54   O6    1.382421 S    
N2    Ni2   1.843633 S    
C31   H31   1.080608 S    
O4    C98   1.415907 S    
C9    C41   1.386081 A    
O7    C107  1.417078 S    
C9    N9    1.335770 A    
C105  H94   1.111805 S    
C92   C93   1.532860 S    
C62   H38   1.080041 S    
C94   H69   1.110114 S    
C22   C46   1.387156 A    
C17   N17   1.334470 A    
C14   C46   1.396056 A    
N9    Ni5   1.840124 S    
C77   H54   1.087582 S    
N14   Ni8   1.840124 S    
C13   C45   1.386063 A    
C26   H26   1.081725 S    
C53   O5    1.382225 S    
C95   C96   1.534049 S    
N13   N21   1.360902 A    
N4    Ni1   1.843716 S    
C54   C69   1.415079 A    
C97   H76   1.110608 S    
C58   C66   1.402087 A    
C54   C58   1.386615 A    
C77   C85   1.336476 D    
C62   C70   1.402160 A    
C3    C35   1.388451 A    
C25   C35   1.387487 A    
C27   C33   1.387478 A    
C100  H84   1.111028 S    
C17   H17   1.076070 S    
C103  H89   1.111007 S    
C14   H14   1.077659 S    
C101  C102  1.534060 S    
C37   C79   1.461134 S    
C104  H92   1.111276 S    
C50   C65   1.415028 A    
C74   C82   1.337224 D    
C92   H65   1.116163 S    
N28   Ni6   1.839498 S    
C50   C62   1.386841 A    
C74   H49   1.087373 S    
C20   H20   1.072664 S    
C40   C78   1.462038 S    
C100  H83   1.110130 S    
N7    Ni4   1.843717 S    
C35   C73   1.461121 S    
C21   H21   1.076081 S    
H43   C84   1.084839 S    
C10   H10   1.077667 S    
C79   H56   1.087578 S    
C105  H95   1.111333 S    
C93   H66   1.111684 S    
C33   C75   1.461080 S    
C23   H23   1.076081 S    
H41   C82   1.084833 S    
C81   C86   1.454009 S    
C24   H24   1.072532 S    
C3    N3    1.332913 A    
C5    H5    1.078896 S    
N29   Ni8   1.839495 S    
C56   O8    1.382696 S    
C32   N32   1.344315 A    
C75   C83   1.336513 D    
C102  H87   1.111553 S    
C57   C65   1.401445 A    
C20   N20   1.330582 A    
C84   C87   1.454034 S    
C27   N27   1.343003 A    
H45   C86   1.084836 S    
C73   C81   1.336521 D    
N13   Ni7   1.840124 S    
C7    H7    1.078889 S    
C108  C109  1.526375 S    
C29   H29   1.080613 S    
C8    H8    1.079620 S    
C15   N15   1.335736 A    
C112  H110  1.110895 S    
C32   H32   1.081727 S    
C6    C38   1.380254 A    
C16   N16   1.339391 A    
C10   C42   1.396093 A    
C92   H64   1.111315 S    
C78   H53   1.087376 S    
N16   N24   1.360903 A    
C56   C60   1.386847 A    
C25   H25   1.080604 S    
C64   C72   1.402168 A    
C14   N14   1.339276 A    
N16   Ni7   1.840128 S    
C5    C37   1.388454 A    
C106  H97   1.110075 S    
C51   C63   1.389449 A    
C52   C67   1.415043 A    
C52   O4    1.382636 S    
C28   H28   1.081732 S    
C78   C86   1.337263 D    
C52   C64   1.386801 A    
N23   Ni3   1.844210 S    
O3    C95   1.417078 S    
C60   C68   1.402179 A    
C91   H63   1.110893 S    
C94   H70   1.110966 S    
C110  H106  1.111309 S    
C45   C72   1.473851 S    
C3    H3    1.078894 S    
C46   C71   1.472629 S    
C53   C70   1.414965 A    
C1    C33   1.388461 A    
C98   H78   1.111310 S    
C61   C69   1.401555 A    
C97   H75   1.111005 S    
C95   H71   1.111102 S    
C26   C36   1.379564 A    
C22   H22   1.072697 S    
N3    Ni2   1.843717 S    
C24   N24   1.330348 A    
C21   N21   1.334486 A    
C41   C68   1.473883 S    
C30   C40   1.379585 A    
C12   N12   1.339288 A    
C42   C67   1.472637 S    
N7    N29   1.372770 A    
H42   C81   1.085659 S    
C13   N13   1.335742 A    
C104  H93   1.116497 S    
C5    N5    1.332913 A    
C91   H62   1.110609 S    
C90   C91   1.526374 S    
C109  H104  1.110611 S    
N26   Ni5   1.839494 S    
C31   N31   1.343023 A    
O5    C101  1.417079 S    
N3    N25   1.372770 A    
N8    N30   1.372775 A    
C55   C72   1.414964 A    
C6    H6    1.079620 S    
C102  H88   1.111221 S    
N30   Ni7   1.839494 S    
H46   C85   1.085659 S    
C34   C76   1.462056 S    
C96   H73   1.111550 S    
C22   N22   1.330636 A    
C11   C43   1.385987 A    
C56   C71   1.415037 A    
C107  H99   1.111105 S    
N27   Ni5   1.839494 S    
C100  H82   1.110908 S    
C18   H18   1.072660 S    
C1    H1    1.078904 S    
C19   N19   1.334554 A    
C51   C68   1.414977 A    
C101  H86   1.116099 S    
C8    C40   1.380289 A    
N15   N23   1.360903 A    
N1    Ni1   1.843630 S    
C76   H51   1.087376 S    
C111  H109  1.111327 S    
C28   N28   1.344318 A    
C107  C108  1.534056 S    
C80   C88   1.337248 D    
C19   C43   1.383350 A    
N15   Ni8   1.840126 S    
C96   H74   1.111228 S    
C39   C77   1.461022 S    
H47   C88   1.084835 S    
C4    C36   1.380262 A    
C58   H34   1.080014 S    
C2    C34   1.380271 A    
C13   H13   1.079645 S    
H48   C87   1.085657 S    
N12   N20   1.360903 A    
C109  H105  1.110892 S    
C19   H19   1.076110 S    
C1    N1    1.332891 A    
C89   H58   1.116087 S    
C108  H101  1.111548 S    
C2    H2    1.079620 S    
C47   C70   1.473861 S    
C18   C42   1.387141 A    
N31   Ni7   1.839494 S    
C10   N10   1.339296 A    
C107  H100  1.116091 S    
C44   C65   1.472650 S    
C15   H15   1.079639 S    
C106  H98   1.111127 S    
C21   C45   1.383306 A    
C90   H59   1.111551 S    
C43   C66   1.473745 S    
C76   C84   1.337272 D    
C99   H81   1.111324 S    
C80   H55   1.087377 S    
C38   C80   1.462027 S    
C16   C48   1.396278 A    
C23   C47   1.383315 A    
N20   Ni2   1.844210 S    
C48   C69   1.472691 S    
N6    Ni4   1.843633 S    
N6    N32   1.372771 A    
N32   Ni8   1.839498 S    
N10   Ni6   1.840124 S    
C105  C106  1.525963 S    
C50   O2    1.382620 S    
O2    C92   1.415915 S    
C11   N11   1.335598 A    
C111  C112  1.526051 S    
C17   C41   1.383303 A    
C106  H96   1.110925 S    
C18   N18   1.330584 A    
O8    C110  1.415923 S    
N22   Ni3   1.844126 S    
C60   H36   1.080042 S    
N5    N31   1.372776 A    
C83   C88   1.453979 S    
N24   Ni4   1.844210 S    
H44   C83   1.085657 S    
C61   H37   1.081037 S    
C99   C100  1.526032 S    
C103  H91   1.110895 S    
C104  C105  1.532494 S    
C11   H11   1.079644 S    
C91   H61   1.110998 S    
C26   N26   1.344301 A    
C89   C90   1.534034 S    
C112  H111  1.110148 S    
C109  H103  1.111004 S    
N19   Ni1   1.844210 S    
N2    N28   1.372771 A    
C25   N25   1.343019 A    
C64   H40   1.080041 S    
C95   H72   1.116092 S    
C110  H107  1.116124 S    
C98   C99   1.532856 S    
C16   H16   1.077689 S    
C27   H27   1.080611 S    
O1    C89   1.417066 S    
C7    N7    1.332883 A    
N4    N26   1.372775 A    
N12   Ni5   1.840128 S    
C30   N30   1.344298 A    
C93   C94   1.526056 S    
C63   C71   1.401463 A    
C29   N29   1.342979 A    
O6    C104  1.415861 S    
C8    N8    1.334296 A    
C103  H90   1.110609 S    
C79   C87   1.336533 D    
C55   O7    1.382244 S    
C98   H79   1.116213 S    
C97   H77   1.110894 S    
N9    N17   1.360902 A    
C101  H85   1.111097 S    
C12   C44   1.396089 A    
C102  C103  1.526378 S    
C55   C59   1.389456 A    
C89   H57   1.111116 S    
N14   N22   1.360902 A    
C36   C74   1.461982 S    
C29   C39   1.387434 A    
C111  H108  1.111690 S    
N11   Ni6   1.840126 S    
C49   O1    1.382281 S    
C4    N4    1.334256 A    
C53   C57   1.389471 A    
C51   O3    1.382242 S    
C96   C97   1.526378 S    
C57   H33   1.080961 S    
N25   Ni6   1.839495 S    
C12   H12   1.077663 S    
N8    Ni3   1.843716 S    
N11   N19   1.360903 A    
C30   H30   1.081738 S    
C63   H39   1.080973 S    
C112  H112  1.111003 S    
C32   C38   1.379562 A    
C75   H52   1.087579 S    
N10   N18   1.360902 A    
C15   C47   1.386058 A    
C49   C66   1.414912 A    
C31   C37   1.387497 A    
C20   C44   1.387152 A    
C7    C39   1.388464 A    
C59   C67   1.401472 A    
C49   C61   1.389506 A    
C73   H50   1.087585 S    
C4    H4    1.079621 S    
C28   C34   1.379579 A    
C99   H80   1.111719 S    
C24   C48   1.387057 A    
C93   H67   1.111313 S    
C23   N23   1.334497 A    
C9    H9    1.079644 S    
C90   H60   1.111236 S    
C82   C85   1.453909 S    
C6    N6    1.334287 A    
