data_mof_unit_39000.cif
_audit_creation_date              2012-12-10T18:46:20-0500
_audit_creation_method            fapswitch 2.2
_symmetry_space_group_name_H-M    P1
_symmetry_Int_Tables_number       1
_space_group_crystal_system       triclinic
_cell_length_a                    9.935353
_cell_length_b                    10.595839
_cell_length_c                    13.164455
_cell_angle_alpha                 90.768008
_cell_angle_beta                  71.484254
_cell_angle_gamma                 89.859046
_cell_volume                      1313.97848293

loop_
_atom_site_label
_atom_site_type_symbol
_atom_type_description
_atom_site_fract_x
_atom_site_fract_y
_atom_site_fract_z
_atom_type_partial_charge
C1    C     C_R   0.500055 0.739310 0.500052 0.943125
C2    C     C_R   0.377354 0.480030 0.818673 -0.117407
C3    C     C_R   0.592427 0.935404 0.413849 -0.037393
C4    C     C_R   0.422744 0.491525 0.702790 0.872745
C5    C     C_R   0.591932 0.064862 0.415967 -0.304503
C6    C     C_R   0.497576 0.128591 0.502397 -0.095327
C7    C     C_R   0.402103 0.066964 0.588920 0.141014
C8    C     C_R   0.407268 0.935937 0.590348 0.142591
C9    C     C_R   0.500205 0.872132 0.501285 -0.131652
C10   C     C_R   0.942975 0.393427 0.469788 0.218617
C11   C     C_R   0.087001 0.396003 0.468273 -0.162026
C12   C     C_R   0.440665 0.451799 0.980753 0.129406
C13   C     C_R   0.057303 0.602887 0.535023 -0.153421
C14   C     C_R   0.914148 0.604102 0.534493 0.243739
C15   C     C_R   0.499456 0.260756 0.500861 0.902208
C16   C     C_R   0.577266 0.489508 0.296729 0.914195
C17   C     C_R   0.796960 0.412103 0.008026 0.152931
C18   C     C_R   0.619824 0.454436 0.182396 -0.206276
C19   C     C_R   0.253182 0.543739 0.878081 -0.192042
C20   C     C_R   0.226717 0.567748 0.986268 -0.151445
C21   C     C_R   0.318296 0.522064 0.037797 -0.184963
C22   C     C_3   0.953311 0.416395 0.190568 -0.688112
C23   C     C_R   0.470122 0.428937 0.870339 0.076239
C24   C     C_3   0.168432 0.163085 0.664797 -0.773921
C25   C     C_3   0.396219 0.839955 0.757337 -0.814145
C26   C     C_3   0.973864 0.184371 0.378991 -0.885307
C27   C     C_3   0.871380 0.827411 0.522153 -0.768143
C28   C     C_3   0.995173 0.269041 0.939157 -0.786488
C29   C     C_3   0.402837 0.233078 0.233380 -0.740096
C30   C     C_1   0.685730 0.869567 0.320970 0.157530
C31   C     C_R   0.545221 0.421379 0.027815 0.009184
C32   C     C_R   0.685942 0.396832 0.963201 0.025529
C33   C     C_R   0.708790 0.358318 0.856870 -0.227518
C34   C     C_R   0.597593 0.364282 0.813966 -0.205489
C35   C     C_R   0.513644 0.419308 0.137857 0.097023
C36   C     C_R   0.762787 0.454292 0.115746 0.131716
H1    H     H_    0.662004 0.116514 0.349424 0.158538
H2    H     H_    0.042335 0.379905 0.122090 0.243672
H3    H     H_    0.886663 0.336784 0.232068 0.254003
H4    H     H_    0.999021 0.464556 0.247301 0.230443
H5    H     H_    0.303325 0.110817 0.750910 0.222819
H6    H     H_    0.136747 0.261811 0.690947 0.259360
H7    H     H_    0.168675 0.151091 0.580675 0.244246
H8    H     H_    0.088417 0.098322 0.716076 0.208687
H9    H     H_    0.222888 0.904611 0.716898 0.232552
H10   H     H_    0.432635 0.928292 0.786512 0.231738
H11   H     H_    0.489129 0.777325 0.720153 0.258644
H12   H     H_    0.153896 0.313333 0.445188 0.171248
H13   H     H_    0.323032 0.791557 0.827201 0.241978
H14   H     H_    0.825982 0.235659 0.523218 0.240372
H15   H     H_    0.907009 0.114888 0.353766 0.260686
H16   H     H_    0.039052 0.132160 0.419473 0.230488
H17   H     H_    0.044181 0.230483 0.306392 0.250807
H18   H     H_    0.806122 0.720365 0.659615 0.204822
H19   H     H_    0.970560 0.862066 0.534479 0.209715
H20   H     H_    0.787298 0.900183 0.553754 0.244577
H21   H     H_    0.888742 0.814032 0.435064 0.260300
H22   H     H_    0.967507 0.438440 0.870629 0.218806
H23   H     H_    0.099376 0.684240 0.564895 0.156708
H24   H     H_    0.112107 0.268582 0.900635 0.252458
H25   H     H_    0.946550 0.207889 0.891433 0.227415
H26   H     H_    0.970879 0.228970 0.020458 0.249850
H27   H     H_    0.307010 0.413112 0.250516 0.248116
H28   H     H_    0.461749 0.172445 0.163884 0.244184
H29   H     H_    0.297497 0.190380 0.271932 0.224062
H30   H     H_    0.461875 0.236386 0.291987 0.232391
H31   H     H_    0.811193 0.324481 0.806196 0.149696
H32   H     H_    0.183896 0.586291 0.838862 0.156068
H33   H     H_    0.298403 0.551733 0.120134 0.138399
H34   H     H_    0.141241 0.630456 0.028508 0.140134
H35   H     H_    0.616926 0.326136 0.733994 0.166791
H36   H     H_    0.925982 0.576589 0.108028 0.224263
N1    N     N_R   0.142790 0.500030 0.500030 -0.106380
N2    N     N_1   0.760309 0.816813 0.246764 -0.225145
N3    N     N_R   0.857180 0.499940 0.500010 -0.120078
N4    N     N_2   0.868965 0.505890 0.154651 -0.270329
N5    N     N_2   0.306894 0.137621 0.675124 -0.317609
N6    N     N_2   0.323200 0.867942 0.680995 -0.310185
N7    N     N_2   0.883392 0.276370 0.451962 -0.255861
N8    N     N_2   0.826762 0.710325 0.578049 -0.258445
N9    N     N_2   0.941839 0.397062 0.944739 -0.298572
N10   N     N_2   0.385135 0.358787 0.197905 -0.298620
O1    O     O_R   0.385370 0.683250 0.500010 -0.613229
O2    O     O_R   0.614700 0.683220 0.500010 -0.582503
O3    O     O_R   0.328400 0.499990 0.653620 -0.602965
O4    O     O_R   0.557730 0.499960 0.653620 -0.623607
O5    O     O_R   0.385300 0.316780 0.499990 -0.613136
O6    O     O_R   0.614630 0.316750 0.499990 -0.631293
O7    O     O_R   0.442270 0.500040 0.346380 -0.625301
O8    O     O_R   0.671600 0.500010 0.346380 -0.570081
Zn1   Zn    Zn3+2 0.346870 0.500020 0.500000 0.934936
Zn2   Zn    Zn3+2 0.653130 0.499980 0.500000 0.967248

loop_
_geom_bond_atom_site_label_1
_geom_bond_atom_site_label_2
_ccdc_geom_bond_type
C16   O8    A    
C5    H1    S    
C24   H6    S    
C19   C20   A    
C22   N4    S    
H36   N4    S    
H14   N7    S    
O3    Zn1   S    
C7    C8    A    
C1    O2    A    
C12   C23   A    
O5    Zn1   S    
H5    N5    S    
C5    C6    A    
C30   N2    T    
C27   H19   S    
C4    O4    A    
C22   H2    S    
C36   N4    S    
C6    C15   S    
O6    Zn2   S    
C8    C9    A    
H9    N6    S    
C17   C36   A    
C14   N8    S    
O7    Zn1   S    
C18   C35   A    
C25   H11   S    
C7    N5    S    
C28   H25   S    
C2    C19   A    
C29   H28   S    
C16   O7    A    
C13   C14   A    
C8    N6    S    
C20   H34   S    
C11   H12   S    
C35   N10   S    
H18   N8    S    
C28   H24   S    
H27   N10   S    
C25   N6    S    
C1    C9    S    
N1    Zn1   S    
C27   N8    S    
C27   H21   S    
H22   N9    S    
C27   H20   S    
C4    O3    A    
C12   C21   A    
C21   H33   S    
C3    C30   S    
C2    C4    S    
C3    C9    A    
C26   H16   S    
C10   N3    A    
O8    Zn2   S    
C31   C32   A    
C23   C34   A    
C22   H4    S    
C33   C34   A    
C19   H32   S    
N3    Zn2   S    
C29   H29   S    
C13   N1    A    
C12   C31   A    
C11   N1    A    
C24   H8    S    
C31   C35   A    
C26   H17   S    
C33   H31   S    
C15   O5    A    
C17   C32   A    
C28   N9    S    
C3    C5    A    
C10   N7    S    
C6    C7    A    
C13   H23   S    
C1    O1    A    
O1    Zn1   S    
C26   N7    S    
C14   N3    A    
C29   N10   S    
O4    Zn2   S    
C26   H15   S    
C32   C33   A    
C22   H3    S    
C25   H10   S    
C17   N9    S    
C25   H13   S    
C10   C11   A    
C29   H30   S    
C24   N5    S    
C20   C21   A    
C16   C18   S    
C2    C23   A    
C24   H7    S    
O2    Zn2   S    
C18   C36   A    
C34   H35   S    
C15   O6    A    
C28   H26   S    
