data_mof_unit_60034.cif
_audit_creation_date              2012-10-26T18:17:59-0400
_audit_creation_method            fapswitch 2.2
_symmetry_space_group_name_H-M    P1
_symmetry_Int_Tables_number       1
_space_group_crystal_system       orthorhombic
_cell_length_a                    38.9346
_cell_length_b                    55.221825
_cell_length_c                    55.226404
_cell_angle_alpha                 90.0
_cell_angle_beta                  90.0
_cell_angle_gamma                 90.0
_cell_volume                      118738.959301

loop_
_atom_site_label
_atom_site_type_symbol
_atom_type_description
_atom_site_fract_x
_atom_site_fract_y
_atom_site_fract_z
_atom_type_partial_charge
C1    C     C_R   0.999996 0.783145 0.216866 0.551573
C2    C     C_R   0.500003 0.216855 0.716866 0.551573
C3    C     C_R   0.019609 0.895992 0.871823 -0.081300
C4    C     C_R   0.520016 0.372199 0.104124 -0.119762
C5    C     C_R   0.519611 0.604009 0.128175 -0.081300
C6    C     C_R   0.520015 0.627801 0.895876 -0.119763
C7    C     C_R   0.519611 0.395991 0.871824 -0.081299
C8    C     C_R   0.520016 0.872199 0.604124 -0.119763
C9    C     C_R   0.519611 0.104009 0.628176 -0.081300
C10   C     C_R   0.520016 0.127801 0.395876 -0.119763
C11   C     C_R   0.519611 0.895991 0.371824 -0.081299
C12   C     C_R   0.020016 0.372199 0.604124 -0.119763
C13   C     C_R   0.499997 0.216855 0.283134 0.551573
C14   C     C_R   0.019611 0.604009 0.628176 -0.081299
C15   C     C_R   0.020016 0.627801 0.395876 -0.119763
C16   C     C_R   0.019611 0.395991 0.371824 -0.081300
C17   C     C_R   0.020372 0.854383 0.122030 -0.116085
C18   C     C_R   0.019280 0.121810 0.146081 -0.116323
C19   C     C_R   0.020372 0.145617 0.877970 -0.116085
C20   C     C_R   0.019278 0.878191 0.853919 -0.116322
C21   C     C_R   0.520372 0.354383 0.122030 -0.116085
C22   C     C_R   0.519280 0.621810 0.146080 -0.116322
C23   C     C_R   0.520372 0.645617 0.877970 -0.116086
C24   C     C_R   0.500003 0.783145 0.283134 0.551573
C25   C     C_R   0.519280 0.378190 0.853920 -0.116322
C26   C     C_R   0.520372 0.854383 0.622030 -0.116085
C27   C     C_R   0.519280 0.121810 0.646081 -0.116323
C28   C     C_R   0.520372 0.145617 0.377970 -0.116085
C29   C     C_R   0.519280 0.878190 0.353919 -0.116323
C30   C     C_R   0.020372 0.354383 0.622030 -0.116085
C31   C     C_R   0.019280 0.621810 0.646080 -0.116322
C32   C     C_R   0.020372 0.645617 0.377970 -0.116085
C33   C     C_R   0.019280 0.378190 0.353919 -0.116323
C34   C     C_R   0.000630 0.857175 0.143146 0.028864
C35   C     C_R   0.999996 0.283145 0.716866 0.551573
C36   C     C_R   0.999370 0.142825 0.143146 0.028865
C37   C     C_R   0.000630 0.142825 0.856854 0.028865
C38   C     C_R   0.999370 0.857175 0.856854 0.028864
C39   C     C_R   0.500630 0.357175 0.143146 0.028864
C40   C     C_R   0.499370 0.642825 0.143146 0.028864
C41   C     C_R   0.500630 0.642825 0.856854 0.028864
C42   C     C_R   0.499370 0.357175 0.856854 0.028864
C43   C     C_R   0.500630 0.857175 0.643146 0.028864
C44   C     C_R   0.499370 0.142825 0.643146 0.028864
C45   C     C_R   0.500630 0.142825 0.356854 0.028865
C46   C     C_R   0.000003 0.716855 0.716866 0.551573
C47   C     C_R   0.499370 0.857175 0.356854 0.028864
C48   C     C_R   0.000630 0.357175 0.643146 0.028865
C49   C     C_R   0.999370 0.642825 0.643146 0.028864
C50   C     C_R   0.000630 0.642825 0.356854 0.028864
C51   C     C_R   0.999370 0.357175 0.356854 0.028865
C52   C     C_R   0.980720 0.878190 0.146081 -0.116323
C53   C     C_R   0.979628 0.145617 0.122030 -0.116085
C54   C     C_R   0.980720 0.121810 0.853919 -0.116323
C55   C     C_R   0.979630 0.854382 0.877970 -0.116085
C56   C     C_R   0.480720 0.378190 0.146080 -0.116322
C57   C     C_R   0.999996 0.716855 0.283134 0.551573
C58   C     C_R   0.479628 0.645617 0.122030 -0.116085
C59   C     C_R   0.480720 0.621810 0.853919 -0.116323
C60   C     C_R   0.479627 0.354383 0.877969 -0.116085
C61   C     C_R   0.480720 0.878190 0.646080 -0.116323
C62   C     C_R   0.479628 0.145617 0.622030 -0.116084
C63   C     C_R   0.480720 0.121810 0.353919 -0.116323
C64   C     C_R   0.479628 0.854383 0.377970 -0.116085
C65   C     C_R   0.980720 0.378190 0.646080 -0.116323
C66   C     C_R   0.979628 0.645617 0.622030 -0.116085
C67   C     C_R   0.980720 0.621810 0.353919 -0.116322
C68   C     C_R   0.000003 0.283145 0.283134 0.551573
C69   C     C_R   0.979628 0.354383 0.377970 -0.116086
C70   C     C_R   0.980389 0.895991 0.128175 -0.081299
C71   C     C_R   0.979984 0.127801 0.104124 -0.119762
C72   C     C_R   0.980389 0.104009 0.871824 -0.081300
C73   C     C_R   0.979986 0.872198 0.895877 -0.119762
C74   C     C_R   0.480389 0.395991 0.128175 -0.081300
C75   C     C_R   0.479984 0.627801 0.104124 -0.119763
C76   C     C_R   0.480389 0.604009 0.871824 -0.081299
C77   C     C_R   0.479984 0.372199 0.895876 -0.119763
C78   C     C_R   0.480389 0.895991 0.628175 -0.081299
C79   C     C_R   0.030466 0.921301 0.079460 -0.155570
C80   C     C_R   0.479985 0.127801 0.604124 -0.119763
C81   C     C_R   0.480389 0.104009 0.371824 -0.081300
C82   C     C_R   0.479984 0.872199 0.395876 -0.119763
C83   C     C_R   0.980389 0.395991 0.628175 -0.081299
C84   C     C_R   0.979985 0.627801 0.604124 -0.119763
C85   C     C_R   0.980389 0.604009 0.371824 -0.081300
C86   C     C_R   0.979984 0.372199 0.395876 -0.119763
C87   C     C_R   0.933597 0.750000 0.250000 0.552076
C88   C     C_R   0.066403 0.250000 0.250000 0.552076
C89   C     C_R   0.933597 0.250000 0.750000 0.552076
C90   C     C_R   0.969534 0.078699 0.079460 -0.155570
C91   C     C_R   0.066403 0.750000 0.750000 0.552076
C92   C     C_R   0.433597 0.250000 0.250000 0.552076
C93   C     C_R   0.566403 0.750000 0.250000 0.552076
C94   C     C_R   0.433597 0.750000 0.750000 0.552076
C95   C     C_R   0.566403 0.250000 0.750000 0.552076
C96   C     C_R   0.999803 0.893027 0.106985 0.057842
C97   C     C_R   0.000197 0.106973 0.106985 0.057842
C98   C     C_R   0.999803 0.106973 0.893014 0.057843
C99   C     C_R   0.000197 0.893027 0.893014 0.057842
C100  C     C_R   0.499803 0.393027 0.106985 0.057842
C101  C     C_R   0.030466 0.078699 0.920540 -0.155569
C102  C     C_R   0.500197 0.606973 0.106985 0.057842
C103  C     C_R   0.499803 0.606973 0.893014 0.057843
C104  C     C_R   0.500197 0.393027 0.893014 0.057842
C105  C     C_R   0.499803 0.893027 0.606985 0.057842
C106  C     C_R   0.500197 0.106973 0.606985 0.057842
C107  C     C_R   0.499803 0.106973 0.393014 0.057843
C108  C     C_R   0.500197 0.893027 0.393014 0.057843
C109  C     C_R   0.999803 0.393027 0.606985 0.057842
C110  C     C_R   0.000197 0.606973 0.606985 0.057842
C111  C     C_R   0.999803 0.606973 0.393014 0.057842
C112  C     C_R   0.000003 0.216855 0.216866 0.551573
C113  C     C_R   0.969534 0.921300 0.920541 -0.155571
C114  C     C_R   0.000197 0.393027 0.393014 0.057842
C115  C     C_R   0.001700 0.844537 0.186640 -0.120683
C116  C     C_R   0.998300 0.155463 0.186640 -0.120683
C117  C     C_R   0.001700 0.155463 0.813360 -0.120683
C118  C     C_R   0.998297 0.844537 0.813360 -0.120683
C119  C     C_R   0.501700 0.344537 0.186640 -0.120684
C120  C     C_R   0.498300 0.655463 0.186640 -0.120684
C121  C     C_R   0.501701 0.655463 0.813360 -0.120684
C122  C     C_R   0.498300 0.344537 0.813360 -0.120684
C123  C     C_R   0.501700 0.844537 0.686640 -0.120684
C124  C     C_R   0.530466 0.421301 0.079460 -0.155570
C125  C     C_R   0.498299 0.155463 0.686640 -0.120683
C126  C     C_R   0.501700 0.155463 0.313360 -0.120684
C127  C     C_R   0.498299 0.844537 0.313360 -0.120683
C128  C     C_R   0.001700 0.344537 0.686640 -0.120683
C129  C     C_R   0.998299 0.655463 0.686640 -0.120683
C130  C     C_R   0.001700 0.655463 0.313360 -0.120684
C131  C     C_R   0.998300 0.344537 0.313360 -0.120684
C132  C     C_R   0.001456 0.826644 0.204461 -0.128711
C133  C     C_R   0.998544 0.173356 0.204461 -0.128711
C134  C     C_R   0.001456 0.173356 0.795539 -0.128711
C135  C     C_R   0.469534 0.578699 0.079460 -0.155569
C136  C     C_R   0.998541 0.826644 0.795539 -0.128710
C137  C     C_R   0.501456 0.326644 0.204461 -0.128711
C138  C     C_R   0.498544 0.673356 0.204461 -0.128710
C139  C     C_R   0.501456 0.673356 0.795539 -0.128712
C140  C     C_R   0.498544 0.326644 0.795539 -0.128711
C141  C     C_R   0.501456 0.826644 0.704461 -0.128711
C142  C     C_R   0.498544 0.173356 0.704461 -0.128711
C143  C     C_R   0.501456 0.173356 0.295539 -0.128711
C144  C     C_R   0.498544 0.826644 0.295539 -0.128710
C145  C     C_R   0.001456 0.326644 0.704461 -0.128711
C146  C     C_R   0.530466 0.578699 0.920540 -0.155570
C147  C     C_R   0.998544 0.673356 0.704461 -0.128710
C148  C     C_R   0.001456 0.673356 0.295539 -0.128711
C149  C     C_R   0.998544 0.326644 0.295539 -0.128711
C150  C     C_R   0.000224 0.802053 0.198011 0.015090
C151  C     C_R   0.999776 0.197947 0.198011 0.015090
C152  C     C_R   0.000224 0.197947 0.801989 0.015090
C153  C     C_R   0.999776 0.802053 0.801989 0.015090
C154  C     C_R   0.500224 0.302053 0.198011 0.015090
C155  C     C_R   0.499776 0.697947 0.198011 0.015090
C156  C     C_R   0.500224 0.697947 0.801989 0.015090
C157  C     C_R   0.469534 0.421301 0.920539 -0.155570
C158  C     C_R   0.499776 0.302053 0.801989 0.015090
C159  C     C_R   0.500224 0.802053 0.698011 0.015090
C160  C     C_R   0.499776 0.197947 0.698011 0.015090
C161  C     C_R   0.500224 0.197947 0.301989 0.015090
C162  C     C_R   0.499776 0.802053 0.301989 0.015090
C163  C     C_R   0.000224 0.302053 0.698011 0.015090
C164  C     C_R   0.999776 0.697947 0.698011 0.015090
C165  C     C_R   0.000224 0.697947 0.301989 0.015090
C166  C     C_R   0.999776 0.302053 0.301989 0.015090
C167  C     C_R   0.999289 0.795709 0.173388 -0.128035
C168  C     C_R   0.530466 0.921301 0.579460 -0.155570
C169  C     C_R   0.000711 0.204291 0.173388 -0.128036
C170  C     C_R   0.999289 0.204291 0.826612 -0.128036
C171  C     C_R   0.000714 0.795709 0.826611 -0.128036
C172  C     C_R   0.499289 0.295709 0.173388 -0.128036
C173  C     C_R   0.500711 0.704291 0.173388 -0.128036
C174  C     C_R   0.499289 0.704291 0.826612 -0.128035
C175  C     C_R   0.500711 0.295709 0.826612 -0.128035
C176  C     C_R   0.499289 0.795709 0.673388 -0.128035
C177  C     C_R   0.500711 0.204291 0.673388 -0.128035
C178  C     C_R   0.499289 0.204291 0.326612 -0.128036
C179  C     C_R   0.469534 0.078699 0.579460 -0.155569
C180  C     C_R   0.500711 0.795709 0.326612 -0.128036
C181  C     C_R   0.999289 0.295709 0.673388 -0.128036
C182  C     C_R   0.000711 0.704291 0.673388 -0.128036
C183  C     C_R   0.999289 0.704291 0.326612 -0.128035
C184  C     C_R   0.000711 0.295709 0.326612 -0.128036
C185  C     C_R   0.999509 0.813613 0.155571 -0.118226
C186  C     C_R   0.000491 0.186387 0.155571 -0.118226
C187  C     C_R   0.999509 0.186387 0.844429 -0.118226
C188  C     C_R   0.000494 0.813613 0.844429 -0.118227
C189  C     C_R   0.499509 0.313613 0.155571 -0.118226
C190  C     C_R   0.530466 0.078699 0.420540 -0.155570
C191  C     C_R   0.500491 0.686387 0.155571 -0.118226
C192  C     C_R   0.499509 0.686387 0.844429 -0.118226
C193  C     C_R   0.500491 0.313613 0.844429 -0.118226
C194  C     C_R   0.499509 0.813613 0.655571 -0.118226
C195  C     C_R   0.500491 0.186387 0.655571 -0.118226
C196  C     C_R   0.499509 0.186387 0.344429 -0.118226
C197  C     C_R   0.500491 0.813613 0.344429 -0.118226
C198  C     C_R   0.999509 0.313613 0.655571 -0.118226
C199  C     C_R   0.000491 0.686387 0.655571 -0.118226
C200  C     C_R   0.999509 0.686387 0.344429 -0.118226
C201  C     C_R   0.469534 0.921301 0.420540 -0.155569
C202  C     C_R   0.000491 0.313613 0.344429 -0.118226
C203  C     C_R   0.000688 0.838196 0.162028 0.032481
C204  C     C_R   0.999312 0.161804 0.162028 0.032480
C205  C     C_R   0.000688 0.161804 0.837972 0.032481
C206  C     C_R   0.999312 0.838196 0.837972 0.032481
C207  C     C_R   0.500688 0.338196 0.162028 0.032481
C208  C     C_R   0.499312 0.661804 0.162028 0.032481
C209  C     C_R   0.500688 0.661804 0.837972 0.032481
C210  C     C_R   0.499312 0.338196 0.837972 0.032481
C211  C     C_R   0.500688 0.838196 0.662028 0.032481
C212  C     C_R   0.030466 0.421301 0.579460 -0.155570
C213  C     C_R   0.499312 0.161804 0.662028 0.032480
C214  C     C_R   0.500688 0.161804 0.337972 0.032481
C215  C     C_R   0.499312 0.838196 0.337972 0.032480
C216  C     C_R   0.000688 0.338196 0.662028 0.032481
C217  C     C_R   0.999312 0.661804 0.662028 0.032480
C218  C     C_R   0.000688 0.661804 0.337972 0.032481
C219  C     C_R   0.999312 0.338196 0.337972 0.032481
C220  C     C_R   0.377829 0.734121 0.265157 -0.129448
C221  C     C_R   0.622171 0.265880 0.265156 -0.129448
C222  C     C_R   0.377829 0.265883 0.734847 -0.129448
C223  C     C_R   0.999996 0.216855 0.783134 0.551574
C224  C     C_R   0.969534 0.578699 0.579460 -0.155569
C225  C     C_R   0.622171 0.734116 0.734848 -0.129448
C226  C     C_R   0.877829 0.234121 0.265157 -0.129448
C227  C     C_R   0.122171 0.765881 0.265155 -0.129448
C228  C     C_R   0.877829 0.765875 0.734839 -0.129448
C229  C     C_R   0.122171 0.234124 0.734840 -0.129448
C230  C     C_R   0.877829 0.734125 0.765161 -0.129448
C231  C     C_R   0.122171 0.265876 0.765160 -0.129449
C232  C     C_R   0.877829 0.265879 0.234843 -0.129447
C233  C     C_R   0.122171 0.734119 0.234845 -0.129448
C234  C     C_R   0.377829 0.234117 0.765152 -0.129449
C235  C     C_R   0.030466 0.578699 0.420540 -0.155569
C236  C     C_R   0.622171 0.765884 0.765152 -0.129448
C237  C     C_R   0.377829 0.765879 0.234843 -0.129448
C238  C     C_R   0.622171 0.234120 0.234844 -0.129448
C239  C     C_R   0.342050 0.734111 0.265136 -0.121300
C240  C     C_R   0.657949 0.265890 0.265134 -0.121300
C241  C     C_R   0.342051 0.265894 0.734869 -0.121300
C242  C     C_R   0.657949 0.734106 0.734870 -0.121300
C243  C     C_R   0.842050 0.234111 0.265135 -0.121300
C244  C     C_R   0.157949 0.765891 0.265133 -0.121300
C245  C     C_R   0.842050 0.765886 0.734861 -0.121300
C246  C     C_R   0.969534 0.421301 0.420540 -0.155570
C247  C     C_R   0.157950 0.234113 0.734862 -0.121300
C248  C     C_R   0.842050 0.734114 0.765139 -0.121300
C249  C     C_R   0.157950 0.265887 0.765138 -0.121300
C250  C     C_R   0.842050 0.265889 0.234864 -0.121300
C251  C     C_R   0.157950 0.734109 0.234867 -0.121300
C252  C     C_R   0.342050 0.234106 0.765131 -0.121300
C253  C     C_R   0.657949 0.765894 0.765130 -0.121300
C254  C     C_R   0.342050 0.765889 0.234864 -0.121300
C255  C     C_R   0.657949 0.234110 0.234866 -0.121300
C256  C     C_R   0.323887 0.750000 0.250000 0.030911
C257  C     C_R   0.999302 0.911771 0.087944 0.066141
C258  C     C_R   0.676113 0.250000 0.250000 0.030910
C259  C     C_R   0.323887 0.250000 0.750000 0.030909
C260  C     C_R   0.676113 0.750000 0.750000 0.030910
C261  C     C_R   0.823887 0.250000 0.250000 0.030909
C262  C     C_R   0.176113 0.750000 0.250000 0.030910
C263  C     C_R   0.823887 0.750000 0.750000 0.030910
C264  C     C_R   0.176113 0.250000 0.750000 0.030910
C265  C     C_R   0.066186 0.750000 0.250000 0.551761
C266  C     C_R   0.933814 0.250000 0.250000 0.551761
C267  C     C_R   0.066186 0.250000 0.750000 0.551761
C268  C     C_R   0.000698 0.088229 0.087944 0.066140
C269  C     C_R   0.933814 0.750000 0.750000 0.551761
C270  C     C_R   0.566186 0.250000 0.250000 0.551761
C271  C     C_R   0.433814 0.750000 0.250000 0.551761
C272  C     C_R   0.566186 0.750000 0.750000 0.551761
C273  C     C_R   0.433814 0.250000 0.750000 0.551761
C274  C     C_R   0.396038 0.750000 0.250000 0.015481
C275  C     C_R   0.603962 0.250000 0.250000 0.015481
C276  C     C_R   0.396038 0.250000 0.750000 0.015481
C277  C     C_R   0.603962 0.750000 0.750000 0.015482
C278  C     C_R   0.896038 0.250000 0.250000 0.015481
C279  C     C_R   0.999302 0.088229 0.912056 0.066140
C280  C     C_R   0.103962 0.750000 0.250000 0.015481
C281  C     C_R   0.896038 0.750000 0.750000 0.015481
C282  C     C_R   0.103962 0.250000 0.750000 0.015481
C283  C     C_R   0.267888 0.771953 0.249983 -0.114627
C284  C     C_R   0.732112 0.271953 0.250015 -0.114628
C285  C     C_R   0.267888 0.228047 0.750009 -0.114628
C286  C     C_R   0.732112 0.728047 0.749991 -0.114628
C287  C     C_R   0.767888 0.271953 0.249984 -0.114628
C288  C     C_R   0.232112 0.771953 0.250014 -0.114628
C289  C     C_R   0.767888 0.728047 0.750022 -0.114628
C290  C     C_R   0.000698 0.911771 0.912056 0.066141
C291  C     C_R   0.232112 0.228047 0.749979 -0.114628
C292  C     C_R   0.767888 0.771953 0.749978 -0.114627
C293  C     C_R   0.232112 0.271953 0.750021 -0.114628
C294  C     C_R   0.767888 0.228047 0.250016 -0.114628
C295  C     C_R   0.232112 0.728047 0.249986 -0.114628
C296  C     C_R   0.267888 0.271953 0.749990 -0.114628
C297  C     C_R   0.732112 0.771953 0.750009 -0.114628
C298  C     C_R   0.267888 0.728047 0.250017 -0.114627
C299  C     C_R   0.732112 0.228047 0.249985 -0.114628
C300  C     C_R   0.213947 0.750000 0.250000 0.030257
C301  C     C_R   0.499302 0.411771 0.087944 0.066141
C302  C     C_R   0.786053 0.250000 0.250000 0.030257
C303  C     C_R   0.213947 0.250000 0.750000 0.030257
C304  C     C_R   0.786052 0.750000 0.750000 0.030258
C305  C     C_R   0.713947 0.250000 0.250000 0.030257
C306  C     C_R   0.286052 0.750000 0.250000 0.030257
C307  C     C_R   0.713947 0.750000 0.750000 0.030257
C308  C     C_R   0.286053 0.250000 0.750000 0.030256
C309  C     C_R   0.000028 0.533191 0.533099 0.554381
C310  C     C_R   0.999972 0.466809 0.533099 0.554381
C311  C     C_R   0.000028 0.466809 0.466901 0.554382
C312  C     C_R   0.500698 0.588229 0.087944 0.066141
C313  C     C_R   0.999972 0.533191 0.466901 0.554381
C314  C     C_R   0.500028 0.033191 0.533099 0.554381
C315  C     C_R   0.499972 0.966809 0.533099 0.554381
C316  C     C_R   0.500028 0.966809 0.466901 0.554382
C317  C     C_R   0.499972 0.033191 0.466901 0.554381
C318  C     C_R   0.500028 0.533191 0.033099 0.554381
C319  C     C_R   0.499972 0.466809 0.033099 0.554381
C320  C     C_R   0.500028 0.466809 0.966901 0.554382
C321  C     C_R   0.499972 0.533191 0.966901 0.554381
C322  C     C_R   0.000028 0.033191 0.033099 0.554381
C323  C     C_R   0.499302 0.588229 0.912056 0.066141
C324  C     C_R   0.999972 0.966809 0.033099 0.554381
C325  C     C_R   0.000028 0.966809 0.966901 0.554382
C326  C     C_R   0.999972 0.033191 0.966901 0.554381
C327  C     C_R   0.877268 0.770067 0.258813 -0.130881
C328  C     C_R   0.122732 0.229933 0.258813 -0.130881
C329  C     C_R   0.877268 0.229933 0.741187 -0.130881
C330  C     C_R   0.122732 0.770067 0.741187 -0.130881
C331  C     C_R   0.377268 0.270067 0.258813 -0.130881
C332  C     C_R   0.622732 0.729933 0.258813 -0.130881
C333  C     C_R   0.377268 0.729933 0.741187 -0.130881
C334  C     C_R   0.000003 0.783145 0.783134 0.551573
C335  C     C_R   0.500698 0.411771 0.912056 0.066141
C336  C     C_R   0.622732 0.270067 0.741187 -0.130881
C337  C     C_R   0.377268 0.770067 0.758813 -0.130881
C338  C     C_R   0.622732 0.229933 0.758813 -0.130881
C339  C     C_R   0.377268 0.229933 0.241187 -0.130881
C340  C     C_R   0.622732 0.770067 0.241187 -0.130881
C341  C     C_R   0.877268 0.270067 0.758813 -0.130881
C342  C     C_R   0.122732 0.729933 0.758813 -0.130881
C343  C     C_R   0.877268 0.729933 0.241187 -0.130881
C344  C     C_R   0.122732 0.270067 0.241187 -0.130881
C345  C     C_R   0.841339 0.770167 0.258585 -0.118621
C346  C     C_R   0.499302 0.911771 0.587944 0.066141
C347  C     C_R   0.158661 0.229833 0.258585 -0.118621
C348  C     C_R   0.841339 0.229833 0.741415 -0.118621
C349  C     C_R   0.158661 0.770167 0.741415 -0.118621
C350  C     C_R   0.341339 0.270167 0.258585 -0.118621
C351  C     C_R   0.658661 0.729833 0.258585 -0.118621
C352  C     C_R   0.341339 0.729833 0.741415 -0.118621
C353  C     C_R   0.658661 0.270167 0.741415 -0.118621
C354  C     C_R   0.341339 0.770167 0.758585 -0.118621
C355  C     C_R   0.658661 0.229833 0.758585 -0.118621
C356  C     C_R   0.341339 0.229833 0.241415 -0.118621
C357  C     C_R   0.500698 0.088229 0.587944 0.066140
C358  C     C_R   0.658661 0.770167 0.241415 -0.118621
C359  C     C_R   0.841339 0.270167 0.758585 -0.118621
C360  C     C_R   0.158661 0.729833 0.758585 -0.118621
C361  C     C_R   0.841339 0.729833 0.241415 -0.118621
C362  C     C_R   0.158661 0.270167 0.241415 -0.118621
C363  C     C_R   0.822988 0.750000 0.250000 0.033404
C364  C     C_R   0.177012 0.250000 0.250000 0.033404
C365  C     C_R   0.822988 0.250000 0.750000 0.033404
C366  C     C_R   0.177012 0.750000 0.750000 0.033404
C367  C     C_R   0.322988 0.250000 0.250000 0.033404
C368  C     C_R   0.499302 0.088229 0.412056 0.066141
C369  C     C_R   0.677012 0.750000 0.250000 0.033404
C370  C     C_R   0.322988 0.750000 0.750000 0.033404
C371  C     C_R   0.677012 0.250000 0.750000 0.033404
C372  C     C_R   0.895594 0.750000 0.250000 0.016075
C373  C     C_R   0.104406 0.250000 0.250000 0.016075
C374  C     C_R   0.895594 0.250000 0.750000 0.016075
C375  C     C_R   0.104406 0.750000 0.750000 0.016075
C376  C     C_R   0.395594 0.250000 0.250000 0.016075
C377  C     C_R   0.604406 0.750000 0.250000 0.016075
C378  C     C_R   0.395594 0.750000 0.750000 0.016075
C379  C     C_R   0.500698 0.911771 0.412056 0.066141
C380  C     C_R   0.604406 0.250000 0.750000 0.016075
C381  C     C_R   0.715059 0.750000 0.250000 0.341469
C382  C     C_R   0.284941 0.250000 0.250000 0.341469
C383  C     C_R   0.715059 0.250000 0.750000 0.341469
C384  C     C_R   0.284941 0.750000 0.750000 0.341469
C385  C     C_R   0.215059 0.250000 0.250000 0.341469
C386  C     C_R   0.784941 0.750000 0.250000 0.341469
C387  C     C_R   0.215059 0.750000 0.750000 0.341469
C388  C     C_R   0.784941 0.250000 0.750000 0.341469
C389  C     C_R   0.030734 0.939185 0.061645 -0.141023
C390  C     C_R   0.999302 0.411771 0.587944 0.066140
C391  C     C_R   0.969266 0.060815 0.061645 -0.141023
C392  C     C_R   0.030734 0.060815 0.938355 -0.141023
C393  C     C_R   0.969266 0.939184 0.938356 -0.141024
C394  C     C_R   0.530734 0.439185 0.061645 -0.141023
C395  C     C_R   0.469266 0.560815 0.061645 -0.141023
C396  C     C_R   0.530734 0.560815 0.938355 -0.141023
C397  C     C_R   0.469266 0.439185 0.938355 -0.141023
C398  C     C_R   0.530734 0.939185 0.561645 -0.141023
C399  C     C_R   0.469266 0.060815 0.561644 -0.141023
C400  C     C_R   0.530734 0.060815 0.438355 -0.141023
C401  C     C_R   0.000698 0.588229 0.587944 0.066140
C402  C     C_R   0.469266 0.939185 0.438355 -0.141023
C403  C     C_R   0.030734 0.439185 0.561645 -0.141023
C404  C     C_R   0.969266 0.560815 0.561644 -0.141023
C405  C     C_R   0.030734 0.560815 0.438355 -0.141023
C406  C     C_R   0.969266 0.439185 0.438355 -0.141023
C407  C     C_R   0.999302 0.588229 0.412056 0.066141
C408  C     C_R   0.000698 0.411771 0.412056 0.066141
C409  C     C_R   0.968112 0.920195 0.078091 0.102656
C410  C     C_R   0.499997 0.283145 0.216866 0.551573
C411  C     C_R   0.031887 0.079805 0.078091 0.102657
C412  C     C_R   0.968112 0.079805 0.921909 0.102656
C413  C     C_R   0.031887 0.920196 0.921907 0.102656
C414  C     C_R   0.468112 0.420195 0.078091 0.102656
C415  C     C_R   0.531888 0.579805 0.078091 0.102657
C416  C     C_R   0.468112 0.579805 0.921909 0.102656
C417  C     C_R   0.531887 0.420195 0.921909 0.102656
C418  C     C_R   0.468112 0.920195 0.578091 0.102656
C419  C     C_R   0.531888 0.079805 0.578091 0.102656
C420  C     C_R   0.468112 0.079805 0.421909 0.102657
C421  C     C_R   0.500004 0.716855 0.216866 0.551573
C422  C     C_R   0.531887 0.920195 0.421909 0.102656
C423  C     C_R   0.968112 0.420195 0.578091 0.102656
C424  C     C_R   0.031888 0.579805 0.578091 0.102657
C425  C     C_R   0.968112 0.579805 0.421909 0.102657
C426  C     C_R   0.031887 0.420195 0.421909 0.102656
C427  C     C_R   0.968570 0.938211 0.060235 -0.122812
C428  C     C_R   0.031430 0.061789 0.060235 -0.122812
C429  C     C_R   0.968570 0.061789 0.939765 -0.122812
C430  C     C_R   0.031430 0.938212 0.939764 -0.122812
C431  C     C_R   0.468570 0.438211 0.060235 -0.122811
C432  C     C_R   0.499997 0.716855 0.783134 0.551573
C433  C     C_R   0.531430 0.561789 0.060234 -0.122812
C434  C     C_R   0.468570 0.561789 0.939765 -0.122812
C435  C     C_R   0.531430 0.438210 0.939766 -0.122812
C436  C     C_R   0.468570 0.938211 0.560234 -0.122812
C437  C     C_R   0.531430 0.061789 0.560235 -0.122812
C438  C     C_R   0.468570 0.061789 0.439765 -0.122812
C439  C     C_R   0.531430 0.938211 0.439765 -0.122812
C440  C     C_R   0.968570 0.438211 0.560234 -0.122812
C441  C     C_R   0.031430 0.561789 0.560235 -0.122811
C442  C     C_R   0.968570 0.561789 0.439765 -0.122811
C443  C     C_R   0.500004 0.283145 0.783134 0.551573
C444  C     C_R   0.031430 0.438210 0.439765 -0.122812
C445  C     C_R   0.999791 0.947859 0.051916 -0.004760
C446  C     C_R   0.000209 0.052141 0.051916 -0.004760
C447  C     C_R   0.999791 0.052141 0.948084 -0.004760
C448  C     C_R   0.000209 0.947859 0.948084 -0.004760
C449  C     C_R   0.499791 0.447859 0.051916 -0.004760
C450  C     C_R   0.500209 0.552141 0.051916 -0.004760
C451  C     C_R   0.499791 0.552141 0.948084 -0.004760
C452  C     C_R   0.500209 0.447859 0.948084 -0.004760
C453  C     C_R   0.499791 0.947859 0.551916 -0.004760
C454  C     C_R   0.499996 0.783145 0.716866 0.551573
C455  C     C_R   0.500209 0.052141 0.551916 -0.004760
C456  C     C_R   0.499791 0.052141 0.448084 -0.004760
C457  C     C_R   0.500209 0.947859 0.448084 -0.004760
C458  C     C_R   0.999791 0.447859 0.551916 -0.004760
C459  C     C_R   0.000209 0.552141 0.551916 -0.004760
C460  C     C_R   0.999791 0.552141 0.448084 -0.004760
C461  C     C_R   0.000209 0.447859 0.448084 -0.004760
C462  C     C_R   0.020016 0.872199 0.104124 -0.119762
C463  C     C_R   0.019611 0.104009 0.128176 -0.081300
C464  C     C_R   0.020016 0.127801 0.895876 -0.119763
Cu1   Cu    Cu3+1 0.999950 0.732930 0.232870 0.919953
Cu2   Cu    Cu3+1 0.500050 0.267070 0.732870 0.919953
Cu3   Cu    Cu3+1 0.499950 0.267070 0.267130 0.919953
Cu4   Cu    Cu3+1 0.500050 0.732930 0.267130 0.919953
Cu5   Cu    Cu3+1 0.999950 0.232930 0.732870 0.919953
Cu6   Cu    Cu3+1 0.000050 0.767070 0.732870 0.919953
Cu7   Cu    Cu3+1 0.999950 0.767070 0.267130 0.919953
Cu8   Cu    Cu3+1 0.000050 0.232930 0.267130 0.919953
Cu9   Cu    Cu3+1 0.965730 0.500000 0.500000 0.915129
Cu10  Cu    Cu3+1 0.034270 0.500000 0.500000 0.915129
Cu11  Cu    Cu3+1 0.465730 0.000000 0.500000 0.915129
Cu12  Cu    Cu3+1 0.000050 0.267070 0.232870 0.919953
Cu13  Cu    Cu3+1 0.534270 0.000000 0.500000 0.915129
Cu14  Cu    Cu3+1 0.465730 0.500000 0.000000 0.915129
Cu15  Cu    Cu3+1 0.534270 0.500000 0.000000 0.915129
Cu16  Cu    Cu3+1 0.965730 0.000000 0.000000 0.915129
Cu17  Cu    Cu3+1 0.034270 0.000000 0.000000 0.915129
Cu18  Cu    Cu3+1 0.999950 0.267070 0.767130 0.919953
Cu19  Cu    Cu3+1 0.000050 0.732930 0.767130 0.919953
Cu20  Cu    Cu3+1 0.499950 0.232930 0.232870 0.919953
Cu21  Cu    Cu3+1 0.500050 0.767070 0.232870 0.919953
Cu22  Cu    Cu3+1 0.499950 0.767070 0.767130 0.919953
Cu23  Cu    Cu3+1 0.500050 0.232930 0.767130 0.919953
Cu24  Cu    Cu3+1 0.499950 0.732930 0.732870 0.919953
H1    H     H_    0.890717 0.785821 0.265634 0.128396
H2    H     H_    0.609282 0.214179 0.765634 0.128396
H3    H     H_    0.671435 0.721879 0.722839 0.106053
H4    H     H_    0.828565 0.221888 0.277171 0.106052
H5    H     H_    0.171435 0.778116 0.277167 0.106052
H6    H     H_    0.828565 0.778105 0.722822 0.106052
H7    H     H_    0.171435 0.221893 0.722824 0.106052
H8    H     H_    0.828565 0.721895 0.777177 0.106052
H9    H     H_    0.171435 0.278107 0.777175 0.106052
H10   H     H_    0.828565 0.278112 0.222829 0.106052
H11   H     H_    0.171435 0.721884 0.222833 0.106052
H12   H     H_    0.328565 0.221880 0.777162 0.106053
H13   H     H_    0.390717 0.214179 0.234365 0.128396
H14   H     H_    0.671435 0.778121 0.777161 0.106052
H15   H     H_    0.328565 0.778111 0.222829 0.106052
H16   H     H_    0.671435 0.221886 0.222831 0.106052
H17   H     H_    0.281368 0.789107 0.250195 0.103759
H18   H     H_    0.718632 0.289107 0.249801 0.103759
H19   H     H_    0.281368 0.210893 0.749792 0.103760
H20   H     H_    0.718632 0.710893 0.750210 0.103759
H21   H     H_    0.781368 0.289107 0.250197 0.103760
H22   H     H_    0.218632 0.789107 0.249799 0.103759
H23   H     H_    0.781368 0.710892 0.749814 0.103759
H24   H     H_    0.609282 0.785821 0.234365 0.128396
H25   H     H_    0.218632 0.210893 0.750187 0.103759
H26   H     H_    0.781368 0.789108 0.750186 0.103758
H27   H     H_    0.218632 0.289107 0.749813 0.103759
H28   H     H_    0.781368 0.210893 0.249803 0.103760
H29   H     H_    0.218632 0.710893 0.250201 0.103759
H30   H     H_    0.281368 0.289107 0.750208 0.103760
H31   H     H_    0.718632 0.789107 0.749790 0.103759
H32   H     H_    0.281368 0.710893 0.249805 0.103759
H33   H     H_    0.718632 0.210893 0.250198 0.103759
H34   H     H_    0.827918 0.785930 0.265409 0.133234
H35   H     H_    0.890717 0.285821 0.765634 0.128396
H36   H     H_    0.172082 0.214070 0.265409 0.133234
H37   H     H_    0.827918 0.214070 0.734591 0.133234
H38   H     H_    0.172082 0.785930 0.734591 0.133234
H39   H     H_    0.327918 0.285930 0.265409 0.133234
H40   H     H_    0.672082 0.714070 0.265409 0.133234
H41   H     H_    0.327918 0.714070 0.734591 0.133234
H42   H     H_    0.672082 0.285930 0.734591 0.133234
H43   H     H_    0.327918 0.785930 0.765409 0.133234
H44   H     H_    0.672082 0.214070 0.765409 0.133234
H45   H     H_    0.327918 0.214070 0.234591 0.133234
H46   H     H_    0.109283 0.714179 0.765634 0.128396
H47   H     H_    0.672082 0.785930 0.234591 0.133234
H48   H     H_    0.827918 0.285930 0.765409 0.133234
H49   H     H_    0.172082 0.714070 0.765409 0.133234
H50   H     H_    0.827918 0.714070 0.234591 0.133234
H51   H     H_    0.172082 0.285930 0.234591 0.133234
H52   H     H_    0.055195 0.946264 0.055565 0.134928
H53   H     H_    0.944805 0.053736 0.055564 0.134928
H54   H     H_    0.055195 0.053736 0.944435 0.134928
H55   H     H_    0.944805 0.946262 0.944437 0.134928
H56   H     H_    0.555195 0.446264 0.055565 0.134928
H57   H     H_    0.890717 0.714179 0.234365 0.128396
H58   H     H_    0.444805 0.553736 0.055565 0.134928
H59   H     H_    0.555195 0.553736 0.944436 0.134928
H60   H     H_    0.444805 0.446264 0.944435 0.134928
H61   H     H_    0.555195 0.946264 0.555565 0.134928
H62   H     H_    0.444805 0.053736 0.555564 0.134928
H63   H     H_    0.555195 0.053736 0.444435 0.134928
H64   H     H_    0.444805 0.946264 0.444436 0.134928
H65   H     H_    0.055195 0.446264 0.555564 0.134928
H66   H     H_    0.944805 0.553736 0.555564 0.134928
H67   H     H_    0.055195 0.553736 0.444435 0.134928
H68   H     H_    0.109283 0.285821 0.234365 0.128396
H69   H     H_    0.944805 0.446264 0.444435 0.134928
H70   H     H_    0.054666 0.915050 0.086855 0.109324
H71   H     H_    0.945334 0.084950 0.086855 0.109324
H72   H     H_    0.054666 0.084950 0.913145 0.109324
H73   H     H_    0.945334 0.915048 0.913147 0.109325
H74   H     H_    0.554666 0.415050 0.086855 0.109324
H75   H     H_    0.445334 0.584950 0.086855 0.109324
H76   H     H_    0.554666 0.584951 0.913145 0.109324
H77   H     H_    0.445334 0.415050 0.913145 0.109324
H78   H     H_    0.554666 0.915050 0.586855 0.109324
H79   H     H_    0.965063 0.912132 0.130893 0.124970
H80   H     H_    0.445334 0.084951 0.586855 0.109324
H81   H     H_    0.554666 0.084950 0.413145 0.109324
H82   H     H_    0.445334 0.915049 0.413145 0.109324
H83   H     H_    0.054666 0.415050 0.586855 0.109324
H84   H     H_    0.945334 0.584951 0.586855 0.109324
H85   H     H_    0.054666 0.584950 0.413145 0.109324
H86   H     H_    0.945334 0.415050 0.413145 0.109324
H87   H     H_    0.944399 0.944478 0.052806 0.126990
H88   H     H_    0.055601 0.055522 0.052807 0.126990
H89   H     H_    0.944399 0.055522 0.947193 0.126990
H90   H     H_    0.964731 0.130357 0.087920 0.105299
H91   H     H_    0.055601 0.944480 0.947191 0.126990
H92   H     H_    0.444399 0.444478 0.052806 0.126990
H93   H     H_    0.555601 0.555522 0.052806 0.126990
H94   H     H_    0.444399 0.555522 0.947193 0.126990
H95   H     H_    0.555601 0.444478 0.947194 0.126991
H96   H     H_    0.444399 0.944478 0.552806 0.126990
H97   H     H_    0.555601 0.055521 0.552807 0.126990
H98   H     H_    0.444399 0.055522 0.447193 0.126990
H99   H     H_    0.555601 0.944478 0.447193 0.126990
H100  H     H_    0.944399 0.444478 0.552806 0.126990
H101  H     H_    0.965063 0.087868 0.869107 0.124971
H102  H     H_    0.055601 0.555521 0.552807 0.126990
H103  H     H_    0.944399 0.555522 0.447193 0.126990
H104  H     H_    0.055601 0.444478 0.447194 0.126991
H105  H     H_    0.035269 0.869643 0.087920 0.105299
H106  H     H_    0.034937 0.087867 0.130893 0.124971
H107  H     H_    0.035269 0.130357 0.912080 0.105299
H108  H     H_    0.034933 0.912134 0.869106 0.124970
H109  H     H_    0.535269 0.369643 0.087920 0.105299
H110  H     H_    0.534937 0.587868 0.130893 0.124970
H111  H     H_    0.535269 0.630357 0.912080 0.105299
H112  H     H_    0.109283 0.214179 0.265634 0.128396
H113  H     H_    0.964734 0.869642 0.912081 0.105299
H114  H     H_    0.534937 0.412132 0.869107 0.124970
H115  H     H_    0.535269 0.869643 0.587920 0.105299
H116  H     H_    0.534936 0.087867 0.630893 0.124970
H117  H     H_    0.535269 0.130357 0.412080 0.105299
H118  H     H_    0.534937 0.912133 0.369107 0.124970
H119  H     H_    0.035269 0.369643 0.587920 0.105299
H120  H     H_    0.034937 0.587867 0.630893 0.124970
H121  H     H_    0.035269 0.630357 0.412080 0.105299
H122  H     H_    0.034937 0.412132 0.369107 0.124971
H123  H     H_    0.998238 0.776911 0.167854 0.129807
H124  H     H_    0.465063 0.412132 0.130893 0.124970
H125  H     H_    0.001762 0.223089 0.167854 0.129807
H126  H     H_    0.998237 0.223089 0.832145 0.129807
H127  H     H_    0.001767 0.776911 0.832145 0.129807
H128  H     H_    0.498238 0.276911 0.167854 0.129807
H129  H     H_    0.501762 0.723089 0.167854 0.129807
H130  H     H_    0.498237 0.723089 0.832145 0.129808
H131  H     H_    0.501762 0.276911 0.832145 0.129808
H132  H     H_    0.498238 0.776911 0.667854 0.129808
H133  H     H_    0.501763 0.223089 0.667855 0.129808
H134  H     H_    0.498237 0.223089 0.332145 0.129807
H135  H     H_    0.464731 0.630357 0.087920 0.105299
H136  H     H_    0.501763 0.776911 0.332145 0.129808
H137  H     H_    0.998238 0.276911 0.667854 0.129807
H138  H     H_    0.001762 0.723089 0.667854 0.129807
H139  H     H_    0.998238 0.723089 0.332145 0.129807
H140  H     H_    0.001762 0.276911 0.332145 0.129807
H141  H     H_    0.923811 0.902781 0.070473 0.232422
H142  H     H_    0.920686 0.924083 0.092334 0.221502
H143  H     H_    0.076189 0.097219 0.070473 0.232421
H144  H     H_    0.079313 0.075917 0.092334 0.221501
H145  H     H_    0.923811 0.097219 0.929527 0.232422
H146  H     H_    0.465063 0.587867 0.869107 0.124970
H147  H     H_    0.920686 0.075917 0.907666 0.221502
H148  H     H_    0.076191 0.902784 0.929524 0.232421
H149  H     H_    0.079312 0.924086 0.907663 0.221501
H150  H     H_    0.423811 0.402781 0.070473 0.232423
H151  H     H_    0.420686 0.424083 0.092334 0.221502
H152  H     H_    0.576189 0.597219 0.070473 0.232421
H153  H     H_    0.579314 0.575917 0.092334 0.221500
H154  H     H_    0.423811 0.597219 0.929527 0.232421
H155  H     H_    0.420687 0.575917 0.907666 0.221502
H156  H     H_    0.576188 0.402780 0.929527 0.232422
H157  H     H_    0.464730 0.369643 0.912080 0.105299
H158  H     H_    0.579314 0.424083 0.907667 0.221501
H159  H     H_    0.423811 0.902781 0.570473 0.232421
H160  H     H_    0.420687 0.924083 0.592334 0.221502
H161  H     H_    0.576189 0.097219 0.570473 0.232422
H162  H     H_    0.579313 0.075916 0.592334 0.221501
H163  H     H_    0.423811 0.097219 0.429527 0.232422
H164  H     H_    0.420686 0.075917 0.407666 0.221501
H165  H     H_    0.576189 0.902781 0.429527 0.232422
H166  H     H_    0.579313 0.924083 0.407666 0.221501
H167  H     H_    0.923811 0.402781 0.570473 0.232422
H168  H     H_    0.465063 0.912132 0.630893 0.124970
H169  H     H_    0.920686 0.424083 0.592334 0.221501
H170  H     H_    0.076189 0.597219 0.570473 0.232422
H171  H     H_    0.079313 0.575916 0.592334 0.221502
H172  H     H_    0.923811 0.597219 0.429527 0.232421
H173  H     H_    0.920686 0.575917 0.407666 0.221502
H174  H     H_    0.076189 0.402780 0.429527 0.232422
H175  H     H_    0.079313 0.424083 0.407666 0.221502
H176  H     H_    0.036323 0.838525 0.119468 0.104614
H177  H     H_    0.034943 0.119279 0.162084 0.103892
H178  H     H_    0.036323 0.161476 0.880532 0.104614
H179  H     H_    0.464731 0.130357 0.587920 0.105299
H180  H     H_    0.034939 0.880722 0.837914 0.103892
H181  H     H_    0.536323 0.338525 0.119468 0.104614
H182  H     H_    0.534943 0.619279 0.162084 0.103892
H183  H     H_    0.536323 0.661475 0.880532 0.104614
H184  H     H_    0.534944 0.380721 0.837916 0.103892
H185  H     H_    0.536323 0.838525 0.619468 0.104614
H186  H     H_    0.534943 0.119279 0.662084 0.103893
H187  H     H_    0.536323 0.161476 0.380532 0.104614
H188  H     H_    0.534943 0.880721 0.337916 0.103893
H189  H     H_    0.036323 0.338525 0.619468 0.104614
H190  H     H_    0.465063 0.087867 0.369107 0.124970
H191  H     H_    0.034943 0.619279 0.662084 0.103892
H192  H     H_    0.036323 0.661475 0.380532 0.104614
H193  H     H_    0.034943 0.380721 0.337916 0.103893
H194  H     H_    0.965057 0.880721 0.162084 0.103893
H195  H     H_    0.963677 0.161476 0.119468 0.104614
H196  H     H_    0.965057 0.119279 0.837916 0.103893
H197  H     H_    0.963681 0.838523 0.880533 0.104614
H198  H     H_    0.465057 0.380721 0.162084 0.103892
H199  H     H_    0.463677 0.661475 0.119468 0.104614
H200  H     H_    0.465057 0.619279 0.837916 0.103893
H201  H     H_    0.464731 0.869643 0.412080 0.105299
H202  H     H_    0.463677 0.338525 0.880532 0.104614
H203  H     H_    0.465057 0.880721 0.662084 0.103892
H204  H     H_    0.463677 0.161476 0.619468 0.104614
H205  H     H_    0.465057 0.119279 0.337916 0.103893
H206  H     H_    0.463677 0.838524 0.380532 0.104614
H207  H     H_    0.965057 0.380721 0.662084 0.103893
H208  H     H_    0.963677 0.661476 0.619468 0.104614
H209  H     H_    0.965057 0.619279 0.337916 0.103892
H210  H     H_    0.963677 0.338525 0.380532 0.104614
H211  H     H_    0.965063 0.412132 0.630893 0.124970
H212  H     H_    0.890717 0.214179 0.734365 0.128396
H213  H     H_    0.964731 0.630357 0.587920 0.105299
H214  H     H_    0.965063 0.587868 0.369107 0.124970
H215  H     H_    0.964730 0.369643 0.412080 0.105299
H216  H     H_    0.003076 0.863343 0.192113 0.104433
H217  H     H_    0.996923 0.136657 0.192113 0.104433
H218  H     H_    0.003077 0.136657 0.807887 0.104433
H219  H     H_    0.996919 0.863343 0.807887 0.104433
H220  H     H_    0.503076 0.363343 0.192113 0.104433
H221  H     H_    0.496924 0.636657 0.192113 0.104433
H222  H     H_    0.503077 0.636657 0.807887 0.104433
H223  H     H_    0.109283 0.785821 0.734365 0.128396
H224  H     H_    0.496924 0.363343 0.807887 0.104433
H225  H     H_    0.503076 0.863343 0.692113 0.104433
H226  H     H_    0.496923 0.136657 0.692113 0.104433
H227  H     H_    0.503077 0.136657 0.307887 0.104433
H228  H     H_    0.496923 0.863343 0.307887 0.104433
H229  H     H_    0.003076 0.363343 0.692113 0.104433
H230  H     H_    0.996923 0.636657 0.692113 0.104433
H231  H     H_    0.003076 0.636657 0.307887 0.104433
H232  H     H_    0.996924 0.363343 0.307887 0.104433
H233  H     H_    0.002344 0.832101 0.223284 0.128714
H234  H     H_    0.390717 0.285821 0.265634 0.128396
H235  H     H_    0.997656 0.167899 0.223284 0.128714
H236  H     H_    0.002344 0.167899 0.776716 0.128714
H237  H     H_    0.997651 0.832100 0.776716 0.128714
H238  H     H_    0.502344 0.332101 0.223284 0.128714
H239  H     H_    0.497656 0.667899 0.223284 0.128714
H240  H     H_    0.502344 0.667899 0.776716 0.128713
H241  H     H_    0.497656 0.332101 0.776716 0.128713
H242  H     H_    0.502344 0.832101 0.723284 0.128713
H243  H     H_    0.497655 0.167899 0.723284 0.128713
H244  H     H_    0.502344 0.167899 0.276716 0.128714
H245  H     H_    0.609282 0.714179 0.265634 0.128396
H246  H     H_    0.497656 0.832101 0.276716 0.128713
H247  H     H_    0.002344 0.332101 0.723284 0.128714
H248  H     H_    0.997655 0.667899 0.723284 0.128714
H249  H     H_    0.002344 0.667899 0.276716 0.128714
H250  H     H_    0.997656 0.332101 0.276716 0.128714
H251  H     H_    0.998255 0.808234 0.136734 0.107930
H252  H     H_    0.001744 0.191766 0.136734 0.107930
H253  H     H_    0.998255 0.191766 0.863265 0.107930
H254  H     H_    0.001749 0.808235 0.863265 0.107930
H255  H     H_    0.498256 0.308234 0.136734 0.107930
H256  H     H_    0.390717 0.714179 0.734365 0.128396
H257  H     H_    0.501744 0.691766 0.136734 0.107930
H258  H     H_    0.498255 0.691766 0.863265 0.107930
H259  H     H_    0.501744 0.308234 0.863265 0.107930
H260  H     H_    0.498256 0.808234 0.636734 0.107930
H261  H     H_    0.501745 0.191766 0.636734 0.107930
H262  H     H_    0.498255 0.191766 0.363265 0.107930
H263  H     H_    0.501745 0.808234 0.363265 0.107930
H264  H     H_    0.998256 0.308234 0.636734 0.107930
H265  H     H_    0.001745 0.691766 0.636734 0.107930
H266  H     H_    0.998255 0.691766 0.363265 0.107930
H267  H     H_    0.609282 0.285821 0.734365 0.128396
H268  H     H_    0.001744 0.308234 0.363265 0.107930
H269  H     H_    0.391184 0.721714 0.277071 0.128832
H270  H     H_    0.608816 0.278288 0.277068 0.128832
H271  H     H_    0.391184 0.278294 0.722938 0.128833
H272  H     H_    0.608816 0.721705 0.722939 0.128832
H273  H     H_    0.891184 0.221714 0.277071 0.128831
H274  H     H_    0.108816 0.778289 0.277067 0.128832
H275  H     H_    0.891184 0.778279 0.722923 0.128832
H276  H     H_    0.108816 0.221719 0.722925 0.128832
H277  H     H_    0.891184 0.721721 0.777077 0.128832
H278  H     H_    0.390717 0.785821 0.765634 0.128396
H279  H     H_    0.108816 0.278281 0.777075 0.128832
H280  H     H_    0.891184 0.278286 0.222929 0.128832
H281  H     H_    0.108816 0.721710 0.222933 0.128832
H282  H     H_    0.391184 0.221706 0.777062 0.128832
H283  H     H_    0.608816 0.778295 0.777061 0.128831
H284  H     H_    0.391184 0.778286 0.222929 0.128832
H285  H     H_    0.608816 0.221712 0.222931 0.128832
H286  H     H_    0.328565 0.721888 0.277171 0.106052
H287  H     H_    0.671435 0.278114 0.277169 0.106053
H288  H     H_    0.328565 0.278120 0.722838 0.106053
N1    N     N_R   0.767114 0.728851 0.249946 -0.230947
N2    N     N_R   0.732886 0.271149 0.749946 -0.230948
N3    N     N_R   0.267114 0.271149 0.250054 -0.230948
N4    N     N_R   0.732886 0.728851 0.250054 -0.230947
N5    N     N_R   0.767114 0.228851 0.749946 -0.230947
N6    N     N_R   0.232886 0.771149 0.749946 -0.230947
N7    N     N_R   0.767114 0.771149 0.250054 -0.230948
N8    N     N_R   0.232886 0.228851 0.250054 -0.230947
N9    N     N_3   0.936024 0.910030 0.085696 -0.639003
N10   N     N_3   0.063976 0.089970 0.085696 -0.639002
N11   N     N_3   0.936024 0.089970 0.914303 -0.639002
N12   N     N_R   0.232886 0.271149 0.249946 -0.230948
N13   N     N_3   0.063976 0.910032 0.914301 -0.639001
N14   N     N_3   0.436024 0.410030 0.085696 -0.639004
N15   N     N_3   0.563976 0.589970 0.085696 -0.639001
N16   N     N_3   0.436024 0.589970 0.914303 -0.639002
N17   N     N_3   0.563975 0.410030 0.914304 -0.639002
N18   N     N_3   0.436024 0.910030 0.585696 -0.639003
N19   N     N_3   0.563976 0.089970 0.585697 -0.639002
N20   N     N_3   0.436024 0.089970 0.414303 -0.639002
N21   N     N_3   0.563976 0.910030 0.414303 -0.639003
N22   N     N_3   0.936024 0.410030 0.585696 -0.639002
N23   N     N_R   0.767114 0.271149 0.750054 -0.230948
N24   N     N_3   0.063976 0.589970 0.585697 -0.639003
N25   N     N_3   0.936024 0.589970 0.414304 -0.639003
N26   N     N_3   0.063975 0.410030 0.414304 -0.639003
N27   N     N_R   0.232886 0.728851 0.750054 -0.230948
N28   N     N_R   0.267114 0.228851 0.249946 -0.230947
N29   N     N_R   0.732886 0.771149 0.249946 -0.230948
N30   N     N_R   0.267114 0.771149 0.750054 -0.230948
N31   N     N_R   0.732886 0.228851 0.750054 -0.230947
N32   N     N_R   0.267114 0.728851 0.749946 -0.230947
O1    O     O_R   0.999940 0.760540 0.210570 -0.510744
O2    O     O_R   0.500060 0.239460 0.710570 -0.510743
O3    O     O_R   0.499940 0.239460 0.289430 -0.510744
O4    O     O_R   0.500060 0.760540 0.289430 -0.510744
O5    O     O_R   0.999940 0.260540 0.710570 -0.510745
O6    O     O_R   0.000060 0.739460 0.710570 -0.510745
O7    O     O_R   0.999940 0.739460 0.289430 -0.510744
O8    O     O_R   0.000060 0.260540 0.289430 -0.510744
O9    O     O_R   0.999930 0.789420 0.239470 -0.513459
O10   O     O_R   0.000070 0.210580 0.239470 -0.513459
O11   O     O_R   0.999930 0.210580 0.760530 -0.513458
O12   O     O_R   0.000060 0.239460 0.210570 -0.510744
O13   O     O_R   0.000070 0.789420 0.760530 -0.513458
O14   O     O_R   0.499930 0.289420 0.239470 -0.513459
O15   O     O_R   0.500070 0.710580 0.239470 -0.513459
O16   O     O_R   0.499930 0.710580 0.760530 -0.513460
O17   O     O_R   0.500070 0.289420 0.760530 -0.513460
O18   O     O_R   0.499930 0.789420 0.739470 -0.513460
O19   O     O_R   0.500070 0.210580 0.739470 -0.513460
O20   O     O_R   0.499930 0.210580 0.260530 -0.513459
O21   O     O_R   0.500070 0.789420 0.260530 -0.513459
O22   O     O_R   0.999930 0.289420 0.739470 -0.513459
O23   O     O_R   0.999940 0.239460 0.789430 -0.510745
O24   O     O_R   0.000070 0.710580 0.739470 -0.513458
O25   O     O_R   0.999930 0.710580 0.260530 -0.513459
O26   O     O_R   0.000070 0.289420 0.260530 -0.513459
O27   O     O_R   0.950030 0.735590 0.235530 -0.508755
O28   O     O_R   0.049970 0.264410 0.235530 -0.508756
O29   O     O_R   0.950030 0.264410 0.764470 -0.508755
O30   O     O_R   0.049970 0.735590 0.764470 -0.508755
O31   O     O_R   0.450030 0.235590 0.235530 -0.508755
O32   O     O_R   0.549970 0.764410 0.235530 -0.508756
O33   O     O_R   0.450030 0.764410 0.764470 -0.508755
O34   O     O_R   0.000060 0.760540 0.789430 -0.510745
O35   O     O_R   0.549970 0.235590 0.764470 -0.508755
O36   O     O_R   0.450030 0.735590 0.735530 -0.508755
O37   O     O_R   0.549970 0.264410 0.735530 -0.508756
O38   O     O_R   0.450030 0.264410 0.264470 -0.508755
O39   O     O_R   0.549970 0.735590 0.264470 -0.508755
O40   O     O_R   0.950030 0.235590 0.735530 -0.508755
O41   O     O_R   0.049970 0.764410 0.735530 -0.508755
O42   O     O_R   0.950030 0.764410 0.264470 -0.508755
O43   O     O_R   0.049970 0.235590 0.264470 -0.508755
O44   O     O_R   0.049870 0.735590 0.235520 -0.512690
O45   O     O_R   0.499940 0.260540 0.210570 -0.510744
O46   O     O_R   0.950130 0.264410 0.235520 -0.512689
O47   O     O_R   0.049870 0.264410 0.764480 -0.512690
O48   O     O_R   0.950130 0.735590 0.764480 -0.512690
O49   O     O_R   0.549870 0.235590 0.235520 -0.512690
O50   O     O_R   0.450130 0.764410 0.235520 -0.512689
O51   O     O_R   0.549870 0.764410 0.764480 -0.512689
O52   O     O_R   0.450130 0.235590 0.764480 -0.512690
O53   O     O_R   0.549870 0.735590 0.735520 -0.512689
O54   O     O_R   0.450130 0.264410 0.735520 -0.512689
O55   O     O_R   0.549870 0.264410 0.264480 -0.512690
O56   O     O_R   0.500060 0.739460 0.210570 -0.510744
O57   O     O_R   0.450130 0.735590 0.264480 -0.512690
O58   O     O_R   0.049870 0.235590 0.735520 -0.512690
O59   O     O_R   0.950130 0.764410 0.735520 -0.512690
O60   O     O_R   0.049870 0.764410 0.264480 -0.512690
O61   O     O_R   0.950130 0.235590 0.264480 -0.512690
O62   O     O_R   0.971100 0.525010 0.524970 -0.510716
O63   O     O_R   0.028900 0.474990 0.524970 -0.510716
O64   O     O_R   0.971100 0.474990 0.475030 -0.510715
O65   O     O_R   0.028900 0.525010 0.475030 -0.510715
O66   O     O_R   0.471100 0.025010 0.524970 -0.510716
O67   O     O_R   0.499940 0.739460 0.789430 -0.510743
O68   O     O_R   0.528900 0.974990 0.524970 -0.510715
O69   O     O_R   0.471100 0.974990 0.475030 -0.510715
O70   O     O_R   0.528900 0.025010 0.475030 -0.510715
O71   O     O_R   0.471100 0.525010 0.024970 -0.510716
O72   O     O_R   0.528900 0.474990 0.024970 -0.510716
O73   O     O_R   0.471100 0.474990 0.975030 -0.510715
O74   O     O_R   0.528900 0.525010 0.975030 -0.510715
O75   O     O_R   0.971100 0.025010 0.024970 -0.510716
O76   O     O_R   0.028900 0.974990 0.024970 -0.510715
O77   O     O_R   0.971100 0.974990 0.975030 -0.510715
O78   O     O_R   0.500060 0.260540 0.789430 -0.510743
O79   O     O_R   0.028900 0.025010 0.975030 -0.510716
O80   O     O_R   0.028890 0.524980 0.524930 -0.512879
O81   O     O_R   0.971110 0.475020 0.524930 -0.512879
O82   O     O_R   0.028890 0.475020 0.475070 -0.512879
O83   O     O_R   0.971110 0.524980 0.475070 -0.512879
O84   O     O_R   0.528890 0.024980 0.524930 -0.512879
O85   O     O_R   0.471110 0.975020 0.524930 -0.512879
O86   O     O_R   0.528890 0.975020 0.475070 -0.512879
O87   O     O_R   0.471110 0.024980 0.475070 -0.512879
O88   O     O_R   0.528890 0.524980 0.024930 -0.512879
O89   O     O_R   0.499940 0.760540 0.710570 -0.510743
O90   O     O_R   0.471110 0.475020 0.024930 -0.512879
O91   O     O_R   0.528890 0.475020 0.975070 -0.512879
O92   O     O_R   0.471110 0.524980 0.975070 -0.512879
O93   O     O_R   0.028890 0.024980 0.024930 -0.512879
O94   O     O_R   0.971110 0.975020 0.024930 -0.512879
O95   O     O_R   0.028890 0.975020 0.975070 -0.512879
O96   O     O_R   0.971110 0.024980 0.975070 -0.512879

loop_
_geom_bond_atom_site_label_1
_geom_bond_atom_site_label_2
_ccdc_geom_bond_type
C463  H106  S    
C146  C396  A    
C40   C208  S    
C352  H41   S    
Cu7   O9    S    
C89   O29   A    
C231  C282  A    
C237  C274  A    
C232  H280  S    
C235  C407  A    
Cu16  Cu17  S    
Cu2   O2    S    
C15   C32   A    
C196  H262  S    
C266  C278  S    
C330  C375  A    
H159  N18   S    
C79   H70   S    
C9    C27   A    
C272  O53   A    
Cu22  O18   S    
C170  H126  S    
C111  C407  S    
Cu24  O16   S    
Cu14  O73   S    
C173  H129  S    
C53   H195  S    
C98   C279  S    
Cu19  O24   S    
C356  H45   S    
Cu7   O42   S    
C91   C375  S    
C128  C145  A    
C69   C86   A    
C369  C381  S    
C393  H55   S    
C167  C185  A    
C394  H56   S    
C126  C143  A    
C273  C276  S    
C371  C383  S    
C427  C445  A    
C383  N31   A    
C119  H220  S    
C226  C278  A    
C232  C278  A    
C233  C280  A    
N7    N29   A    
C71   H90   S    
C254  C256  A    
C117  H218  S    
C19   C37   A    
C109  C390  S    
C125  C213  A    
C411  C428  A    
C128  C216  A    
C349  H38   S    
C57   O25   A    
C96   C257  S    
Cu4   O4    S    
C241  H288  S    
C23   H183  S    
C328  C373  A    
C26   C43   A    
C319  C449  S    
C12   H119  S    
C391  H53   S    
C48   C65   A    
C443  O78   A    
C43   C211  S    
C127  H228  S    
C88   O28   A    
H152  N15   S    
C167  H123  S    
C387  N27   A    
C251  H11   S    
C229  C247  A    
C64   H206  S    
C334  O13   A    
C76   C103  A    
H156  N17   S    
C198  C216  A    
C428  H88   S    
C90   C391  A    
C189  H255  S    
C269  C281  S    
C292  C297  A    
C404  C459  A    
C359  H48   S    
C415  C433  A    
Cu21  O50   S    
C325  C448  S    
C116  C204  A    
C245  H6    S    
C443  O17   A    
C175  H131  S    
C28   C45   A    
N3    N12   A    
C67   C85   A    
C40   C58   A    
C422  C439  A    
C120  C208  A    
C237  C254  A    
C430  H91   S    
Cu1   O44   S    
C166  C184  A    
C406  C461  A    
C177  H133  S    
Cu7   O60   S    
C104  C335  S    
C47   C64   A    
C402  H64   S    
C212  H83   S    
C74   C100  A    
C116  C133  A    
C392  C447  A    
C225  C242  A    
C296  C308  A    
C7    H114  S    
C173  C191  A    
C35   C163  S    
C6    H111  S    
Cu10  O65   S    
C49   C217  S    
Cu6   O6    S    
C270  O49   A    
C72   H101  S    
C360  H49   S    
Cu11  Cu13  S    
C152  C170  A    
C224  H84   S    
C39   C56   A    
C327  C345  A    
C326  O79   A    
H148  N13   S    
C126  H227  S    
C156  C174  A    
C235  H85   S    
C367  C382  S    
C361  H50   S    
C288  C300  A    
C112  C151  S    
C442  C460  A    
C84   H213  S    
C407  C425  A    
C257  C409  A    
C405  C460  A    
C364  C385  S    
C464  H107  S    
C171  C188  A    
C124  C394  A    
C252  H12   S    
Cu12  O26   S    
C200  C218  A    
C133  H235  S    
C236  H283  S    
C131  C149  A    
C34   C203  S    
C120  C138  A    
C17   C34   A    
C268  C411  A    
C52   H194  S    
C238  C275  A    
C53   C71   A    
C184  C202  A    
C118  C136  A    
C43   C61   A    
C80   H179  S    
C136  H237  S    
C65   H207  S    
C266  O46   A    
C424  C441  A    
C177  C195  A    
C286  C289  A    
C118  C206  A    
C283  C288  A    
C130  H231  S    
C117  C134  A    
C195  H261  S    
C284  C287  A    
C182  C199  A    
C30   H189  S    
C194  H260  S    
Cu8   O43   S    
C294  H28   S    
Cu20  O49   S    
C355  H44   S    
C101  C392  A    
C399  C455  A    
C434  C451  A    
C315  O68   A    
C23   C41   A    
Cu13  O84   S    
C359  C365  A    
C254  H15   S    
C146  H76   S    
C358  C369  A    
C230  C281  A    
C136  C153  A    
C253  C260  A    
C127  C215  A    
H149  N13   S    
Cu19  O30   S    
C343  H57   S    
C50   C218  S    
C221  C275  A    
C418  N18   S    
C235  C405  A    
C341  C374  A    
Cu20  O45   S    
C129  C147  A    
C420  C438  A    
C354  H43   S    
C95   O35   A    
C93   O39   A    
C316  C457  S    
C57   C165  S    
C152  C223  S    
C190  C400  A    
C289  C304  A    
C390  C423  A    
C51   C69   A    
C344  C373  A    
C441  H102  S    
C143  C161  A    
Cu2   O37   S    
C13   O20   A    
C331  C350  A    
C46   O24   A    
C133  C151  A    
C285  C308  A    
C68   C166  S    
C228  C281  A    
C339  C376  A    
C313  O65   A    
C220  H269  S    
C224  C401  A    
C163  C181  A    
Cu16  O77   S    
C39   C207  S    
Cu6   O41   S    
C14   C31   A    
Cu18  O22   S    
C392  H54   S    
C8    C105  A    
C434  H94   S    
C309  O80   A    
C331  H234  S    
C4    C100  A    
C71   C97   A    
Cu11  O66   S    
C121  H222  S    
C87   C372  S    
C362  C364  A    
C29   C47   A    
C190  H81   S    
C332  C377  A    
C410  O14   A    
C62   C80   A    
Cu22  O33   S    
C181  H137  S    
C105  C346  S    
C402  C457  A    
C332  C351  A    
C24   O4    A    
C382  N3    A    
C354  C370  A    
Cu19  O48   S    
C350  H39   S    
C108  C379  S    
C92   O31   A    
C80   C106  A    
Cu24  O53   S    
C329  H212  S    
C408  C426  A    
C336  C380  A    
C284  C305  A    
C319  O90   A    
C130  C218  A    
C384  N30   A    
C436  C453  A    
C140  C158  A    
C148  C165  A    
C27   C44   A    
C141  C159  A    
C156  C432  S    
Cu12  O28   S    
Cu10  O80   S    
C137  C154  A    
Cu6   O13   S    
Cu5   O5    S    
Cu2   Cu23  S    
C122  C210  A    
C239  H286  S    
C323  C416  A    
C440  H100  S    
C82   C108  A    
C353  C371  A    
C231  H279  S    
C50   C67   A    
C309  O62   A    
C162  C180  A    
C414  C431  A    
C395  C450  A    
C112  O12   A    
C127  C144  A    
C327  H1    S    
C184  H140  S    
C311  O82   A    
C202  H268  S    
C249  C264  A    
C262  C300  S    
C326  O96   A    
Cu6   O59   S    
C330  C349  A    
C352  C370  A    
C387  N6    A    
C15   H121  S    
C188  H254  S    
N2    N23   A    
C317  C456  S    
C14   H120  S    
C120  H221  S    
C115  C132  A    
Cu4   O15   S    
C368  C420  A    
C154  C410  S    
Cu23  O78   S    
H173  N25   S    
C49   C66   A    
C38   C55   A    
Cu2   O17   S    
C154  C172  A    
C79   C257  A    
C297  H31   S    
C164  C182  A    
C330  H223  S    
Cu4   Cu21  S    
C298  H32   S    
C227  C244  A    
C432  O16   A    
C328  C347  A    
C299  C305  A    
C74   H124  S    
C145  C163  A    
C267  C282  S    
C51   C219  S    
C293  C303  A    
C178  C196  A    
C187  C205  A    
C385  N12   A    
N5    N31   A    
C56   H198  S    
C201  C379  A    
C95   C380  S    
C269  O59   A    
C70   C96   A    
H145  N11   S    
Cu17  O79   S    
Cu6   Cu19  S    
C258  C305  S    
C141  H242  S    
N6    N30   A    
C322  O93   A    
C370  C384  S    
C140  H241  S    
C400  C456  A    
C139  H240  S    
Cu5   O11   S    
C439  H99   S    
C158  C443  S    
Cu11  O69   S    
C25   H184  S    
C135  H75   S    
C317  O87   A    
Cu15  O91   S    
C33   C51   A    
C416  C434  A    
C176  H132  S    
Cu9   O81   S    
C324  O76   A    
C410  O45   A    
H171  N24   S    
Cu24  O36   S    
C11   H118  S    
C17   C462  A    
C310  O81   A    
C169  H125  S    
C159  C176  A    
C236  C253  A    
C171  H127  S    
C414  N14   S    
C244  C262  A    
C318  C450  S    
C426  C444  A    
C153  C334  S    
C231  C249  A    
C200  H266  S    
C321  O92   A    
C199  H265  S    
C397  H60   S    
C14   C110  A    
C101  H72   S    
Cu16  O94   S    
C320  O73   A    
Cu24  O89   S    
C2    O19   A    
C144  H246  S    
C270  C275  S    
C424  N24   S    
C403  C458  A    
Cu14  O92   S    
C301  C414  A    
C31   H191  S    
C42   C210  S    
C248  H8    S    
C113  H73   S    
C283  C306  A    
C399  H62   S    
Cu2   O54   S    
C168  C398  A    
C337  H278  S    
C110  C401  S    
C195  C213  A    
C261  C302  S    
C285  C291  A    
C26   H185  S    
C75   H135  S    
C183  C200  A    
C157  C335  A    
C238  C255  A    
C339  C356  A    
H175  N26   S    
C76   H146  S    
C263  C304  S    
C121  C139  A    
C32   H192  S    
C73   H113  S    
C294  C299  A    
C194  C211  A    
N8    N28   A    
C396  H59   S    
C360  C366  A    
C193  C210  A    
Cu11  O87   S    
C315  C453  S    
C7    C104  A    
C313  C460  S    
C328  H112  S    
C175  C193  A    
C147  C164  A    
H153  N15   S    
C417  N17   S    
Cu14  Cu15  S    
C79   C389  A    
C170  C187  A    
Cu23  O35   S    
H150  N14   S    
C61   C78   A    
C454  O18   A    
H166  N21   S    
C427  H87   S    
C187  H253  S    
Cu12  O12   S    
C158  C175  A    
C186  H252  S    
C252  C259  A    
C272  O51   A    
C2    C160  S    
C11   C108  A    
C385  N8    A    
C225  C277  A    
C444  H104  S    
Cu5   O58   S    
C243  C261  A    
C240  C258  A    
C57   O7    A    
C318  O71   A    
Cu15  O88   S    
C297  C307  A    
C395  H58   S    
C334  O34   A    
Cu5   O40   S    
C174  C192  A    
C401  C424  A    
C245  C263  A    
C138  C155  A    
C226  H273  S    
C81   C107  A    
Cu16  O75   S    
C241  C259  A    
C63   H205  S    
C336  C353  A    
C404  H66   S    
C335  C417  A    
C96   C462  A    
C199  C217  A    
C106  C357  S    
C358  H47   S    
C286  C307  A    
C230  H277  S    
C291  C303  A    
C93   O32   A    
C201  H82   S    
C389  C445  A    
C351  H40   S    
C17   H176  S    
C97   C463  A    
C361  C363  A    
C188  C206  A    
C86   H215  S    
H163  N20   S    
C346  C418  A    
C70   H79   S    
C94   C378  S    
Cu21  O56   S    
C155  C421  S    
C169  C186  A    
C293  C296  A    
C117  C205  A    
C62   H204  S    
C348  C365  A    
C256  C306  S    
C317  O70   A    
C429  H89   S    
C350  C367  A    
C13   O3    A    
C190  C368  A    
C9    H116  S    
C234  H282  S    
C345  H34   S    
C338  C355  A    
C100  C301  S    
C384  N32   A    
C291  H25   S    
C333  H256  S    
C129  C217  A    
C333  C378  A    
Cu9   O83   S    
C331  C376  A    
C149  H250  S    
Cu13  O70   S    
C422  N21   S    
C267  O47   A    
C287  C302  A    
C47   C215  S    
H162  N19   S    
C340  H24   S    
C426  N26   S    
C132  C150  A    
C344  H68   S    
C292  H26   S    
C332  H245  S    
C417  C435  A    
C99   C290  S    
H160  N18   S    
C353  H42   S    
C418  C436  A    
C341  C359  A    
C336  H267  S    
C349  C366  A    
C228  H275  S    
C157  C397  A    
C67   H209  S    
C320  C452  S    
C255  C258  A    
C342  C360  A    
Cu22  O67   S    
Cu16  O96   S    
C94   O33   A    
C115  C203  A    
C246  H86   S    
Cu4   O39   S    
C126  C214  A    
Cu14  O90   S    
C273  O52   A    
C77   H157  S    
C2    O2    A    
C131  H232  S    
C222  C241  A    
C35   O22   A    
C168  H78   S    
C266  O61   A    
Cu9   O64   S    
C444  C461  A    
C412  C429  A    
H158  N17   S    
C134  H236  S    
C322  O75   A    
C132  H233  S    
C260  C307  S    
Cu1   O25   S    
C44   C213  S    
C439  C457  A    
Cu20  O31   S    
C54   H196  S    
C289  H23   S    
C440  C458  A    
C89   C374  S    
C438  C456  A    
C54   C72   A    
C295  H29   S    
C212  C403  A    
C343  C361  A    
C123  H225  S    
C409  N9    S    
C314  O84   A    
C318  O88   A    
C428  C446  A    
C88   C373  S    
C438  H98   S    
C413  N13   S    
C429  C447  A    
Cu3   O14   S    
C16   C114  A    
Cu1   O27   S    
C314  O66   A    
C397  C452  A    
C165  C183  A    
C89   O40   A    
C234  C276  A    
C90   C268  A    
Cu12  O46   S    
C46   O6    A    
C391  C446  A    
C242  H3    S    
C383  N2    A    
C179  C399  A    
C313  O83   A    
C338  C380  A    
C107  C368  S    
C310  O63   A    
C423  C440  A    
C416  N16   S    
C320  O91   A    
C357  C419  A    
C201  C402  A    
C134  C152  A    
C339  H13   S    
C237  H284  S    
C45   C214  S    
Cu23  O19   S    
C366  C387  S    
C265  C280  S    
C309  C459  S    
C6    C103  A    
C271  C274  S    
C135  C395  A    
H169  N22   S    
H155  N16   S    
C18   H177  S    
C157  H77   S    
C135  C312  A    
C227  H274  S    
C116  H217  S    
C174  H130  S    
H141  N9    S    
Cu20  O20   S    
C59   H200  S    
C265  O60   A    
Cu1   O1    S    
Cu3   Cu20  S    
C267  O58   A    
C423  N22   S    
Cu9   O62   S    
C398  C453  A    
Cu10  O63   S    
C240  H287  S    
C270  O55   A    
C233  C251  A    
C394  C449  A    
C10   C28   A    
C220  C274  A    
C66   H208  S    
C5    C102  A    
C412  N11   S    
C329  C374  A    
Cu18  O29   S    
C12   C30   A    
C386  N1    A    
C21   H181  S    
C90   H71   S    
C101  C279  A    
C293  H27   S    
C329  C348  A    
Cu18  O23   S    
C85   C111  A    
C151  C169  A    
C25   C42   A    
C95   O37   A    
C233  H281  S    
C259  C308  S    
C192  H258  S    
C295  C300  A    
C436  H96   S    
C4    H109  S    
C172  C189  A    
C315  O85   A    
Cu11  O85   S    
Cu5   Cu18  S    
C34   C52   A    
C7    C25   A    
C223  O23   A    
C91   O41   A    
C85   H214  S    
C316  O86   A    
N27   N32   A    
C283  H17   S    
C264  C303  S    
C345  C363  A    
C27   H186  S    
C310  C458  S    
C348  H37   S    
C98   C464  A    
C226  C243  A    
C316  O69   A    
C1    O9    A    
C229  C282  A    
C189  C207  A    
C411  N10   S    
C150  C167  A    
C322  C446  S    
C325  O77   A    
C327  C372  A    
C32   C50   A    
Cu15  O72   S    
C342  H46   S    
H151  N14   S    
H154  N16   S    
C87   O42   A    
C192  C209  A    
C294  C302  A    
C432  O67   A    
H170  N24   S    
Cu15  O74   S    
C122  C140  A    
C138  H239  S    
C20   H180  S    
Cu14  O71   S    
C178  H134  S    
H161  N19   S    
H167  N22   S    
C112  O10   A    
C265  O44   A    
C337  C354  A    
C271  O57   A    
C288  H22   S    
C239  C256  A    
C83   H211  S    
Cu13  O86   S    
C77   C104  A    
C273  O54   A    
C176  C194  A    
C161  C178  A    
C91   O30   A    
C18   C36   A    
C28   H187  S    
C18   C463  A    
H143  N10   S    
C185  H251  S    
C249  H9    S    
Cu18  O47   S    
C48   C216  S    
H164  N20   S    
C1    C150  S    
C272  C277  S    
C4    C21   A    
C442  H103  S    
C137  H238  S    
C179  C357  A    
C340  C358  A    
C321  O74   A    
C341  H35   S    
C6    C23   A    
C58   H199  S    
C33   H193  S    
Cu7   O7    S    
C406  H69   S    
C24   O21   A    
C31   C49   A    
C87   O27   A    
C72   C98   A    
C398  H61   S    
Cu10  O82   S    
C462  H105  S    
Cu1   Cu7   S    
C148  H249  S    
C103  C323  S    
C63   C81   A    
C78   C105  A    
C382  N28   A    
C223  O11   A    
C285  H19   S    
C1    O1    A    
C243  H4    S    
C340  C377  A    
C419  N19   S    
C425  C442  A    
C299  H33   S    
C312  C415  A    
C78   H168  S    
C381  N4    A    
C355  C371  A    
C19   C464  A    
C224  C404  A    
C113  C393  A    
C65   C83   A    
C221  H270  S    
H172  N25   S    
C400  H63   S    
C60   H202  S    
C35   O5    A    
C56   C74   A    
C351  C369  A    
C342  C375  A    
C344  C362  A    
C82   H201  S    
C131  C219  A    
C362  H51   S    
C30   C48   A    
C319  O72   A    
C55   H197  S    
C68   O26   A    
C180  C197  A    
C168  C346  A    
C143  H244  S    
C379  C422  A    
C296  H30   S    
Cu3   O38   S    
C5    C22   A    
C403  H65   S    
C421  O56   A    
C286  H20   S    
C419  C437  A    
C123  C211  A    
C425  N25   S    
C93   C377  S    
C75   C102  A    
C381  N29   A    
C81   H190  S    
H165  N21   S    
C220  C239  A    
Cu8   O10   S    
C124  C301  A    
C114  C408  S    
C326  C447  S    
C247  C264  A    
Cu8   O8    S    
Cu17  O93   S    
C413  C430  A    
C248  C263  A    
Cu3   O55   S    
C155  C173  A    
C225  H272  S    
C92   C376  S    
C102  C312  S    
C325  O95   A    
C46   C164  S    
C279  C412  A    
Cu17  O76   S    
C246  C408  A    
C386  N7    A    
C29   H188  S    
C409  C427  A    
C10   C107  A    
C365  C388  S    
C363  C386  S    
C181  C198  A    
C12   C109  A    
N1    N4    A    
C253  H14   S    
H147  N11   S    
C58   C75   A    
C295  C298  A    
C435  C452  A    
C8    C26   A    
C311  C461  S    
C250  H10   S    
C125  H226  S    
Cu21  O32   S    
C94   O36   A    
C433  C450  A    
C287  H21   S    
C221  C240  A    
C130  C148  A    
C236  C277  A    
C119  C137  A    
C222  C276  A    
C15   C111  A    
C3    C20   A    
C41   C59   A    
C42   C60   A    
C314  C455  S    
Cu17  O95   S    
C433  H93   S    
C228  C245  A    
C22   H182  S    
C10   H117  S    
C44   C62   A    
Cu9   Cu10  S    
C405  H67   S    
C311  O64   A    
C45   C63   A    
C84   C110  A    
C356  C367  A    
Cu3   O3    S    
C88   O43   A    
C55   C73   A    
C202  C219  A    
Cu22  Cu24  S    
C250  C261  A    
C3    C99   A    
C16   C33   A    
C393  C448  A    
C20   C38   A    
C222  H271  S    
C431  H92   S    
C97   C268  S    
C124  H74   S    
C21   C39   A    
C125  C142  A    
C255  H16   S    
C22   C40   A    
C160  C177  A    
C153  C171  A    
C83   C109  A    
C196  C214  A    
C244  H5    S    
C186  C204  A    
C8    H115  S    
C118  H219  S    
C64   C82   A    
C343  C372  A    
C36   C53   A    
C183  H139  S    
Cu22  O51   S    
C298  C306  A    
C115  H216  S    
C182  H138  S    
C61   H203  S    
C121  C209  A    
H144  N10   S    
C338  H2    S    
Cu19  O34   S    
H174  N26   S    
C324  C445  S    
C113  C290  A    
C388  N23   A    
C232  C250  A    
C128  H229  S    
C5    H110  S    
C437  C455  A    
C420  N20   S    
C185  C203  A    
C3    H108  S    
C230  C248  A    
C9    C106  A    
C227  C280  A    
C73   C99   A    
C435  H95   S    
C38   C206  S    
C144  C162  A    
C146  C323  A    
C242  C260  A    
C347  C364  A    
C159  C454  S    
C24   C162  S    
C149  C166  A    
Cu8   Cu12  S    
C198  H264  S    
C142  C160  A    
C238  H285  S    
C197  C215  A    
C119  C207  A    
C13   C161  S    
C145  H247  S    
C191  H257  S    
C389  H52   S    
C37   C54   A    
C415  N15   S    
Cu23  O52   S    
C333  C352  A    
Cu21  O21   S    
C16   H122  S    
C337  C378  A    
C86   C114  A    
C122  H224  S    
C60   C77   A    
C441  C459  A    
C324  O94   A    
Cu8   O61   S    
C172  H128  S    
C41   C209  S    
C247  H7    S    
C271  O50   A    
C129  H230  S    
C197  H263  S    
C212  C390  A    
C37   C205  S    
C139  C156  A    
C454  O89   A    
Cu4   O57   S    
C59   C76   A    
C269  O48   A    
C431  C449  A    
C292  C304  A    
C191  C208  A    
H142  N9    S    
Cu13  O68   S    
C68   O8    A    
C396  C451  A    
C284  H18   S    
C142  H243  S    
C52   C70   A    
C180  H136  S    
C251  C262  A    
C66   C84   A    
C290  C413  A    
C234  C252  A    
C229  H276  S    
C123  C141  A    
C11   C29   A    
C179  H80   S    
C388  N5    A    
C246  C406  A    
C19   H178  S    
C92   O38   A    
C36   C204  S    
C193  H259  S    
C69   H210  S    
C437  H97   S    
C147  H248  S    
C347  H36   S    
C430  C448  A    
C321  C451  S    
C421  O15   A    
