data_mof_unit_16313.cif
_audit_creation_date              2012-12-10T20:28:44-0500
_audit_creation_method            fapswitch 2.2
_symmetry_space_group_name_H-M    P1
_symmetry_Int_Tables_number       1
_space_group_crystal_system       triclinic
_cell_length_a                    10.674725
_cell_length_b                    10.732212
_cell_length_c                    9.85824
_cell_angle_alpha                 89.108206
_cell_angle_beta                  93.145379
_cell_angle_gamma                 88.628038
_cell_volume                      1127.2077651

loop_
_atom_site_label
_atom_site_type_symbol
_atom_type_description
_atom_site_fract_x
_atom_site_fract_y
_atom_site_fract_z
_atom_type_partial_charge
Br1   Br    Br    0.122475 0.735660 0.355531 -0.361959
Br2   Br    Br    0.199166 0.032480 0.698753 -0.303606
Br3   Br    Br    0.786748 0.335745 0.811166 -0.243292
Br4   Br    Br    0.384809 0.872360 0.206845 -0.354088
C1    C     C_R   0.498968 0.259960 0.500871 0.901669
C2    C     C_R   0.435067 0.941658 0.379862 0.316798
C3    C     C_R   0.479062 0.871988 0.496566 -0.091520
C4    C     C_R   0.260135 0.501054 0.496203 0.891573
C5    C     C_R   0.508874 0.932327 0.617644 -0.199554
C6    C     C_3   0.623842 0.914792 0.710109 0.425980
C7    C     C_3   0.630687 0.054987 0.708771 1.124089
C8    C     C_R   0.397254 0.462143 0.065788 0.118368
C9    C     C_R   0.593526 0.553904 0.076772 -0.136474
C10   C     C_R   0.592796 0.555310 0.932666 0.704319
C11   C     C_R   0.396981 0.462606 0.923473 -0.002083
C12   C     C_R   0.075766 0.386047 0.550472 -0.039808
C13   C     C_3   0.335033 0.339699 0.916083 0.534171
C14   C     C_3   0.337658 0.338188 0.070434 -0.487932
C15   C     C_R   0.494270 0.739912 0.498242 0.984429
C16   C     C_R   0.740309 0.489854 0.505214 0.923239
C17   C     C_R   0.148260 0.276506 0.581991 -0.322418
C18   C     C_R   0.100304 0.180439 0.657694 0.202515
C19   C     C_R   0.984241 0.196680 0.712490 0.683814
C20   C     C_R   0.909835 0.303939 0.680800 0.172197
C21   C     C_R   0.949710 0.393779 0.584365 -0.094408
C22   C     C_R   0.127977 0.489881 0.488235 -0.100031
C23   C     C_R   0.054291 0.590560 0.436719 0.250461
C24   C     C_R   0.926994 0.587372 0.446350 -0.149997
C25   C     C_R   0.874131 0.490874 0.518247 -0.061306
C26   C     C_R   0.512348 0.059684 0.620408 -0.012115
C27   C     C_R   0.483948 0.128749 0.502008 -0.131041
C28   C     C_R   0.435758 0.070420 0.385095 -0.190283
F1    F     F_    0.722350 0.857620 0.646976 -0.577030
F2    F     F_    0.731609 0.098885 0.641979 -0.628581
F3    F     F_    0.617256 0.105638 0.835337 -0.574025
F4    F     F_    0.686846 0.611129 0.869864 -0.603147
F5    F     F_    0.411451 0.247366 0.866401 -0.565403
F6    F     F_    0.946942 0.110816 0.803643 -0.529902
H1    H     H_    0.670171 0.595383 0.134852 0.186552
H2    H     H_    0.239149 0.345416 0.866144 0.076422
H3    H     H_    0.242663 0.343697 0.111133 0.182451
H4    H     H_    0.401857 0.265118 0.117825 0.244844
H5    H     H_    0.242088 0.264857 0.547538 0.185506
H6    H     H_    0.868693 0.662415 0.399978 0.195642
H7    H     H_    0.405075 0.124194 0.295326 0.185440
H8    H     H_    0.604345 0.872486 0.810184 0.134536
N1    N     N_R   0.499160 0.499140 0.142800 -0.118040
N2    N     N_R   0.499160 0.499180 0.857150 -0.134317
O1    O     O_R   0.500020 0.316790 0.614690 -0.542946
O2    O     O_R   0.500000 0.316760 0.385350 -0.635884
O3    O     O_R   0.316770 0.500020 0.614690 -0.629733
O4    O     O_R   0.316760 0.499980 0.385350 -0.600856
O5    O     O_R   0.500000 0.683240 0.614650 -0.590442
O6    O     O_R   0.499980 0.683210 0.385310 -0.591393
O7    O     O_R   0.683240 0.500020 0.614650 -0.520357
O8    O     O_R   0.683230 0.499980 0.385310 -0.635628
Zn1   Zn    Zn3+2 0.500010 0.500020 0.653130 1.112574
Zn2   Zn    Zn3+2 0.499990 0.499980 0.346870 1.022011

loop_
_geom_bond_atom_site_label_1
_geom_bond_atom_site_label_2
_ccdc_geom_bond_type
C6    H8    S    
C2    C28   A    
C19   C20   A    
Br2   C18   S    
C2    C3    A    
O3    Zn1   S    
C19   F6    S    
C4    C22   S    
C28   H7    S    
C4    O4    A    
C27   C28   A    
C8    C11   A    
C16   O8    A    
C15   O5    A    
C8    N1    A    
C13   C14   S    
C22   C23   A    
N2    Zn1   S    
C13   F5    S    
C9    C10   A    
N1    Zn2   S    
C12   C22   A    
C4    O3    A    
C1    O1    A    
Br3   C20   S    
C12   C17   A    
O4    Zn2   S    
C11   N2    A    
C16   O7    A    
C11   C13   S    
C5    C26   A    
C15   O6    A    
C7    F3    S    
C24   C25   A    
O8    Zn2   S    
C6    F1    S    
C3    C15   S    
C16   C25   S    
O7    Zn1   S    
C21   C25   A    
C26   C27   A    
O6    Zn2   S    
C1    O2    A    
C9    H1    S    
C6    C7    S    
O2    Zn2   S    
C3    C5    A    
C23   C24   A    
O1    Zn1   S    
C20   C21   A    
Br4   C2    S    
C5    C6    S    
C14   H3    S    
C8    C14   S    
C12   C21   A    
Br1   C23   S    
O5    Zn1   S    
C18   C19   A    
C10   F4    S    
C10   N2    A    
C14   H4    S    
C17   C18   A    
C9    N1    A    
C24   H6    S    
C7    F2    S    
C17   H5    S    
C7    C26   S    
C1    C27   S    
C13   H2    S    
