data_mof_unit_10336.cif
_audit_creation_date              2012-10-26T18:50:23-0400
_audit_creation_method            fapswitch 2.2
_symmetry_space_group_name_H-M    P1
_symmetry_Int_Tables_number       1
_space_group_crystal_system       triclinic
_cell_length_a                    9.582998
_cell_length_b                    10.863606
_cell_length_c                    15.417298
_cell_angle_alpha                 87.584777
_cell_angle_beta                  73.912736
_cell_angle_gamma                 90.201032
_cell_volume                      1540.61733544

loop_
_atom_site_label
_atom_site_type_symbol
_atom_type_description
_atom_site_fract_x
_atom_site_fract_y
_atom_site_fract_z
_atom_type_partial_charge
C1    C     C_R   0.003691 0.262975 0.493118 0.552632
C2    C     C_R   0.219550 0.514112 0.038865 0.037611
C3    C     C_R   0.321135 0.540519 0.087228 0.029594
C4    C     C_R   0.917754 0.503047 0.672200 0.550223
C5    C     C_R   0.073798 0.487367 0.085024 -0.135906
C6    C     C_R   0.027785 0.484753 0.179015 -0.131043
C7    C     C_R   0.273189 0.532456 0.182281 -0.135514
C8    C     C_R   0.281365 0.120261 0.448065 -0.093393
C9    C     C_R   0.402973 0.061343 0.461645 -0.121092
C10   C     C_R   0.387211 0.946652 0.506702 -0.122677
C11   C     C_R   0.252928 0.885647 0.529725 -0.098395
C12   C     C_R   0.666339 0.559197 0.900486 0.034276
C13   C     C_R   0.131769 0.938571 0.506881 0.024543
C14   C     C_R   0.141336 0.064344 0.479463 0.025543
C15   C     C_R   0.010407 0.128985 0.485635 -0.008345
C16   C     C_R   0.998889 0.737462 0.505374 0.535565
C17   C     C_R   0.880229 0.063291 0.496927 -0.154080
C18   C     C_R   0.877636 0.936087 0.504715 -0.157494
C19   C     C_R   0.001957 0.871999 0.509665 -0.009310
C20   C     C_R   0.698760 0.663810 0.379919 -0.103403
C21   C     C_R   0.652992 0.746632 0.321717 0.199976
C22   C     C_R   0.508381 0.747166 0.323328 -0.118076
C23   C     C_R   0.764763 0.604073 0.945758 0.043892
C24   C     C_R   0.410044 0.666038 0.381206 -0.151912
C25   C     C_R   0.451763 0.581455 0.441495 0.137558
C26   C     C_R   0.601439 0.580934 0.441186 0.117982
C27   C     C_R   0.548738 0.422797 0.555801 -0.010521
C28   C     C_R   0.082260 0.500963 0.327545 0.532175
C29   C     C_R   0.400783 0.422746 0.555715 -0.015023
C30   C     C_R   0.871289 0.525937 0.769085 -0.003504
C31   C     C_R   0.127697 0.505820 0.228203 -0.004704
C32   C     C_R   0.913256 0.616329 0.900614 -0.144006
C33   C     C_R   0.965916 0.579616 0.811987 -0.141403
C34   C     C_R   0.514192 0.557613 0.943848 0.046410
C35   C     C_R   0.724436 0.509911 0.815602 -0.133868
C36   C     C_3   0.430673 0.583492 0.797608 -0.404740
C37   C     C_R   0.467919 0.569484 0.039184 0.018671
C38   C     C_R   0.569407 0.612808 0.082842 -0.133135
C39   C     C_R   0.714178 0.633980 0.035863 -0.128329
C40   C     C_R   0.406153 0.546690 0.896524 -0.012322
C41   C     C_R   0.262706 0.518778 0.944841 -0.119072
Cu1   Cu    Cu3+1 0.140660 0.499990 0.500010 0.905950
Cu2   Cu    Cu3+1 0.859340 0.500010 0.499990 0.915516
H1    H     H_    0.788055 0.668917 0.071398 0.137665
H2    H     H_    0.811201 0.667950 0.374347 0.176356
H3    H     H_    0.347944 0.543790 0.222237 0.118608
H4    H     H_    0.471432 0.810746 0.278632 0.149278
H5    H     H_    0.302830 0.674408 0.375350 0.189507
H6    H     H_    0.324789 0.359423 0.601335 0.120404
H7    H     H_    0.914661 0.464363 0.213119 0.136425
H8    H     H_    0.182857 0.504428 0.908273 0.110533
H9    H     H_    0.988052 0.655724 0.933594 0.111133
H10   H     H_    0.079608 0.594754 0.776746 0.121319
H11   H     H_    0.656213 0.458276 0.784570 0.127434
H12   H     H_    0.995129 0.468635 0.048357 0.115448
H13   H     H_    0.539099 0.635644 0.152801 0.118419
H14   H     H_    0.846669 0.816777 0.268883 0.317431
H15   H     H_    0.529974 0.641354 0.770300 0.150563
H16   H     H_    0.434648 0.500292 0.757628 0.123083
H17   H     H_    0.339750 0.641189 0.788588 0.123611
H18   H     H_    0.779619 0.110146 0.499540 0.135698
H19   H     H_    0.299631 0.208049 0.410835 0.151072
H20   H     H_    0.508707 0.106269 0.439424 0.120917
H21   H     H_    0.479791 0.903504 0.522037 0.113247
H22   H     H_    0.245742 0.799230 0.567945 0.149113
H23   H     H_    0.776874 0.888000 0.508126 0.138489
H24   H     H_    0.583362 0.359555 0.601553 0.112556
N1    N     N_R   0.648320 0.501210 0.499140 -0.238698
N2    N     N_R   0.352470 0.501290 0.499110 -0.240277
O1    O     O_R   0.118810 0.319640 0.500010 -0.507415
O2    O     O_R   0.881240 0.319660 0.500000 -0.499936
O3    O     O_R   0.055570 0.499980 0.629840 -0.500221
O4    O     O_R   0.818000 0.500010 0.629830 -0.501931
O5    O     O_R   0.118760 0.680340 0.500000 -0.532090
O6    O     O_R   0.881190 0.680360 0.499990 -0.522412
O7    O     O_R   0.182000 0.499990 0.370170 -0.522098
O8    O     O_R   0.944430 0.500020 0.370160 -0.519002
O9    O     O_3   0.747413 0.827952 0.262283 -0.701080

loop_
_geom_bond_atom_site_label_1
_geom_bond_atom_site_label_2
_ccdc_geom_bond_type
Cu2   O4    S    
C27   C29   A    
C16   O6    A    
C36   H16   S    
C29   H6    S    
C12   C23   A    
C1    O2    A    
C30   C35   A    
C16   O5    A    
C36   H15   S    
C38   C39   A    
C2    C41   A    
C34   C37   A    
Cu1   O1    S    
C18   C19   A    
C32   H9    S    
C27   N1    A    
C17   H18   S    
C8    C9    A    
C21   O9    S    
C8    C14   A    
C1    C15   S    
C9    C10   A    
C20   H2    S    
C6    C31   A    
C13   C14   A    
C35   H11   S    
C33   H10   S    
C29   N2    A    
Cu2   O6    S    
Cu1   O5    S    
C7    C31   A    
C13   C19   A    
C24   H5    S    
C7    H3    S    
C36   C40   S    
C24   C25   A    
Cu2   N1    S    
C25   C26   A    
Cu1   N2    S    
C37   C38   A    
Cu1   O3    S    
C17   C18   A    
C6    H7    S    
C12   C35   A    
C28   O8    A    
C4    O4    A    
C40   C41   A    
C22   C24   A    
C2    C5    A    
C25   N2    A    
Cu1   Cu2   S    
C12   C34   A    
C28   O7    A    
C4    O3    A    
C15   C17   A    
C18   H23   S    
Cu2   O2    S    
C30   C33   A    
C9    H20   S    
Cu1   O7    S    
H14   O9    S    
C5    H12   S    
C28   C31   S    
C10   H21   S    
C36   H17   S    
C39   H1    S    
Cu2   O8    S    
C3    C7    A    
C1    O1    A    
C26   N1    A    
C23   C32   A    
C2    C3    A    
C32   C33   A    
C11   C13   A    
C5    C6    A    
C20   C26   A    
C16   C19   S    
C23   C39   A    
C22   H4    S    
C27   H24   S    
C10   C11   A    
C38   H13   S    
C20   C21   A    
C3    C37   A    
C14   C15   A    
C34   C40   A    
C21   C22   A    
C41   H8    S    
C4    C30   S    
C11   H22   S    
C8    H19   S    
