data_mof_unit_60430.cif
_audit_creation_date              2012-10-26T18:20:31-0400
_audit_creation_method            fapswitch 2.2
_symmetry_space_group_name_H-M    P1
_symmetry_Int_Tables_number       1
_space_group_crystal_system       triclinic
_cell_length_a                    18.376789
_cell_length_b                    18.376789
_cell_length_c                    30.190476
_cell_angle_alpha                 89.997869
_cell_angle_beta                  89.997856
_cell_angle_gamma                 90.0
_cell_volume                      10195.5161636

loop_
_atom_site_label
_atom_site_type_symbol
_atom_type_description
_atom_site_fract_x
_atom_site_fract_y
_atom_site_fract_z
_atom_type_partial_charge
C1    C     C_R   0.139884 0.500000 0.000001 0.557423
C2    C     C_1   0.500000 0.217428 0.000002 -0.032563
C3    C     C_R   0.092650 0.596053 0.773446 0.243825
C4    C     C_R   0.403937 0.907360 0.226555 0.243822
C5    C     C_R   0.907354 0.596054 0.226550 0.243764
C6    C     C_R   0.594057 0.094679 0.226498 0.244178
C7    C     C_R   0.094674 0.405936 0.226503 0.244238
C8    C     C_1   0.782572 0.500000 0.999998 -0.032563
C9    C     C_1   0.500000 0.782572 0.999998 -0.032456
C10   C     C_1   0.717428 0.000000 0.500001 -0.032683
C11   C     C_1   1.000000 0.717428 0.500001 -0.032336
C12   C     C_1   0.282572 0.000000 0.499999 -0.032336
C13   C     C_1   1.000000 0.282572 0.499999 -0.032683
C14   C     C_R   0.999990 0.499997 0.085726 0.540928
C15   C     C_R   0.500000 0.999991 0.085726 0.540928
C16   C     C_R   0.000009 0.500000 0.914274 0.540928
C17   C     C_R   0.500000 0.139884 0.000001 0.557395
C18   C     C_R   0.500003 0.000010 0.914274 0.540928
C19   C     C_R   0.499990 0.999997 0.585726 0.540928
C20   C     C_R   0.999997 0.500010 0.585726 0.540929
C21   C     C_R   0.499990 0.000003 0.414274 0.540928
C22   C     C_R   0.000003 0.500010 0.414274 0.540928
C23   C     C_1   0.282722 0.500000 0.000002 -0.030736
C24   C     C_1   0.500000 0.282722 0.000002 -0.030905
C25   C     C_1   0.717278 0.500000 0.999998 -0.030905
C26   C     C_1   0.500000 0.717278 0.999998 -0.030737
C27   C     C_1   0.782722 0.000000 0.500002 -0.031054
C28   C     C_R   0.860116 0.500000 0.999999 0.557395
C29   C     C_1   1.000000 0.782722 0.500002 -0.030588
C30   C     C_1   0.217278 0.000000 0.499998 -0.030588
C31   C     C_1   1.000000 0.217278 0.499998 -0.031054
C32   C     C_R   0.500000 0.360270 0.000001 0.554762
C33   C     C_R   0.639730 0.500000 0.999999 0.554762
C34   C     C_R   0.500000 0.639730 0.999999 0.554860
C35   C     C_R   0.360270 0.500000 0.000001 0.554860
C36   C     C_R   1.000000 0.860270 0.500001 0.554895
C37   C     C_R   0.139730 0.000000 0.499999 0.554895
C38   C     C_R   1.000000 0.139730 0.499999 0.554727
C39   C     C_R   0.500000 0.860116 0.999999 0.557424
C40   C     C_R   0.860270 0.000000 0.500001 0.554727
C41   C     C_R   0.048440 0.455338 0.342998 -0.088520
C42   C     C_R   0.544659 0.048441 0.342996 -0.088405
C43   C     C_R   0.951468 0.544588 0.342991 -0.088485
C44   C     C_R   0.455408 0.951469 0.342993 -0.088599
C45   C     C_R   0.048535 0.544587 0.657007 -0.088600
C46   C     C_R   0.544662 0.951559 0.657002 -0.088520
C47   C     C_R   0.951554 0.455345 0.657004 -0.088405
C48   C     C_R   0.455412 0.048532 0.657009 -0.088485
C49   C     C_R   0.548442 0.955340 0.842998 -0.088411
C50   C     C_R   0.639884 0.000000 0.500000 0.557375
C51   C     C_R   0.044586 0.548537 0.842989 -0.088487
C52   C     C_R   0.451467 0.044587 0.842991 -0.088594
C53   C     C_R   0.955331 0.451570 0.843000 -0.088517
C54   C     C_R   0.548435 0.044665 0.157000 -0.088518
C55   C     C_R   0.044660 0.451558 0.157002 -0.088411
C56   C     C_R   0.451458 0.955418 0.157011 -0.088487
C57   C     C_R   0.955413 0.548534 0.157009 -0.088594
C58   C     C_R   0.000025 0.500046 0.365978 -0.040971
C59   C     C_R   0.499953 0.000025 0.365978 -0.040971
C60   C     C_R   0.999975 0.500047 0.634022 -0.040972
C61   C     C_R   0.000000 0.639884 0.500000 0.557444
C62   C     C_R   0.499954 0.999975 0.634022 -0.040971
C63   C     C_R   0.500025 0.000046 0.865978 -0.040972
C64   C     C_R   0.000042 0.499982 0.865978 -0.040970
C65   C     C_R   0.500018 0.999958 0.134021 -0.040972
C66   C     C_R   0.999954 0.499975 0.134021 -0.040972
C67   C     C_R   0.951899 0.546422 0.296577 0.035472
C68   C     C_R   0.453572 0.951903 0.296579 0.035422
C69   C     C_R   0.048273 0.453761 0.296579 0.035303
C70   C     C_R   0.546234 0.048276 0.296577 0.035354
C71   C     C_R   0.951719 0.453771 0.703423 0.035354
C72   C     C_R   0.360116 0.000000 0.499999 0.557444
C73   C     C_R   0.453578 0.048101 0.703423 0.035472
C74   C     C_R   0.048102 0.546423 0.703421 0.035422
C75   C     C_R   0.546238 0.951726 0.703421 0.035303
C76   C     C_R   0.451898 0.046421 0.796577 0.035420
C77   C     C_R   0.953754 0.451736 0.796581 0.035303
C78   C     C_R   0.548275 0.953763 0.796579 0.035356
C79   C     C_R   0.046420 0.548106 0.796575 0.035473
C80   C     C_R   0.451890 0.953585 0.203425 0.035472
C81   C     C_R   0.953579 0.548102 0.203423 0.035420
C82   C     C_R   0.548268 0.046241 0.203419 0.035302
C83   C     C_R   0.000000 0.360116 0.499999 0.557375
C84   C     C_R   0.046237 0.451725 0.203421 0.035355
C85   C     C_R   0.000301 0.500308 0.273246 -0.053731
C86   C     C_R   0.499686 0.000305 0.273246 -0.053731
C87   C     C_R   0.999695 0.500314 0.726754 -0.053730
C88   C     C_R   0.499692 0.999699 0.726754 -0.053731
C89   C     C_R   0.500301 0.000308 0.773246 -0.053730
C90   C     C_R   0.000304 0.499706 0.773246 -0.053731
C91   C     C_R   0.500294 0.999697 0.226754 -0.053730
C92   C     C_R   0.999692 0.499699 0.226754 -0.053730
C93   C     C_R   0.903949 0.592649 0.273450 0.243825
C94   C     C_1   0.217428 0.500000 0.000002 -0.032456
C95   C     C_R   0.407343 0.903954 0.273454 0.243765
C96   C     C_R   0.094060 0.405322 0.273497 0.244177
C97   C     C_R   0.594672 0.094063 0.273492 0.244239
C98   C     C_R   0.905928 0.405337 0.726508 0.244237
C99   C     C_R   0.407351 0.096052 0.726550 0.243824
C100  C     C_R   0.096056 0.592647 0.726546 0.243763
C101  C     C_R   0.594677 0.905940 0.726503 0.244177
C102  C     C_R   0.403946 0.092647 0.773450 0.243764
C103  C     C_R   0.905312 0.405952 0.773502 0.244178
C104  C     C_R   0.594063 0.905325 0.773497 0.244237
Cu1   Cu    Cu3+1 0.000000 0.572490 0.000000 0.996026
Cu2   Cu    Cu3+1 0.500000 0.500000 0.955520 1.004742
Cu3   Cu    Cu3+1 0.000000 0.000000 0.544480 1.004741
Cu4   Cu    Cu3+1 1.000000 0.000000 0.455520 1.004743
Cu5   Cu    Cu3+1 0.427510 0.000000 0.000000 0.996026
Cu6   Cu    Cu3+1 0.000000 0.427510 0.000000 0.996712
Cu7   Cu    Cu3+1 0.572490 0.000000 0.000000 0.996713
Cu8   Cu    Cu3+1 0.500000 0.072490 0.500000 0.996479
Cu9   Cu    Cu3+1 0.927510 0.500000 0.500000 0.996480
Cu10  Cu    Cu3+1 0.500000 0.927510 0.500000 0.996259
Cu11  Cu    Cu3+1 0.072490 0.500000 0.500000 0.996258
Cu12  Cu    Cu3+1 0.500000 0.500000 0.044480 1.004741
H1    H     H_    0.085043 0.420696 0.361658 0.187465
H2    H     H_    0.078971 0.585393 0.861639 0.187571
H3    H     H_    0.414608 0.078968 0.861643 0.187561
H4    H     H_    0.920687 0.414968 0.861662 0.187468
H5    H     H_    0.585039 0.079305 0.138338 0.187470
H6    H     H_    0.079301 0.414954 0.138342 0.187482
H7    H     H_    0.414600 0.921037 0.138361 0.187573
H8    H     H_    0.921032 0.585392 0.138357 0.187562
H9    H     H_    0.810421 0.641261 0.278793 0.343746
H10   H     H_    0.358727 0.810428 0.278798 0.343755
H11   H     H_    0.143245 0.312252 0.279857 0.343381
H12   H     H_    0.579303 0.085043 0.361654 0.187488
H13   H     H_    0.687742 0.143249 0.279847 0.343372
H14   H     H_    0.856734 0.312271 0.720152 0.343373
H15   H     H_    0.358739 0.189580 0.721207 0.343746
H16   H     H_    0.189588 0.641250 0.721201 0.343754
H17   H     H_    0.687747 0.856755 0.720143 0.343382
H18   H     H_    0.310418 0.141257 0.778793 0.343756
H19   H     H_    0.812239 0.356774 0.779864 0.343383
H20   H     H_    0.643250 0.812257 0.779857 0.343367
H21   H     H_    0.141269 0.689577 0.778783 0.343743
H22   H     H_    0.310406 0.858755 0.221216 0.343739
H23   H     H_    0.914610 0.578970 0.361643 0.187576
H24   H     H_    0.858744 0.689583 0.221207 0.343756
H25   H     H_    0.643244 0.187748 0.220136 0.343381
H26   H     H_    0.187742 0.356749 0.220143 0.343367
H27   H     H_    0.421027 0.914612 0.361647 0.187554
H28   H     H_    0.085396 0.578965 0.638353 0.187556
H29   H     H_    0.579304 0.914957 0.638342 0.187465
H30   H     H_    0.914949 0.420705 0.638346 0.187490
H31   H     H_    0.421030 0.085390 0.638357 0.187576
H32   H     H_    0.585045 0.920698 0.861658 0.187482
O1    O     O_R   0.105780 0.561220 0.000020 -0.500416
O2    O     O_R   0.938780 0.605780 0.500020 -0.500377
O3    O     O_R   0.394220 0.938780 0.500020 -0.500373
O4    O     O_R   0.061220 0.394220 0.500020 -0.500378
O5    O     O_R   0.605780 0.938780 0.499980 -0.500378
O6    O     O_R   0.938780 0.394220 0.499980 -0.500382
O7    O     O_R   0.394220 0.061220 0.499980 -0.500378
O8    O     O_R   0.061220 0.605780 0.499980 -0.500373
O9    O     O_R   0.999940 0.561230 0.064880 -0.505198
O10   O     O_R   0.438770 0.999940 0.064880 -0.505158
O11   O     O_R   0.000060 0.438770 0.064880 -0.505020
O12   O     O_R   0.438780 0.105780 0.000020 -0.500399
O13   O     O_R   0.561230 0.000060 0.064880 -0.505060
O14   O     O_R   0.999940 0.438770 0.935120 -0.505060
O15   O     O_R   0.438770 0.000060 0.935120 -0.505198
O16   O     O_R   0.000060 0.561230 0.935120 -0.505157
O17   O     O_R   0.561230 0.999940 0.935120 -0.505020
O18   O     O_R   0.499940 0.061230 0.564880 -0.505140
O19   O     O_R   0.938770 0.499940 0.564880 -0.505028
O20   O     O_R   0.500060 0.938770 0.564880 -0.505077
O21   O     O_R   0.061230 0.500060 0.564880 -0.505191
O22   O     O_R   0.499940 0.938770 0.435120 -0.505190
O23   O     O_R   0.894220 0.438780 0.000020 -0.500340
O24   O     O_R   0.938770 0.500060 0.435120 -0.505140
O25   O     O_R   0.500060 0.061230 0.435120 -0.505027
O26   O     O_R   0.061230 0.499940 0.435120 -0.505077
O27   O     O_R   0.499980 0.394200 0.037580 -0.500981
O28   O     O_R   0.605800 0.499980 0.037580 -0.500446
O29   O     O_R   0.500020 0.605800 0.037580 -0.500262
O30   O     O_R   0.394200 0.500020 0.037580 -0.500797
O31   O     O_R   0.499980 0.605800 0.962420 -0.500797
O32   O     O_R   0.605800 0.500020 0.962420 -0.500981
O33   O     O_R   0.500020 0.394200 0.962420 -0.500446
O34   O     O_R   0.561220 0.894220 0.000020 -0.500356
O35   O     O_R   0.394200 0.499980 0.962420 -0.500262
O36   O     O_R   0.999980 0.894200 0.537580 -0.500568
O37   O     O_R   0.105800 0.999980 0.537580 -0.500310
O38   O     O_R   0.000020 0.105800 0.537580 -0.500675
O39   O     O_R   0.894200 0.000020 0.537580 -0.500933
O40   O     O_R   0.999980 0.105800 0.462420 -0.500933
O41   O     O_R   0.105800 0.000020 0.462420 -0.500568
O42   O     O_R   0.000020 0.894200 0.462420 -0.500310
O43   O     O_R   0.894200 0.999980 0.462420 -0.500675
O44   O     O_3   0.854088 0.633043 0.297353 -0.712740
O45   O     O_R   0.105780 0.438780 0.999980 -0.500356
O46   O     O_3   0.366949 0.854093 0.297359 -0.712764
O47   O     O_3   0.136039 0.357022 0.297578 -0.712839
O48   O     O_3   0.642974 0.136041 0.297571 -0.712813
O49   O     O_3   0.863945 0.357040 0.702429 -0.712816
O50   O     O_3   0.366957 0.145913 0.702647 -0.712740
O51   O     O_3   0.145920 0.633036 0.702641 -0.712767
O52   O     O_3   0.642978 0.863961 0.702422 -0.712839
O53   O     O_3   0.354084 0.133039 0.797353 -0.712760
O54   O     O_3   0.857009 0.363977 0.797584 -0.712828
O55   O     O_3   0.636043 0.857026 0.797578 -0.712819
O56   O     O_R   0.438780 0.894220 0.999980 -0.500416
O57   O     O_3   0.133046 0.645913 0.797346 -0.712750
O58   O     O_3   0.354073 0.866969 0.202654 -0.712749
O59   O     O_3   0.866961 0.645916 0.202647 -0.712760
O60   O     O_3   0.636036 0.142978 0.202416 -0.712828
O61   O     O_3   0.142973 0.363956 0.202422 -0.712819
O62   O     O_R   0.894220 0.561220 0.999980 -0.500400
O63   O     O_R   0.561220 0.105780 0.999980 -0.500340
O64   O     O_R   0.605780 0.061220 0.500020 -0.500383

loop_
_geom_bond_atom_site_label_1
_geom_bond_atom_site_label_2
_ccdc_geom_bond_type
C10   C27   T    
C37   O41   A    
Cu1   Cu6   S    
C61   O8    A    
C45   C60   A    
C2    C17   S    
C49   C63   A    
Cu12  O30   S    
Cu11  O8    S    
C68   C86   A    
C1    O45   A    
Cu7   O13   S    
C9    C39   S    
C57   C66   A    
Cu11  O21   S    
C69   C96   A    
C3    C79   A    
H13   O48   S    
C18   O17   A    
Cu8   Cu10  S    
H22   O58   S    
C101  O52   S    
Cu2   O33   S    
C54   C65   A    
H21   O57   S    
C16   O16   A    
C7    C96   A    
Cu3   O38   S    
C46   C62   A    
C6    C82   A    
Cu8   O64   S    
C97   O48   S    
C102  O53   S    
C41   C58   A    
C4    C80   A    
Cu11  O26   S    
C84   C92   A    
C86   C91   A    
Cu5   Cu7   S    
C36   O36   A    
C53   C64   A    
C18   C63   S    
C46   H29   S    
C5    O59   S    
C50   O5    A    
C28   O62   A    
C56   C65   A    
C15   C65   S    
C48   H31   S    
Cu3   O39   S    
C42   C70   A    
C51   H2    S    
C49   C78   A    
Cu10  O22   S    
C33   O28   A    
C17   O12   A    
C79   C90   A    
C43   C58   A    
C22   O26   A    
C47   C60   A    
C81   C92   A    
C3    C100  A    
C26   C34   S    
C96   O47   S    
C37   O37   A    
C30   C37   S    
C1    C94   S    
Cu8   O7    S    
Cu11  O4    S    
Cu8   O25   S    
C45   H28   S    
Cu3   Cu4   S    
Cu4   O43   S    
C43   H23   S    
Cu7   O17   S    
C19   O18   A    
C74   C87   A    
C20   C60   S    
H14   O49   S    
C61   O2    A    
Cu9   O6    S    
Cu10  O5    S    
C6    O60   S    
C98   O49   S    
C70   C97   A    
C42   H12   S    
C76   C89   A    
Cu6   O23   S    
C35   O30   A    
C7    C84   A    
C12   C72   S    
C47   H30   S    
C50   O64   A    
C72   O7    A    
Cu12  O29   S    
C33   O32   A    
C8    C25   T    
Cu4   O42   S    
C34   O31   A    
Cu10  O3    S    
Cu5   O10   S    
Cu9   O2    S    
Cu2   O32   S    
C46   C75   A    
C7    O61   S    
C85   C92   A    
C15   O13   A    
C9    C26   T    
Cu9   O19   S    
H19   O54   S    
C51   C79   A    
Cu1   O1    S    
C78   C89   A    
C76   C102  A    
C32   O27   A    
Cu1   O9    S    
C77   C90   A    
C53   H4    S    
C68   C95   A    
C67   C85   A    
Cu12  O28   S    
C14   O9    A    
C78   C104  A    
C3    O57   S    
C6    C97   A    
C32   O33   A    
H15   O50   S    
C15   O10   A    
Cu5   O15   S    
C83   O6    A    
C74   C100  A    
C16   O14   A    
C38   O38   A    
H16   O51   S    
C55   H6    S    
Cu1   O62   S    
C49   H32   S    
C40   O39   A    
C45   C74   A    
C53   C77   A    
C24   C32   S    
C73   C88   A    
Cu4   O40   S    
H11   O47   S    
Cu9   O24   S    
C4    C95   A    
C5    C81   A    
C18   O15   A    
H10   O46   S    
C28   O23   A    
C48   C62   A    
C29   C36   S    
C17   O63   A    
C27   C40   S    
C72   O3    A    
Cu8   O18   S    
Cu6   O45   S    
C56   H7    S    
C14   C66   S    
Cu1   O16   S    
C52   C76   A    
C88   C89   A    
C1    O1    A    
C47   C71   A    
C71   C87   A    
C54   H5    S    
C104  O55   S    
H17   O52   S    
C23   C35   S    
C2    C24   T    
C8    C28   S    
C57   C81   A    
Cu4   O41   S    
C44   C68   A    
C19   O20   A    
C10   C50   S    
H24   O59   S    
Cu2   O31   S    
C54   C82   A    
C55   C66   A    
C69   C85   A    
H18   O53   S    
C41   C69   A    
C83   O4    A    
C93   O44   S    
C73   C99   A    
C20   O19   A    
C13   C83   S    
C71   C98   A    
C75   C101  A    
Cu12  O27   S    
C12   C30   T    
C48   C73   A    
C13   C31   T    
Cu5   O56   S    
C51   C64   A    
C11   C61   S    
C52   C63   A    
C42   C59   A    
C22   C58   S    
C5    C93   A    
C23   C94   T    
C4    O58   S    
C36   O42   A    
C101  C104  A    
C16   C64   S    
Cu3   O37   S    
C21   O25   A    
C56   C80   A    
C31   C38   S    
C52   H3    S    
C14   O11   A    
Cu6   O14   S    
C80   C91   A    
H25   O60   S    
C98   C103  A    
C57   H8    S    
Cu5   O12   S    
C100  O51   S    
C40   O43   A    
C44   C59   A    
C44   H27   S    
C38   O40   A    
C99   O50   S    
C20   O21   A    
H9    O44   S    
Cu7   O34   S    
Cu7   O63   S    
Cu2   O35   S    
C103  O54   S    
C39   O34   A    
C77   C103  A    
C82   C91   A    
Cu10  O20   S    
C21   C59   S    
C75   C88   A    
C99   C102  A    
C95   O46   S    
C11   C29   T    
C43   C67   A    
C87   C90   A    
Cu2   Cu12  S    
C67   C93   A    
C34   O29   A    
C19   C62   S    
H26   O61   S    
C41   H1    S    
C55   C84   A    
C39   O56   A    
Cu3   O36   S    
C35   O35   A    
H20   O55   S    
C22   O24   A    
Cu6   O11   S    
C21   O22   A    
C25   C33   S    
Cu9   Cu11  S    
C70   C86   A    
