data_mof_unit_43236.cif
_audit_creation_date              2012-12-11T14:13:23-0500
_audit_creation_method            fapswitch 2.2
_symmetry_space_group_name_H-M    P1
_symmetry_Int_Tables_number       1
_space_group_crystal_system       triclinic
_cell_length_a                    11.529896
_cell_length_b                    18.756321
_cell_length_c                    10.038787
_cell_angle_alpha                 89.870167
_cell_angle_beta                  110.151826
_cell_angle_gamma                 89.81384
_cell_volume                      2038.04793327

loop_
_atom_site_label
_atom_site_type_symbol
_atom_type_description
_atom_site_fract_x
_atom_site_fract_y
_atom_site_fract_z
_atom_type_partial_charge
C1    C     C_R   0.069549 0.647733 0.139704 0.546860
C2    C     C_2   0.634724 0.060698 0.999470 -0.117378
C3    C     C_2   0.595236 0.424940 0.078618 -0.126622
C4    C     C_2   0.362918 0.561740 0.998583 -0.112039
C5    C     C_2   0.520488 0.949024 0.943388 -0.175449
C6    C     C_2   0.535850 0.025141 0.916207 -0.159458
C7    C     C_2   0.482414 0.452867 0.033425 -0.162732
C8    C     C_2   0.467454 0.527374 0.066961 -0.148212
C9    C     C_2   0.029793 0.927271 0.126893 -0.134719
C10   C     C_2   0.984263 0.076006 0.878381 -0.130953
C11   C     C_2   0.878638 0.439355 0.850096 -0.124382
C12   C     C_R   0.865841 0.360942 0.840968 0.576112
C13   C     C_2   0.997290 0.581560 0.112496 -0.125981
C14   C     C_2   0.998524 0.962794 0.003730 -0.051105
C15   C     C_2   0.013008 0.041268 0.003161 -0.049433
C16   C     C_2   0.951670 0.473366 0.967297 -0.058998
C17   C     C_2   0.950050 0.552252 0.981389 -0.052210
C18   C     C_R   0.473891 0.648453 0.445234 0.537296
C19   C     C_R   0.530128 0.354606 0.561786 0.515156
C20   C     C_R   0.531144 0.146018 0.562526 0.529787
C21   C     C_R   0.432384 0.860705 0.369386 0.559624
C22   C     C_R   0.351191 0.638708 0.010916 0.578822
C23   C     C_R   0.927277 0.146515 0.858825 0.544734
C24   C     C_R   0.623622 0.355264 0.034996 0.543393
C25   C     C_R   0.648258 0.138290 0.989751 0.577122
C26   C     C_R   0.377392 0.854221 0.960750 0.542928
C27   C     C_R   0.503506 0.429191 0.511955 -0.034038
C28   C     C_R   0.513465 0.579193 0.517311 -0.037789
C29   C     C_R   0.439201 0.937968 0.394269 -0.035377
C30   C     C_R   0.494251 0.077740 0.491292 -0.026561
C31   C     C_R   0.313787 0.440557 0.584084 -0.067834
C32   C     C_R   0.710857 0.571328 0.469643 -0.084305
C33   C     C_R   0.609770 0.949162 0.293219 -0.088281
C34   C     C_R   0.074383 0.854169 0.141574 0.542830
C35   C     C_R   0.282137 0.086575 0.509786 -0.069682
C36   C     C_R   0.236301 0.481978 0.632186 -0.153006
C37   C     C_R   0.798166 0.531983 0.433621 -0.145896
C38   C     C_R   0.730361 0.971153 0.318222 -0.139791
C39   C     C_R   0.187884 0.053626 0.541481 -0.134229
C40   C     C_R   0.260777 0.553545 0.657932 -0.121379
C41   C     C_R   0.780581 0.459850 0.408011 -0.132855
C42   C     C_R   0.781871 0.021216 0.421853 -0.116516
C43   C     C_R   0.177462 0.981156 0.531923 -0.162664
C44   C     C_R   0.359866 0.584255 0.632826 -0.061615
C45   C     C_R   0.416108 0.470302 0.554425 0.031930
C46   C     C_R   0.675049 0.427619 0.416022 -0.076040
C47   C     C_R   0.708200 0.053500 0.488502 -0.078691
C48   C     C_R   0.258299 0.941932 0.485870 -0.094995
C49   C     C_R   0.431205 0.544659 0.569749 0.004801
C50   C     C_R   0.593408 0.464736 0.469901 -0.002108
C51   C     C_R   0.580298 0.037462 0.450358 0.004699
C52   C     C_R   0.357735 0.974253 0.452461 0.001566
C53   C     C_R   0.053808 0.083444 0.136080 0.054939
C54   C     C_R   0.977145 0.089729 0.217880 -0.051300
C55   C     C_R   0.991018 0.147137 0.310243 -0.077172
C56   C     C_R   0.606124 0.538992 0.486661 0.011679
C57   C     C_R   0.084486 0.196686 0.325275 -0.107601
C58   C     C_R   0.166699 0.187484 0.251446 -0.106060
C59   C     C_R   0.151923 0.131042 0.157901 -0.077299
C60   C     C_R   0.933550 0.925890 0.868393 0.057381
C61   C     C_R   0.805359 0.916658 0.826190 -0.111031
C62   C     C_R   0.739944 0.890019 0.691778 -0.111332
C63   C     C_R   0.802978 0.871405 0.600408 -0.103924
C64   C     C_R   0.930490 0.880305 0.641915 -0.137979
C65   C     C_R   0.995677 0.908643 0.774771 -0.063671
C66   C     C_R   0.918160 0.598217 0.853801 0.063179
C67   C     C_R   0.538912 0.975705 0.373024 0.007647
C68   C     C_R   0.986156 0.592934 0.762445 -0.057616
C69   C     C_R   0.975426 0.646008 0.660878 -0.110209
C70   C     C_R   0.893862 0.702724 0.647065 -0.109518
C71   C     C_R   0.820171 0.705792 0.732220 -0.108920
C72   C     C_R   0.833251 0.654219 0.836521 -0.090223
C73   C     C_R   0.048932 0.433882 0.077640 0.075212
C74   C     C_R   0.159943 0.416389 0.057296 -0.071846
C75   C     C_R   0.251431 0.378998 0.162471 -0.110245
C76   C     C_R   0.231275 0.358989 0.286475 -0.116481
C77   C     C_R   0.119446 0.375245 0.305202 -0.110734
C78   C     C_R   0.376903 0.047565 0.480390 0.009036
C79   C     C_R   0.028617 0.412641 0.201113 -0.053110
C80   C     C_2   0.407277 0.921255 0.903152 -0.120000
Cr1   Cr    Cr6+3 0.187610 0.750000 0.979860 1.020257
Cr2   Cr    Cr6+3 0.812390 0.250000 0.020140 1.020807
Cr3   Cr    Cr6+3 0.245810 0.750000 0.341640 0.989754
Cr4   Cr    Cr6+3 0.754190 0.250000 0.658360 0.993615
Cr5   Cr    Cr6+3 0.485760 0.750000 0.219910 0.975343
Cr6   Cr    Cr6+3 0.514240 0.250000 0.780090 0.988267
H1    H     H_    0.158349 0.458081 0.651942 0.101865
H2    H     H_    0.727612 0.627126 0.486556 0.157642
H3    H     H_    0.576925 0.907813 0.218427 0.167640
H4    H     H_    0.276880 0.143502 0.509354 0.154433
H5    H     H_    0.379123 0.639812 0.660659 0.138057
H6    H     H_    0.657983 0.373496 0.377757 0.142436
H7    H     H_    0.756695 0.085551 0.577245 0.174440
H8    H     H_    0.236342 0.886932 0.482750 0.188525
H9    H     H_    0.460727 0.053519 0.837389 0.170289
H10   H     H_    0.599407 0.918171 0.008740 0.123720
H11   H     H_    0.546111 0.555798 0.139135 0.168919
H12   H     H_    0.877818 0.557776 0.421685 0.110851
H13   H     H_    0.404249 0.422803 0.964764 0.146450
H14   H     H_    0.708393 0.031418 0.076021 0.096406
H15   H     H_    0.329960 0.952425 0.834494 0.113728
H16   H     H_    0.284451 0.532618 0.929072 0.091199
H17   H     H_    0.672723 0.457536 0.139114 0.112692
H18   H     H_    0.973772 0.047632 0.780980 0.094511
H19   H     H_    0.053780 0.956040 0.226054 0.109516
H20   H     H_    0.005701 0.550105 0.206042 0.096329
H21   H     H_    0.818125 0.469901 0.761079 0.103446
H22   H     H_    0.902362 0.052988 0.203483 0.089838
H23   H     H_    0.785912 0.945844 0.263913 0.088978
H24   H     H_    0.929678 0.153177 0.370357 0.110572
H25   H     H_    0.098137 0.238988 0.401583 0.088218
H26   H     H_    0.244573 0.222111 0.268863 0.108278
H27   H     H_    0.212474 0.126735 0.096280 0.105196
H28   H     H_    0.756253 0.931783 0.896175 0.103282
H29   H     H_    0.640949 0.883143 0.659209 0.141770
H30   H     H_    0.754212 0.848897 0.497799 0.156291
H31   H     H_    0.978161 0.864998 0.570562 0.096382
H32   H     H_    0.093380 0.918942 0.803635 0.132593
H33   H     H_    0.050309 0.549228 0.774314 0.087413
H34   H     H_    0.121919 0.084667 0.572234 0.108358
H35   H     H_    0.027248 0.642756 0.589606 0.100061
H36   H     H_    0.882213 0.741012 0.563163 0.101349
H37   H     H_    0.752138 0.747435 0.717301 0.126368
H38   H     H_    0.779613 0.658733 0.906009 0.101395
H39   H     H_    0.174535 0.431058 0.959986 0.087730
H40   H     H_    0.337246 0.364834 0.147943 0.109430
H41   H     H_    0.301710 0.329551 0.367001 0.110026
H42   H     H_    0.102423 0.359356 0.400285 0.082839
H43   H     H_    0.941917 0.424787 0.215033 0.101084
H44   H     H_    0.204230 0.585544 0.699185 0.134689
H45   H     H_    0.845825 0.429141 0.376114 0.110564
H46   H     H_    0.879029 0.033974 0.452769 0.099651
H47   H     H_    0.103801 0.955383 0.556268 0.101664
H48   H     H_    0.286734 0.385840 0.566951 0.138458
O1    O     O_R   0.267710 0.668200 0.902110 -0.531403
O2    O     O_R   0.883280 0.330790 0.732340 -0.513631
O3    O     O_R   0.883280 0.169210 0.732340 -0.547635
O4    O     O_R   0.116720 0.830790 0.267660 -0.556901
O5    O     O_R   0.366710 0.675440 0.427590 -0.492172
O6    O     O_R   0.633290 0.324560 0.572410 -0.514576
O7    O     O_R   0.633290 0.175440 0.572410 -0.512014
O8    O     O_R   0.366710 0.824560 0.427590 -0.524017
O9    O     O_R   0.534870 0.669390 0.371760 -0.537474
O10   O     O_R   0.465130 0.330610 0.628240 -0.539316
O11   O     O_R   0.465130 0.169390 0.628240 -0.549673
O12   O     O_R   0.732290 0.331800 0.097890 -0.534938
O13   O     O_R   0.534870 0.830610 0.371760 -0.553017
O14   O     O_R   0.453080 0.674480 0.075160 -0.501056
O15   O     O_R   0.546920 0.325520 0.924840 -0.492249
O16   O     O_R   0.546920 0.174480 0.924840 -0.498582
O17   O     O_R   0.453080 0.825520 0.075160 -0.532212
O18   O     O_3   0.306390 0.750000 0.180470 -0.280664
O19   O     O_3   0.693610 0.250000 0.819530 -0.287436
O20   O     O_R   0.732290 0.168200 0.097890 -0.514669
O21   O     O_R   0.267710 0.831800 0.902110 -0.524120
O22   O     O_R   0.099480 0.674460 0.038850 -0.490264
O23   O     O_R   0.900520 0.325540 0.961150 -0.480436
O24   O     O_R   0.900520 0.174460 0.961150 -0.483878
O25   O     O_R   0.099480 0.825540 0.038850 -0.480681
O26   O     O_R   0.116720 0.669210 0.267660 -0.517742

loop_
_geom_bond_atom_site_label_1
_geom_bond_atom_site_label_2
_ccdc_geom_bond_type
C44   C49   A    
C66   C68   A    
C30   C51   A    
C19   O10   A    
Cr1   O25   S    
C73   C74   A    
Cr5   O14   S    
C4    C8    D    
Cr5   O9    S    
Cr3   O5    S    
C28   C56   A    
Cr6   O10   S    
C7    C8    S    
C20   C30   S    
C53   C54   A    
C17   C66   S    
Cr1   O22   S    
C7    H13   S    
C58   H26   S    
C21   O13   A    
C71   H37   S    
C26   O17   A    
Cr6   O19   S    
C21   O8    A    
C38   C42   A    
C3    C7    D    
C10   C15   D    
Cr6   O16   S    
C68   H33   S    
C5    C6    S    
Cr2   O24   S    
C74   H39   S    
C46   H6    S    
C9    H19   S    
C39   H34   S    
C32   H2    S    
C23   O24   A    
C28   C49   A    
C43   H47   S    
C29   C67   A    
Cr2   O19   S    
C66   C72   A    
Cr3   O26   S    
C68   C69   A    
C4    H16   S    
C41   C46   A    
C70   C71   A    
C69   H35   S    
C12   O23   A    
C19   C27   S    
C43   C48   A    
C40   C44   A    
C61   C62   A    
C27   C50   A    
C34   O25   A    
C27   C45   A    
C22   O1    A    
C2    H14   S    
C72   H38   S    
C26   O21   A    
C2    C6    D    
C31   H48   S    
C52   C78   A    
C37   H12   S    
Cr2   O12   S    
Cr1   O1    S    
C31   C36   A    
C77   C79   A    
C36   H1    S    
C53   C59   A    
Cr4   O19   S    
C74   C75   A    
C16   C73   S    
C36   C40   A    
C18   C28   S    
C76   C77   A    
Cr6   O15   S    
C41   H45   S    
Cr2   O23   S    
C19   O6    A    
C39   C43   A    
C58   C59   A    
C21   C29   S    
C34   O4    A    
C50   C56   A    
C64   H31   S    
C60   C61   A    
C5    C80   D    
C30   C78   A    
C1    O22   A    
C35   C39   A    
C75   C76   A    
Cr5   O17   S    
C62   C63   A    
C33   H3    S    
C4    C22   S    
C11   C16   D    
C70   H36   S    
C45   C49   A    
C59   H27   S    
C73   C79   A    
C9    C14   D    
C51   C67   A    
C32   C37   A    
C38   H23   S    
C77   H42   S    
C44   H5    S    
C48   H8    S    
C63   H30   S    
C22   O14   A    
Cr4   O3    S    
C65   H32   S    
C55   C57   A    
C55   H24   S    
C11   H21   S    
C9    C34   S    
C1    C13   S    
C31   C45   A    
Cr6   O11   S    
C15   C53   S    
C5    H10   S    
C33   C67   A    
Cr3   O18   S    
C3    H17   S    
C40   H44   S    
C54   C55   A    
C18   O9    A    
C47   H7    S    
C25   O20   A    
C14   C15   S    
C20   O7    A    
C23   O3    A    
C1    O26   A    
Cr5   O13   S    
C3    C24   S    
C13   H20   S    
C26   C80   S    
C60   C65   A    
Cr3   O8    S    
C47   C51   A    
C11   C12   S    
C54   H22   S    
C10   C23   S    
Cr1   O18   S    
C14   C60   S    
C46   C50   A    
C35   C78   A    
C33   C38   A    
Cr1   O21   S    
C13   C17   D    
C80   H15   S    
C75   H40   S    
C64   C65   A    
C10   H18   S    
Cr5   O18   S    
C62   H29   S    
C24   O12   A    
C57   C58   A    
C57   H25   S    
Cr4   O7    S    
C8    H11   S    
C2    C25   S    
C42   C47   A    
C37   C41   A    
C18   O5    A    
C69   C70   A    
C24   O15   A    
C63   C64   A    
Cr2   O20   S    
C35   H4    S    
C48   C52   A    
C71   C72   A    
Cr4   O6    S    
C6    H9    S    
C12   O2    A    
C61   H28   S    
C76   H41   S    
C20   O11   A    
C25   O16   A    
C42   H46   S    
C32   C56   A    
Cr3   O4    S    
C16   C17   S    
Cr4   O2    S    
C29   C52   A    
C79   H43   S    
