data_mof_unit_54046.cif
_audit_creation_date              2012-12-10T17:51:21-0500
_audit_creation_method            fapswitch 2.2
_symmetry_space_group_name_H-M    P1
_symmetry_Int_Tables_number       1
_space_group_crystal_system       triclinic
_cell_length_a                    14.679831
_cell_length_b                    14.806819
_cell_length_c                    17.427242
_cell_angle_alpha                 106.82215
_cell_angle_beta                  73.202367
_cell_angle_gamma                 113.977611
_cell_volume                      3248.78323584

loop_
_atom_site_label
_atom_site_type_symbol
_atom_type_description
_atom_site_fract_x
_atom_site_fract_y
_atom_site_fract_z
_atom_type_partial_charge
C1    C     C_R   0.118793 0.687950 0.508332 0.831089
C2    C     C_R   0.881310 0.312172 0.491466 0.837755
C3    C     C_R   0.185965 0.796183 0.511512 -0.189196
C4    C     C_R   0.813085 0.204457 0.487417 -0.194998
C5    C     C_R   0.208755 0.967388 0.586185 -0.217988
C6    C     C_R   0.778053 0.038285 0.402780 -0.221815
C7    C     C_R   0.146118 0.874258 0.550546 0.418018
C8    C     C_R   0.846990 0.126273 0.437368 0.392604
C9    C     C_R   0.293602 0.824344 0.483672 -0.123083
C10   C     C_R   0.707759 0.179925 0.524383 -0.106314
C11   C     C_R   0.356928 0.926605 0.506982 0.047758
C12   C     C_R   0.635795 0.084660 0.494181 0.043425
C13   C     C_R   0.313341 0.989765 0.570082 0.074454
C14   C     C_R   0.674554 0.022235 0.424778 0.058822
C15   C     C_R   0.463529 0.966118 0.476097 0.078257
C16   C     C_R   0.527414 0.049853 0.524420 0.076659
C17   C     C_R   0.479010 0.091866 0.600902 -0.206446
C18   C     C_R   0.507079 0.925761 0.397599 -0.160521
C19   C     C_R   0.374708 0.071179 0.618162 -0.177781
C20   C     C_R   0.610401 0.946113 0.375829 -0.171651
C21   C     C_R   0.298999 0.328861 0.359089 -0.186382
C22   C     C_R   0.704795 0.676551 0.635512 -0.175135
C23   C     C_R   0.987091 0.498582 0.652617 0.854512
C24   C     C_R   0.012435 0.500457 0.347114 0.844353
C25   C     C_R   0.215710 0.361438 0.380743 0.586519
C26   C     C_R   0.787553 0.643432 0.615238 0.587577
C27   C     C_R   0.282701 0.484915 0.490855 -0.007434
C28   C     C_R   0.713959 0.510248 0.512764 -0.023387
C29   C     C_R   0.368910 0.454849 0.473544 -0.051322
C30   C     C_R   0.622742 0.533152 0.535719 -0.065972
C31   C     C_R   0.374916 0.372649 0.407592 -0.041401
C32   C     C_R   0.617750 0.616787 0.600309 -0.042830
C33   C     C_R   0.449695 0.504973 0.518995 0.009848
C34   C     C_R   0.537338 0.476431 0.495848 0.008232
C35   C     C_R   0.535907 0.390293 0.434887 -0.270422
C36   C     C_R   0.444842 0.582074 0.587659 -0.275100
C37   C     C_R   0.456294 0.337309 0.393324 0.375472
C38   C     C_R   0.525244 0.636203 0.628317 0.374515
C39   C     C_R   0.982816 0.494854 0.738170 -0.239835
C40   C     C_R   0.014683 0.498163 0.260428 -0.239185
C41   C     C_R   0.046111 0.452261 0.753068 -0.058110
C42   C     C_R   0.939276 0.521050 0.241187 -0.054140
C43   C     C_R   0.060148 0.468283 0.832179 -0.181534
C44   C     C_R   0.927129 0.496749 0.160500 -0.187788
C45   C     C_R   0.007527 0.518723 0.897758 -0.020994
C46   C     C_R   0.991745 0.456991 0.097758 -0.014846
C47   C     C_R   0.937176 0.552247 0.885913 0.385059
C48   C     C_R   0.072524 0.443198 0.113883 0.395205
C49   C     C_R   0.923559 0.539581 0.806497 0.322688
C50   C     C_R   0.085790 0.465759 0.194747 0.352302
C51   C     C_2   0.020660 0.527594 0.979782 0.332101
C52   C     C_2   0.982681 0.445822 0.014135 0.314863
Cu1   Cu    Cu3+1 0.916740 0.524770 0.521640 1.042378
Cu2   Cu    Cu3+1 0.083260 0.475230 0.478360 1.039798
H1    H     H_    0.518706 0.140074 0.649011 0.173221
H2    H     H_    0.461345 0.875211 0.353368 0.165121
H3    H     H_    0.725466 0.451331 0.462272 0.149938
H4    H     H_    0.272502 0.545765 0.539802 0.150402
H5    H     H_    0.595247 0.359437 0.419120 0.169763
H6    H     H_    0.377467 0.601168 0.613266 0.173378
H7    H     H_    0.870158 0.514245 0.145390 0.195280
H8    H     H_    0.109320 0.437219 0.843619 0.200718
H9    H     H_    0.341207 0.113375 0.672867 0.161398
H10   H     H_    0.640703 0.904979 0.318593 0.164425
H11   H     H_    0.175905 0.022444 0.625861 0.177797
H12   H     H_    0.805749 0.983133 0.356809 0.183500
N1    N     N_R   0.208390 0.438070 0.445820 -0.222898
N2    N     N_R   0.791610 0.561930 0.554180 -0.219174
O1    O     O_R   0.020090 0.662480 0.528530 -0.498972
O2    O     O_R   0.979910 0.337520 0.471470 -0.505371
O3    O     O_R   0.160710 0.620650 0.491980 -0.596681
O4    O     O_R   0.839290 0.379350 0.508020 -0.595061
O5    O     O_R   0.921540 0.523360 0.633990 -0.494640
O6    O     O_R   0.078460 0.476640 0.366010 -0.494641
O7    O     O_R   0.062170 0.481520 0.597440 -0.604547
O8    O     O_R   0.937830 0.518480 0.402560 -0.604738
C53   C     C_R   0.091208 0.381846 0.690129 0.172026
C54   C     C_R   0.195815 0.399771 0.676470 -0.149265
C55   C     C_R   0.236211 0.328267 0.623290 -0.142072
C56   C     C_R   0.172739 0.238454 0.583473 -0.105330
C57   C     C_R   0.068612 0.219663 0.597299 -0.065884
C58   C     C_R   0.027885 0.291160 0.649952 -0.101967
H13   H     H_    0.245717 0.468528 0.707704 0.157932
H14   H     H_    0.316655 0.342176 0.613370 0.149101
H15   H     H_    0.204040 0.182941 0.542687 0.155125
H16   H     H_    0.019093 0.148789 0.568440 0.187192
H17   H     H_    0.946774 0.274743 0.661140 0.098754
C59   C     C_R   0.878363 0.579923 0.300559 0.161457
C60   C     C_R   0.927060 0.676815 0.343286 -0.058264
C61   C     C_R   0.870335 0.736599 0.392306 -0.088492
C62   C     C_R   0.765132 0.700785 0.398373 -0.134491
C63   C     C_R   0.716392 0.604946 0.355739 -0.127346
C64   C     C_R   0.772350 0.544396 0.307516 -0.157112
H18   H     H_    0.008931 0.706609 0.337374 0.125130
H19   H     H_    0.908051 0.811483 0.424347 0.189401
H20   H     H_    0.721501 0.747505 0.435615 0.122811
H21   H     H_    0.635144 0.577216 0.359984 0.136103
H22   H     H_    0.733299 0.470462 0.274551 0.154186
Cl1   Cl    Cl    0.462898 0.221957 0.329911 -0.645903
Cl2   Cl    Cl    0.497221 0.719761 0.719550 -0.625341
Cl3   Cl    Cl    0.887428 0.710999 0.669375 -0.473119
Cl4   Cl    Cl    0.120915 0.301426 0.320954 -0.466056
C65   C     C_R   0.308507 0.256437 0.280860 0.180496
C66   C     C_R   0.248587 0.153639 0.275363 0.001549
C67   C     C_R   0.256111 0.086267 0.200733 -0.080502
C68   C     C_R   0.322811 0.121120 0.131299 -0.071963
C69   C     C_R   0.381964 0.223457 0.136308 -0.072964
C70   C     C_R   0.374730 0.291154 0.210796 -0.038793
H23   H     H_    0.196667 0.126061 0.328847 0.171955
H24   H     H_    0.210187 0.007080 0.196699 0.161308
H25   H     H_    0.328502 0.068859 0.073567 0.159205
H26   H     H_    0.433273 0.250339 0.082426 0.151803
H27   H     H_    0.420427 0.370398 0.214044 0.130123
C71   C     C_R   0.718852 0.780654 0.682915 0.180548
C72   C     C_R   0.717964 0.804253 0.767224 0.015714
C73   C     C_R   0.734082 0.903349 0.810364 -0.072196
C74   C     C_R   0.751442 0.979340 0.769743 -0.085371
C75   C     C_R   0.752679 0.956424 0.685886 -0.107751
C76   C     C_R   0.736558 0.857478 0.642510 -0.049202
H28   H     H_    0.704627 0.745924 0.799215 0.178737
H29   H     H_    0.733237 0.921271 0.875280 0.163153
H30   H     H_    0.764055 0.056006 0.803227 0.160649
H31   H     H_    0.766374 0.015365 0.654457 0.128604
H32   H     H_    0.738310 0.840736 0.577497 0.114873
Cl5   Cl    Cl    0.198350 0.462826 0.209120 -0.545217
Cl6   Cl    Cl    0.827341 0.575542 0.797157 -0.524399
Cl7   Cl    Cl    0.913196 0.324926 0.964558 -0.579897
Cl8   Cl    Cl    0.088475 0.648580 0.030718 -0.533554
Cl9   Cl    Cl    0.863653 0.607423 0.971459 -0.485996
Cl10  Cl    Cl    0.159364 0.401175 0.031787 -0.478549
C77   C     C_R   0.677031 0.255788 0.592347 0.135154
C78   C     C_R   0.614369 0.302026 0.584279 -0.109250
C79   C     C_R   0.579561 0.367054 0.651304 -0.170179
C80   C     C_R   0.609413 0.388587 0.725715 -0.041749
C81   C     C_R   0.673611 0.344630 0.733502 -0.066249
C82   C     C_R   0.708174 0.279212 0.666949 -0.196806
H33   H     H_    0.589370 0.284178 0.527329 0.143652
H34   H     H_    0.528469 0.399848 0.645929 0.149340
H35   H     H_    0.582374 0.438928 0.777479 0.170976
H36   H     H_    0.695955 0.360545 0.791373 0.172953
H37   H     H_    0.756647 0.244467 0.674130 0.117358
C83   C     C_R   0.341603 0.747425 0.439014 0.130542
C84   C     C_R   0.326106 0.694694 0.359841 -0.106511
C85   C     C_R   0.385379 0.636672 0.312627 -0.075459
C86   C     C_R   0.458682 0.629296 0.344230 -0.137723
C87   C     C_R   0.473044 0.679886 0.423335 -0.151423
C88   C     C_R   0.413333 0.736820 0.471359 -0.131684
H38   H     H_    0.272245 0.702928 0.333426 0.134850
H39   H     H_    0.377389 0.600212 0.250390 0.199817
H40   H     H_    0.504916 0.585154 0.306962 0.135205
H41   H     H_    0.531218 0.676064 0.447307 0.139650
H42   H     H_    0.426771 0.777150 0.532047 0.151851
Cl11  Cl    Cl    0.973078 0.131817 0.416776 -0.621761
Cl12  Cl    Cl    0.021744 0.863121 0.552534 -0.620363

loop_
_geom_bond_atom_site_label_1
_geom_bond_atom_site_label_2
_ccdc_geom_bond_type
C15   C18   A    
C67   H24   S    
C29   C33   A    
C27   C29   A    
C69   H26   S    
C25   N1    A    
C37   Cl1   S    
C4    C8    A    
Cu1   O1    S    
C57   C58   A    
C61   H19   S    
C39   C41   A    
C53   C54   A    
C49   Cl6   S    
C21   C31   A    
C1    O3    A    
C22   C32   A    
C47   Cl9   S    
C51   Cl8   S    
C35   C37   A    
C3    C7    A    
C26   Cl3   S    
C41   C53   S    
C55   H14   S    
C23   C39   S    
C25   Cl4   S    
C68   C69   A    
C45   C51   S    
C15   C16   A    
C46   C52   S    
C33   C36   A    
C73   C74   A    
C18   C20   A    
C35   H5    S    
C34   C35   A    
C60   H18   S    
Cu1   N2    S    
C75   C76   A    
C17   C19   A    
C62   H20   S    
C10   C77   S    
C11   C15   A    
C54   H13   S    
Cu2   O3    S    
C12   C16   A    
C19   H9    S    
C16   C17   A    
C69   C70   A    
C65   C70   A    
C32   C38   A    
C17   H1    S    
C5    C13   A    
C86   H40   S    
C18   H2    S    
C48   C50   A    
C79   H34   S    
Cu2   O6    S    
C41   C43   A    
C48   Cl10  S    
C84   H38   S    
C42   C44   A    
C23   O5    A    
C2    O4    A    
C66   C67   A    
C52   Cl7   S    
C44   C46   A    
C63   H21   S    
C71   C72   A    
C68   H25   S    
C45   C47   A    
C81   H36   S    
C46   C48   A    
C73   H29   S    
C13   C19   A    
C51   C52   D    
C14   C20   A    
C81   C82   A    
C55   C56   A    
C5    H11   S    
C77   C82   A    
C80   H35   S    
C5    C7    A    
C30   C34   A    
C54   C55   A    
C24   O8    A    
C6    C8    A    
Cu2   N1    S    
C78   H33   S    
C28   H3    S    
C1    O1    A    
C31   C37   A    
C1    C3    S    
C70   H27   S    
C20   H10   S    
C2    C4    S    
C74   H30   S    
C56   H15   S    
C3    C9    A    
C6    C14   A    
C9    C11   A    
C71   C76   A    
Cu2   O2    S    
C22   C71   S    
C33   C34   A    
C50   Cl5   S    
C8    Cl11  S    
C43   C45   A    
C10   C12   A    
C38   Cl2   S    
C39   C49   A    
C12   C14   A    
C79   C80   A    
C58   H17   S    
Cu1   O8    S    
C42   C59   S    
C4    C10   A    
C77   C78   A    
C86   C87   A    
C62   C63   A    
C87   C88   A    
C21   C25   A    
C59   C64   A    
C85   H39   S    
C28   N2    A    
C83   C88   A    
Cu1   O5    S    
C57   H16   S    
C23   O7    A    
C56   C57   A    
C36   H6    S    
C27   H4    S    
C9    C83   S    
Cu1   Cu2   S    
C80   C81   A    
C44   H7    S    
C47   C49   A    
C67   C68   A    
C85   C86   A    
C26   N2    A    
C28   C30   A    
C88   H42   S    
C29   C31   A    
C74   C75   A    
C36   C38   A    
C30   C32   A    
C11   C13   A    
C24   O6    A    
C61   C62   A    
C66   H23   S    
C7    Cl12  S    
C53   C58   A    
C40   C50   A    
C40   C42   A    
C63   C64   A    
C24   C40   S    
C82   H37   S    
C78   C79   A    
C76   H32   S    
C75   H31   S    
C27   N1    A    
C87   H41   S    
C21   C65   S    
C6    H12   S    
C59   C60   A    
C72   H28   S    
C22   C26   A    
C65   C66   A    
C83   C84   A    
C72   C73   A    
C60   C61   A    
C2    O2    A    
Cu1   O4    S    
C64   H22   S    
C84   C85   A    
C43   H8    S    
Cu2   O7    S    
