data_mof_unit_36110.cif
_audit_creation_date              2012-10-26T20:33:40-0400
_audit_creation_method            fapswitch 2.2
_symmetry_space_group_name_H-M    P1
_symmetry_Int_Tables_number       1
_space_group_crystal_system       triclinic
_cell_length_a                    10.78289
_cell_length_b                    9.103568
_cell_length_c                    7.78771
_cell_angle_alpha                 90.00051
_cell_angle_beta                  89.999349
_cell_angle_gamma                 90.055075
_cell_volume                      764.462850615

loop_
_atom_site_label
_atom_site_type_symbol
_atom_type_description
_atom_site_fract_x
_atom_site_fract_y
_atom_site_fract_z
_atom_type_partial_charge
C1    C     C_R   0.500125 0.220024 0.499993 0.535680
C2    C     C_1   0.499975 0.934652 0.500003 -0.067017
C3    C     C_3   0.070410 0.490144 0.313569 -0.228268
C4    C     C_3   0.929600 0.511098 0.313636 -0.228313
C5    C     C_3   0.121922 0.498921 0.500284 0.060238
C6    C     C_3   0.878072 0.501208 0.500270 0.060247
C7    C     C_3   0.121295 0.784042 0.493999 -0.401545
C8    C     C_3   0.139549 0.218131 0.573597 -0.406109
C9    C     C_3   0.860465 0.781650 0.575587 -0.406232
C10   C     C_3   0.878798 0.216109 0.491618 -0.401600
C11   C     C_R   0.259541 0.498816 0.499830 0.540759
C12   C     C_R   0.740457 0.501263 0.499826 0.540753
C13   C     C_R   0.499898 0.779983 0.499994 0.535583
C14   C     C_1   0.500052 0.065355 0.500002 -0.067046
C15   C     C_3   0.073949 0.644067 0.586880 -0.105345
C16   C     C_3   0.070725 0.364661 0.606215 -0.105873
C17   C     C_3   0.929253 0.634906 0.607220 -0.105808
C18   C     C_3   0.926045 0.355553 0.585717 -0.105383
Cu1   Cu    Cu3+1 0.500000 0.500010 0.669080 0.982735
Cu2   Cu    Cu3+1 0.500000 0.500010 0.330920 0.987720
H1    H     H_    0.113718 0.650006 0.718838 0.125693
H2    H     H_    0.223304 0.781278 0.476762 0.143547
H3    H     H_    0.077643 0.797883 0.366115 0.133538
H4    H     H_    0.238825 0.227112 0.608720 0.155221
H5    H     H_    0.100706 0.131222 0.657631 0.118172
H6    H     H_    0.133493 0.183307 0.437440 0.132570
H7    H     H_    0.761188 0.772551 0.610668 0.155464
H8    H     H_    0.899326 0.868213 0.660115 0.118310
H9    H     H_    0.866496 0.817109 0.439656 0.132282
H10   H     H_    0.898660 0.117022 0.569238 0.120458
H11   H     H_    0.776781 0.218869 0.474486 0.143645
H12   H     H_    0.089027 0.389038 0.744239 0.118732
H13   H     H_    0.922407 0.203211 0.363583 0.133560
H14   H     H_    0.910890 0.609792 0.745049 0.118835
H15   H     H_    0.886219 0.348786 0.717584 0.125572
H16   H     H_    0.113059 0.574856 0.229246 0.129617
H17   H     H_    0.093617 0.382065 0.255501 0.122392
H18   H     H_    0.906407 0.619518 0.256454 0.122256
H19   H     H_    0.886972 0.426921 0.228576 0.129725
H20   H     H_    0.101559 0.882578 0.572615 0.120380
N1    N     N_1   0.500000 0.499970 0.076820 -0.086561
N2    N     N_1   0.500000 0.499970 0.923180 -0.086169
O1    O     O_R   0.500000 0.288400 0.642760 -0.498968
O2    O     O_R   0.500000 0.288400 0.357240 -0.495391
O3    O     O_R   0.317700 0.499990 0.642790 -0.515827
O4    O     O_R   0.317700 0.499990 0.357210 -0.510899
O5    O     O_R   0.682300 0.499990 0.642790 -0.515876
O6    O     O_R   0.682300 0.499990 0.357210 -0.510934
O7    O     O_R   0.500000 0.711620 0.642810 -0.499123
O8    O     O_R   0.500000 0.711620 0.357190 -0.495399

loop_
_geom_bond_atom_site_label_1
_geom_bond_atom_site_label_2
_ccdc_geom_bond_type
C7    H20   S    
Cu1   O3    S    
C16   H12   S    
C7    H2    S    
C8    H6    S    
N1    N2    T    
C10   H10   S    
C1    O2    A    
Cu1   Cu2   S    
C4    H19   S    
C9    H9    S    
C12   O6    A    
C11   O4    A    
C7    C15   S    
Cu2   N1    S    
C8    C16   S    
C8    H5    S    
C2    C13   S    
Cu1   N2    S    
C3    H17   S    
Cu2   O6    S    
C3    H16   S    
C10   C18   S    
C12   O5    A    
C13   O7    A    
C4    C6    S    
C8    H4    S    
C4    H18   S    
C5    C11   S    
C10   H13   S    
Cu1   O5    S    
C6    C12   S    
C2    C14   T    
C6    C18   S    
C7    H3    S    
C5    C15   S    
C11   O3    A    
C17   H14   S    
C3    C4    S    
C15   H1    S    
C9    H7    S    
C16   C18   S    
C18   H15   S    
C9    C17   S    
C15   C17   S    
C6    C17   S    
Cu1   O7    S    
C5    C16   S    
Cu2   O8    S    
C1    C14   S    
Cu2   O2    S    
C10   H11   S    
C1    O1    A    
Cu2   O4    S    
C13   O8    A    
C9    H8    S    
Cu1   O1    S    
C3    C5    S    
