data_mof_unit_8426.cif
_audit_creation_date              2012-12-11T15:48:44-0500
_audit_creation_method            fapswitch 2.2
_symmetry_space_group_name_H-M    P1
_symmetry_Int_Tables_number       1
_space_group_crystal_system       triclinic
_cell_length_a                    11.094813
_cell_length_b                    11.019108
_cell_length_c                    18.8356
_cell_angle_alpha                 90.255927
_cell_angle_beta                  90.156073
_cell_angle_gamma                 60.697739
_cell_volume                      2008.08844287

loop_
_atom_site_label
_atom_site_type_symbol
_atom_type_description
_atom_site_fract_x
_atom_site_fract_y
_atom_site_fract_z
_atom_type_partial_charge
C1    C     C_R   0.236153 0.646939 0.609457 0.533833
C2    C     C_R   0.566962 0.162629 0.715996 -0.162546
C3    C     C_R   0.561824 0.178134 0.789000 -0.129133
C4    C     C_R   0.655492 0.625252 0.599192 0.515939
C5    C     C_3   0.917839 0.109608 0.785899 -0.109660
C6    C     C_3   0.904772 0.125034 0.705605 -0.264050
C7    C     C_R   0.659872 0.185580 0.677090 -0.017028
C8    C     C_R   0.164939 0.679387 0.832326 -0.003931
C9    C     C_R   0.158418 0.574558 0.794120 0.022104
C10   C     C_R   0.171523 0.567649 0.720225 0.012116
C11   C     C_R   0.168100 0.787269 0.720750 0.170215
C12   C     C_3   0.695742 0.545296 0.796939 -0.312673
C13   C     C_R   0.173888 0.783204 0.794860 -0.158141
C14   C     C_3   0.257430 0.425214 0.802962 -0.207971
C15   C     C_3   0.278203 0.418837 0.723542 0.086776
C16   C     C_R   0.626045 0.231640 0.603587 0.536820
C17   C     C_R   0.178881 0.672169 0.682016 0.017534
C18   C     C_R   0.651884 0.675280 0.167900 0.017956
C19   C     C_R   0.707618 0.545065 0.199863 -0.007036
C20   C     C_R   0.707969 0.534257 0.272351 0.002766
C21   C     C_R   0.575079 0.783347 0.285714 -0.038286
C22   C     C_R   0.576718 0.794508 0.211037 -0.068439
C23   C     C_3   0.702520 0.679197 0.811530 0.105551
C24   C     C_3   0.844726 0.415105 0.193229 -0.257636
C25   C     C_3   0.846324 0.406541 0.273502 -0.244882
C26   C     C_R   0.650641 0.650395 0.317226 -0.028831
C27   C     C_R   0.663975 0.142612 0.178269 -0.071191
C28   C     C_R   0.219630 0.650652 0.402666 0.534335
C29   C     C_R   0.541098 0.175863 0.211696 0.075412
C30   C     C_R   0.531312 0.191711 0.283789 0.022257
C31   C     C_R   0.776080 0.111216 0.293989 0.178035
C32   C     C_R   0.783779 0.103445 0.220023 -0.115766
C33   C     C_3   0.401870 0.298654 0.199459 0.094160
C34   C     C_3   0.674836 0.655635 0.674283 -0.050324
C35   C     C_3   0.391008 0.316899 0.279222 -0.147697
C36   C     C_R   0.645030 0.167748 0.325875 -0.011548
C37   C     C_R   0.105487 0.696071 0.190659 0.007516
C38   C     C_R   0.113106 0.801781 0.227065 0.021571
C39   C     C_R   0.131343 0.796584 0.298428 0.021567
C40   C     C_R   0.641695 0.622432 0.392235 0.514996
C41   C     C_R   0.105421 0.592058 0.304146 -0.173421
C42   C     C_R   0.087714 0.597669 0.230073 -0.161618
C43   C     C_3   0.201304 0.867249 0.213765 0.127404
C44   C     C_3   0.224495 0.859766 0.293178 -0.176864
C45   C     C_3   0.819994 0.641915 0.688510 -0.110625
C46   C     C_R   0.142407 0.683878 0.337190 0.008177
C47   C     C_R   0.700173 0.104506 0.896952 0.572848
C48   C     C_R   0.725199 0.689460 0.888053 0.623165
C49   C     C_R   0.114909 0.708459 0.905117 0.574949
C50   C     C_R   0.677998 0.102971 0.104667 0.528705
C51   C     C_R   0.696962 0.691149 0.097678 0.547034
C52   C     C_R   0.615986 0.229034 0.395766 0.528210
C53   C     C_R   0.082234 0.715250 0.115307 0.562915
C54   C     C_3   0.564078 0.806598 0.783983 0.431972
C55   C     C_3   0.568744 0.806688 0.701646 -0.113884
C56   C     C_3   0.660338 0.543406 0.718461 -0.254566
C57   C     C_3   0.831152 0.666191 0.769745 0.089839
C58   C     C_2   0.939602 0.506518 0.663058 0.274056
C59   C     C_2   0.993058 0.176522 0.820473 0.213915
C60   C     C_2   0.501286 0.910956 0.329373 0.220280
C61   C     C_2   0.426699 0.872613 0.672659 0.262534
C62   C     C_R   0.672834 0.173205 0.827226 0.011161
C63   C     C_R   0.766142 0.197007 0.788839 0.023082
C64   C     C_R   0.754960 0.209182 0.714676 -0.039731
Cr1   Cr    Cr6+3 0.392960 0.397920 0.502240 1.015189
Cr2   Cr    Cr6+3 0.398340 0.708480 0.501250 1.058939
Cr3   Cr    Cr6+3 0.708670 0.393570 0.496460 1.041737
Cr4   Cr    Cr6+3 0.937650 0.938540 0.007610 1.087694
Cr5   Cr    Cr6+3 0.625330 0.937370 0.994520 1.091199
Cr6   Cr    Cr6+3 0.937940 0.625230 0.001190 1.050896
H1    H     H_    0.731760 0.439510 0.697405 0.212331
H2    H     H_    0.348201 0.410704 0.834557 0.081869
H3    H     H_    0.379167 0.405643 0.705987 0.126045
H4    H     H_    0.529664 0.897185 0.187470 0.205059
H5    H     H_    0.929091 0.431283 0.172520 0.175863
H6    H     H_    0.835375 0.329616 0.166902 0.145626
H7    H     H_    0.841144 0.315318 0.293691 0.207493
H8    H     H_    0.927006 0.424752 0.298548 0.148218
H9    H     H_    0.884150 0.064770 0.195613 0.159016
H10   H     H_    0.402626 0.386139 0.170307 0.096810
H11   H     H_    0.391298 0.413062 0.297051 0.093023
H12   H     H_    0.923665 0.573819 0.791241 0.208040
H13   H     H_    0.310819 0.297779 0.303685 0.209567
H14   H     H_    0.104600 0.508530 0.333760 0.129169
H15   H     H_    0.068372 0.521637 0.203808 0.163044
H16   H     H_    0.142749 0.975037 0.192872 0.180573
H17   H     H_    0.608126 0.877485 0.684367 0.132438
H18   H     H_    0.332484 0.786035 0.308808 0.165054
H19   H     H_    0.178889 0.963889 0.318886 0.191461
H20   H     H_    0.827766 0.723613 0.657486 0.071202
H21   H     H_    0.796958 0.452751 0.809022 0.185370
H22   H     H_    0.618486 0.537340 0.831273 0.138138
H23   H     H_    0.488662 0.147141 0.689968 0.215483
H24   H     H_    0.555066 0.556023 0.712416 0.084118
H25   H     H_    0.452502 0.002622 0.800831 0.355106
H26   H     H_    0.995964 0.505425 0.615822 0.128331
H27   H     H_    0.067940 0.192142 0.790738 0.169818
H28   H     H_    0.170234 0.962595 0.719899 0.333861
H29   H     H_    0.434426 0.730749 0.785122 0.292475
H30   H     H_    0.257177 0.330463 0.639353 0.361667
H31   H     H_    0.531611 0.912689 0.383999 0.126437
H32   H     H_    0.382477 0.806431 0.668205 0.196959
H33   H     H_    0.880692 0.051261 0.381625 0.339926
H34   H     H_    0.476343 0.179089 0.816087 0.170891
H35   H     H_    0.315374 0.259863 0.120333 0.340448
H36   H     H_    0.366635 0.686669 0.194443 0.315202
H37   H     H_    0.784761 0.861044 0.754351 0.346233
H38   H     H_    0.947986 0.004371 0.805397 0.171750
H39   H     H_    0.949982 0.184889 0.681078 0.214771
H40   H     H_    0.924817 0.029248 0.676428 0.197260
H41   H     H_    0.177258 0.867061 0.823346 0.167579
H42   H     H_    0.205851 0.366902 0.822410 0.185864
O1    O     O_R   0.507380 0.255700 0.581440 -0.528637
O2    O     O_R   0.837170 0.593410 0.915250 -0.526977
O3    O     O_R   0.065200 0.635530 0.931570 -0.493357
O4    O     O_R   0.280320 0.527350 0.578930 -0.541571
O5    O     O_R   0.068260 0.828890 0.091840 -0.494151
O6    O     O_R   0.798870 0.057410 0.079340 -0.522416
O7    O     O_R   0.584930 0.080350 0.076780 -0.515115
O8    O     O_R   0.626960 0.809650 0.067060 -0.499891
O9    O     O_R   0.816040 0.596610 0.076510 -0.526049
O10   O     O_R   0.045610 0.638500 0.081060 -0.520170
O11   O     O_3   0.833640 0.833710 0.001100 -0.286214
O12   O     O_R   0.524480 0.695810 0.424040 -0.518867
O13   O     O_R   0.260510 0.739590 0.584590 -0.451869
O14   O     O_R   0.532300 0.695080 0.573820 -0.513964
O15   O     O_R   0.744840 0.503500 0.576370 -0.505972
O16   O     O_R   0.699120 0.276560 0.571960 -0.493510
O17   O     O_R   0.498940 0.256500 0.419860 -0.514465
O18   O     O_R   0.272500 0.528080 0.429150 -0.514250
O19   O     O_R   0.252060 0.740380 0.423010 -0.517425
O20   O     O_3   0.551822 0.932783 0.806380 -0.653337
O21   O     O_2   0.971731 0.397495 0.693519 -0.520401
O22   O     O_2   0.974579 0.208818 0.883177 -0.490121
O23   O     O_R   0.736390 0.504290 0.414790 -0.508444
O24   O     O_3   0.158359 0.900747 0.685575 -0.702410
O25   O     O_3   0.449540 0.798818 0.812300 -0.710196
O26   O     O_3   0.237441 0.330633 0.690631 -0.645042
O27   O     O_2   0.403553 0.015185 0.304981 -0.506183
O28   O     O_2   0.366609 0.993043 0.652112 -0.485333
O29   O     O_3   0.895842 0.070850 0.332157 -0.728704
O30   O     O_3   0.308333 0.258793 0.172783 -0.670803
O31   O     O_3   0.321152 0.781984 0.174112 -0.678961
O32   O     O_3   0.851749 0.780900 0.782795 -0.716870
O33   O     O_R   0.691300 0.277290 0.422170 -0.492227
O34   O     O_3   0.499990 0.499990 0.499980 -0.270539
O35   O     O_R   0.089400 0.825690 0.930570 -0.500683
O36   O     O_R   0.818460 0.054440 0.929850 -0.465105
O37   O     O_R   0.606060 0.077150 0.915510 -0.500452
O38   O     O_R   0.646550 0.806680 0.917570 -0.408789

loop_
_geom_bond_atom_site_label_1
_geom_bond_atom_site_label_2
_ccdc_geom_bond_type
C3    H34   S    
C21   C26   A    
C34   C56   S    
C8    C13   A    
C48   O38   A    
C27   C29   A    
C41   C42   A    
C12   H21   S    
C43   O31   S    
C2    C7    A    
C43   C44   S    
C16   O1    A    
C47   C62   S    
Cr1   O18   S    
C35   H11   S    
H36   O31   S    
Cr6   O2    S    
C14   H42   S    
C12   C23   S    
C45   C57   S    
C37   C38   A    
C30   C35   S    
C25   H7    S    
C52   O17   A    
C1    O13   A    
C53   O10   A    
C31   C36   A    
C38   C39   A    
C33   C35   S    
C53   O5    A    
C54   O25   S    
C20   C25   S    
Cr5   O11   S    
C10   C17   A    
H28   O24   S    
C5    C63   S    
C18   C19   A    
C6    C64   S    
C37   C42   A    
C58   H26   S    
Cr3   O23   S    
Cr4   O6    S    
C47   O36   A    
Cr6   O11   S    
C47   O37   A    
C29   C33   S    
C8    C9    A    
Cr3   O33   S    
C41   C46   A    
C1    O4    A    
C29   C30   A    
C9    C10   A    
Cr4   O36   S    
C27   C50   S    
C15   O26   S    
C37   C53   S    
C34   C55   S    
C50   O6    A    
C21   C22   A    
C24   H5    S    
C6    H40   S    
Cr1   O1    S    
H33   O29   S    
Cr4   O11   S    
C18   C51   S    
C58   O21   D    
C40   O12   A    
C40   O23   A    
C4    C34   S    
C45   C58   S    
C5    C59   S    
C50   O7    A    
C24   C25   S    
C21   C60   S    
H35   O30   S    
C42   H15   S    
C52   O33   A    
C35   H13   S    
C24   H6    S    
C41   H14   S    
Cr5   O7    S    
C25   H8    S    
C31   O29   S    
C56   H24   S    
C9    C14   S    
C62   C63   A    
Cr3   O15   S    
Cr4   O5    S    
C61   H32   S    
Cr6   O10   S    
C31   C32   A    
C14   C15   S    
C56   H1    S    
C28   C46   S    
Cr3   O34   S    
C51   O8    A    
C61   O28   D    
C34   C45   S    
C45   H20   S    
C16   O16   A    
C12   C56   S    
Cr4   O35   S    
H30   O26   S    
C39   C46   A    
C7    C16   S    
C15   H3    S    
H25   O20   S    
C59   H27   S    
C6    H39   S    
Cr2   O12   S    
C49   O35   A    
Cr5   O38   S    
C60   H31   S    
C23   C54   S    
C48   O2    A    
Cr2   O19   S    
C3    C62   A    
C23   C57   S    
C54   C55   S    
C11   C17   A    
C23   C48   S    
Cr5   O8    S    
C57   O32   S    
C49   O3    A    
C27   C32   A    
C18   C22   A    
C43   H16   S    
C14   H2    S    
C12   H22   S    
C2    H23   S    
Cr6   O3    S    
C36   C52   S    
Cr1   O17   S    
C33   H10   S    
C39   C44   S    
C30   C36   A    
C33   O30   S    
C54   O20   S    
C59   O22   D    
C1    C17   S    
Cr2   O13   S    
C4    O14   A    
C10   C15   S    
C28   O19   A    
Cr5   O37   S    
C19   C20   A    
C19   C24   S    
H37   O32   S    
C38   C43   S    
C13   H41   S    
C44   H18   S    
C11   O24   S    
C32   H9    S    
C11   C13   A    
Cr6   O9    S    
C26   C40   S    
C5    C6    S    
C20   C26   A    
C51   O9    A    
C55   C61   S    
Cr1   O4    S    
C2    C3    A    
C28   O18   A    
C55   H17   S    
C7    C64   A    
Cr2   O34   S    
C60   O27   D    
C63   C64   A    
Cr2   O14   S    
C22   H4    S    
C57   H12   S    
H29   O25   S    
Cr1   O34   S    
Cr3   O16   S    
C8    C49   S    
C4    O15   A    
C44   H19   S    
C5    H38   S    
