data_mof_unit_45605.cif
_audit_creation_date              2012-12-11T14:40:22-0500
_audit_creation_method            fapswitch 2.2
_symmetry_space_group_name_H-M    P1
_symmetry_Int_Tables_number       1
_space_group_crystal_system       triclinic
_cell_length_a                    19.695178
_cell_length_b                    10.828005
_cell_length_c                    19.494624
_cell_angle_alpha                 89.959258
_cell_angle_beta                  97.583638
_cell_angle_gamma                 89.684262
_cell_volume                      4120.98280006

loop_
_atom_site_label
_atom_site_type_symbol
_atom_type_description
_atom_site_fract_x
_atom_site_fract_y
_atom_site_fract_z
_atom_type_partial_charge
C1    C     C_R   0.708009 0.998823 0.366542 0.541991
C2    C     C_3   0.247162 0.414415 0.569897 0.037365
C3    C     C_2   0.862265 0.936311 0.451541 0.250973
C4    C     C_2   0.876232 0.300935 0.470372 0.288801
C5    C     C_2   0.123549 0.303355 0.529707 0.288887
C6    C     C_2   0.389070 0.943067 0.439113 0.269941
C7    C     C_2   0.610807 0.945140 0.560860 0.272225
C8    C     C_2   0.491655 0.932680 0.054304 0.251560
C9    C     C_2   0.574351 0.001254 0.925105 0.253812
C10   C     C_2   0.052671 0.435145 0.032050 0.255463
C11   C     C_2   0.098168 0.616003 0.912775 0.254031
C12   C     C_3   0.252459 0.918151 0.428568 0.058947
C13   C     C_3   0.747352 0.917994 0.571377 0.058746
C14   C     C_3   0.757983 0.548166 0.453969 -0.166734
C15   C     C_3   0.241734 0.548255 0.545851 -0.165172
C16   C     C_3   0.220689 0.029077 0.461209 -0.172166
C17   C     C_3   0.779081 0.028261 0.538581 -0.170673
C18   C     C_3   0.821468 0.510403 0.506571 -0.139512
C19   C     C_3   0.178312 0.511621 0.493239 -0.138650
C20   C     C_3   0.292709 0.055476 0.502417 -0.169025
C21   C     C_R   0.291968 0.999101 0.633306 0.542366
C22   C     C_3   0.707064 0.055892 0.497296 -0.167659
C23   C     C_3   0.814857 0.376630 0.481855 0.036261
C24   C     C_3   0.184930 0.377778 0.518183 0.036396
C25   C     C_3   0.322828 0.943003 0.468801 0.029500
C26   C     C_3   0.676994 0.944047 0.531085 0.028466
C27   C     C_3   0.767070 0.345506 0.535329 -0.150169
C28   C     C_3   0.232815 0.345588 0.464842 -0.151851
C29   C     C_3   0.306172 0.857580 0.526938 -0.132558
C30   C     C_3   0.693758 0.858154 0.473122 -0.133071
C31   C     C_3   0.773898 0.478953 0.560317 0.034488
C32   C     C_R   0.207583 0.502094 0.366028 0.535005
C33   C     C_3   0.225960 0.479065 0.439612 0.035769
C34   C     C_3   0.275395 0.969416 0.560293 0.029431
C35   C     C_3   0.724497 0.969309 0.439606 0.030870
C36   C     C_3   0.510128 0.286634 0.974029 -0.105227
C37   C     C_3   0.470170 0.255125 0.034401 -0.116516
C38   C     C_3   0.971949 0.786399 0.984735 -0.119999
C39   C     C_3   0.950792 0.700157 0.041291 -0.120582
C40   C     C_3   0.570680 0.203286 0.004653 -0.143608
C41   C     C_3   0.437017 0.142428 0.994939 -0.133728
C42   C     C_3   0.048619 0.758874 0.008560 -0.098450
C43   C     C_R   0.792361 0.502280 0.633820 0.538805
C44   C     C_3   0.948235 0.588622 0.991253 -0.123395
C45   C     C_3   0.530424 0.172057 0.064476 0.012774
C46   C     C_3   0.477120 0.173883 0.935126 0.044607
C47   C     C_3   0.027087 0.672567 0.064285 0.016729
C48   C     C_3   0.970099 0.674717 0.935808 0.009094
C49   C     C_R   0.560200 0.183060 0.348510 0.529977
C50   C     C_R   0.439862 0.183308 0.651508 0.533083
C51   C     C_R   0.057581 0.682995 0.348015 0.524483
C52   C     C_R   0.941777 0.683284 0.651905 0.528043
C53   C     C_3   0.497674 0.059908 0.025575 -0.004933
C54   C     C_3   0.704275 0.383788 0.483368 -0.149567
C55   C     C_3   0.536997 0.091282 0.965003 0.001650
C56   C     C_3   0.024689 0.561805 0.015388 -0.011227
C57   C     C_3   0.045808 0.647241 0.959310 0.005503
C58   C     C_1   0.780414 0.473405 0.914209 -0.006114
C59   C     C_1   0.238663 0.422411 0.096811 -0.008853
C60   C     C_1   0.280761 0.973107 0.914266 0.022200
C61   C     C_1   0.736853 0.924753 0.095797 -0.010072
C62   C     C_1   0.756570 0.436891 0.041202 -0.030407
C63   C     C_1   0.254282 0.404454 0.966495 -0.023664
C64   C     C_1   0.256787 0.936429 0.041192 0.015081
C65   C     C_3   0.295542 0.382822 0.516778 -0.151368
C66   C     C_1   0.752813 0.906825 0.965650 -0.027506
C67   C     C_1   0.768867 0.457592 0.972651 -0.034651
C68   C     C_1   0.247841 0.411571 0.037359 -0.041845
C69   C     C_1   0.269264 0.957028 0.972693 0.018106
C70   C     C_1   0.745659 0.914305 0.036275 -0.050091
C71   C     C_1   0.746889 0.410545 0.099045 0.003142
C72   C     C_1   0.258498 0.392288 0.905931 0.017151
C73   C     C_1   0.246950 0.910309 0.099016 0.024997
C74   C     C_1   0.757815 0.893885 0.905340 0.036293
C75   C     C_R   0.739881 0.364669 0.361175 0.549616
C76   C     C_3   0.234700 0.832512 0.486288 -0.111117
C77   C     C_R   0.260021 0.364511 0.638851 0.553232
C78   C     C_R   0.240731 0.868732 0.359436 0.565765
C79   C     C_R   0.759196 0.868448 0.640523 0.572142
C80   C     C_R   0.721688 0.952670 0.163638 0.551740
C81   C     C_R   0.294822 0.997009 0.845386 0.533679
C82   C     C_R   0.222156 0.451846 0.164059 0.542643
C83   C     C_R   0.794743 0.496989 0.845379 0.531604
C84   C     C_R   0.559848 0.181756 0.135877 0.553883
C85   C     C_R   0.444257 0.181854 0.864874 0.547068
C86   C     C_R   0.058438 0.681610 0.135371 0.543687
C87   C     C_3   0.765224 0.831874 0.513830 -0.113360
C88   C     C_R   0.940037 0.682436 0.864275 0.525583
C89   C     C_R   0.736268 0.362540 0.165083 0.544266
C90   C     C_R   0.264474 0.359558 0.836070 0.543341
C91   C     C_R   0.236273 0.862500 0.165073 0.547281
C92   C     C_R   0.764338 0.859956 0.835852 0.558859
C93   C     C_1   0.466410 0.175789 0.587045 0.020235
C94   C     C_1   0.533491 0.175787 0.412885 0.019246
C95   C     C_1   0.969440 0.676797 0.588303 0.028532
C96   C     C_1   0.029248 0.676742 0.411243 0.029080
C97   C     C_1   0.512166 0.173178 0.467756 -0.013269
C98   C     C_3   0.752560 0.414368 0.430125 0.036995
C99   C     C_1   0.487612 0.173159 0.532109 -0.013010
C100  C     C_1   0.009442 0.674823 0.466725 0.019190
C101  C     C_1   0.988955 0.674833 0.532682 0.018323
C102  C     C_3   0.710842 0.517282 0.509076 0.026775
C103  C     C_3   0.288950 0.516349 0.490853 0.026901
C104  C     C_3   0.204587 0.943926 0.520122 0.021786
C105  C     C_3   0.795292 0.942632 0.479848 0.021884
C106  C     C_2   0.646155 0.585503 0.518128 0.222413
C107  C     C_2   0.353600 0.583472 0.481863 0.222058
C108  C     C_2   0.137620 0.938836 0.548448 0.253007
Cr1   Cr    Cr6+3 0.765830 0.160660 0.268180 1.082100
Cr2   Cr    Cr6+3 0.384070 0.324050 0.751550 1.040057
Cr3   Cr    Cr6+3 0.115930 0.824050 0.248450 1.042019
Cr4   Cr    Cr6+3 0.884070 0.824050 0.751550 1.044551
Cr5   Cr    Cr6+3 0.234170 0.160660 0.731820 1.082554
Cr6   Cr    Cr6+3 0.265830 0.660660 0.268180 1.110127
Cr7   Cr    Cr6+3 0.734170 0.660660 0.731820 1.110022
Cr8   Cr    Cr6+3 0.612110 0.009150 0.248770 1.050858
Cr9   Cr    Cr6+3 0.387890 0.009150 0.751230 1.072482
Cr10  Cr    Cr6+3 0.112110 0.509150 0.248770 1.066592
Cr11  Cr    Cr6+3 0.887890 0.509150 0.751230 1.053410
Cr12  Cr    Cr6+3 0.615930 0.324050 0.248450 1.033307
H1    H     H_    0.653821 0.338197 0.471526 0.105591
H2    H     H_    0.679285 0.143802 0.488469 0.096541
H3    H     H_    0.869719 0.561799 0.515389 0.122421
H4    H     H_    0.130150 0.564226 0.484368 0.121749
H5    H     H_    0.768199 0.268484 0.572513 0.146145
H6    H     H_    0.231804 0.268600 0.427738 0.143627
H7    H     H_    0.341390 0.790109 0.556021 0.121916
H8    H     H_    0.658582 0.791363 0.444080 0.121670
H9    H     H_    0.625832 0.227686 0.010271 0.126716
H10   H     H_    0.381861 0.119605 0.989971 0.116549
H11   H     H_    0.090271 0.828127 0.016984 0.148241
H12   H     H_    0.346012 0.336325 0.528782 0.103811
H13   H     H_    0.907842 0.517622 0.983232 0.148881
H14   H     H_    0.514945 0.380540 0.952325 0.155073
H15   H     H_    0.442566 0.322742 0.063594 0.156831
H16   H     H_    0.949192 0.878578 0.970850 0.150644
H17   H     H_    0.912385 0.721966 0.076449 0.147031
H18   H     H_    0.608109 0.600905 0.473381 0.095988
H19   H     H_    0.391536 0.598287 0.526666 0.096768
H20   H     H_    0.095906 0.999700 0.528098 0.094756
H21   H     H_    0.904062 0.995941 0.472107 0.095864
H22   H     H_    0.886022 0.213418 0.496787 0.075776
H23   H     H_    0.206761 0.745850 0.474004 0.099782
H24   H     H_    0.113580 0.216337 0.503089 0.076352
H25   H     H_    0.432911 0.892642 0.464901 0.101477
H26   H     H_    0.566750 0.896783 0.534669 0.099249
H27   H     H_    0.537538 0.881159 0.073847 0.114111
H28   H     H_    0.575912 0.904074 0.938731 0.091773
H29   H     H_    0.107154 0.421245 0.043657 0.110801
H30   H     H_    0.091406 0.535095 0.879874 0.130550
H31   H     H_    0.793191 0.744695 0.526257 0.098580
H32   H     H_    0.754201 0.628660 0.418369 0.149055
H33   H     H_    0.245457 0.628693 0.581372 0.152465
H34   H     H_    0.182316 0.090441 0.431547 0.104321
H35   H     H_    0.817359 0.089034 0.568175 0.105109
H36   H     H_    0.320556 0.142770 0.510995 0.096504
O1    O     O_R   0.783230 0.287800 0.346510 -0.488369
O2    O     O_R   0.454570 0.285140 0.836900 -0.488838
O3    O     O_R   0.045430 0.785140 0.163100 -0.491244
O4    O     O_R   0.954570 0.785140 0.836900 -0.475843
O5    O     O_R   0.677850 0.374730 0.185500 -0.512013
O6    O     O_R   0.322150 0.374730 0.814500 -0.506136
O7    O     O_R   0.177850 0.874730 0.185500 -0.516288
O8    O     O_R   0.822150 0.874730 0.814500 -0.517091
O9    O     O_3   0.664630 0.164620 0.255130 -0.328630
O10   O     O_3   0.335370 0.164620 0.744870 -0.353979
O11   O     O_3   0.164630 0.664620 0.255130 -0.333201
O12   O     O_R   0.216770 0.287800 0.653490 -0.488370
O13   O     O_3   0.835370 0.664620 0.744870 -0.355027
O14   O     O_R   0.760130 0.037060 0.338610 -0.460370
O15   O     O_R   0.239870 0.037060 0.661390 -0.451919
O16   O     O_R   0.260130 0.537060 0.338610 -0.435754
O17   O     O_R   0.739870 0.537060 0.661390 -0.426160
O18   O     O_R   0.666620 0.921370 0.332440 -0.512865
O19   O     O_R   0.333380 0.921370 0.667560 -0.506882
O20   O     O_R   0.166620 0.421370 0.332440 -0.514159
O21   O     O_R   0.833380 0.421370 0.667560 -0.507454
O22   O     O_R   0.557170 0.082420 0.312350 -0.470540
O23   O     O_R   0.283230 0.787800 0.346510 -0.452410
O24   O     O_R   0.442830 0.082420 0.687650 -0.466286
O25   O     O_R   0.057170 0.582420 0.312350 -0.480605
O26   O     O_R   0.942830 0.582420 0.687650 -0.481723
O27   O     O_R   0.548310 0.285980 0.316250 -0.480655
O28   O     O_R   0.451690 0.285980 0.683750 -0.473106
O29   O     O_R   0.048310 0.785980 0.316250 -0.475984
O30   O     O_R   0.951690 0.785980 0.683750 -0.468421
O31   O     O_R   0.680520 0.375500 0.327470 -0.526717
O32   O     O_R   0.319480 0.375500 0.672530 -0.523906
O33   O     O_R   0.180520 0.875500 0.327470 -0.531413
O34   O     O_R   0.716770 0.787800 0.653490 -0.450236
O35   O     O_R   0.819480 0.875500 0.672530 -0.529367
O36   O     O_R   0.780350 0.286970 0.193350 -0.487066
O37   O     O_R   0.219650 0.286970 0.806650 -0.506349
O38   O     O_R   0.280350 0.786970 0.193350 -0.477052
O39   O     O_R   0.719650 0.786970 0.806650 -0.491177
O40   O     O_R   0.757460 0.036290 0.196640 -0.477605
O41   O     O_R   0.242540 0.036290 0.803360 -0.461669
O42   O     O_R   0.257460 0.536290 0.196640 -0.483215
O43   O     O_R   0.742540 0.536290 0.803360 -0.471782
O44   O     O_R   0.663740 0.920540 0.179290 -0.524377
O45   O     O_R   0.554500 0.081650 0.170370 -0.485461
O46   O     O_R   0.336260 0.920540 0.820710 -0.479374
O47   O     O_R   0.163740 0.420540 0.179290 -0.510684
O48   O     O_R   0.836260 0.420540 0.820710 -0.481985
O49   O     O_2   0.634550 0.620965 0.574711 -0.461232
O50   O     O_2   0.365298 0.618688 0.425282 -0.462747
O51   O     O_2   0.129441 0.865024 0.593921 -0.467627
O52   O     O_2   0.870371 0.862800 0.405877 -0.477383
O53   O     O_2   0.915552 0.337791 0.431565 -0.465832
O54   O     O_2   0.084374 0.340777 0.568696 -0.465281
O55   O     O_2   0.394343 0.001734 0.386647 -0.479395
O56   O     O_R   0.445500 0.081650 0.829630 -0.474707
O57   O     O_2   0.605802 0.002471 0.613825 -0.466131
O58   O     O_2   0.435481 0.886530 0.055667 -0.489042
O59   O     O_2   0.603345 0.037009 0.877262 -0.451745
O60   O     O_2   0.014302 0.347012 0.031731 -0.480205
O61   O     O_2   0.148533 0.680782 0.911870 -0.488236
O62   O     O_R   0.054500 0.581650 0.170370 -0.474922
O63   O     O_R   0.945500 0.581650 0.829630 -0.505854
O64   O     O_R   0.545430 0.285140 0.163100 -0.494727

loop_
_geom_bond_atom_site_label_1
_geom_bond_atom_site_label_2
_ccdc_geom_bond_type
C84   O45   A    
C61   C70   T    
C50   O28   A    
C40   H9    S    
C39   H17   S    
C76   C104  S    
C76   H23   S    
Cr8   O22   S    
C87   H31   S    
Cr2   O10   S    
C1    O14   A    
Cr10  O47   S    
C3    H21   S    
C59   C82   S    
Cr7   O13   S    
C2    C65   S    
Cr1   O1    S    
Cr5   O12   S    
C13   C79   S    
Cr8   O45   S    
Cr2   O6    S    
C27   C54   S    
C48   C57   S    
Cr5   O15   S    
C29   C76   S    
C9    O59   D    
C77   O12   A    
C15   C19   S    
C22   C35   S    
C32   O20   A    
Cr2   O32   S    
C7    C26   S    
C31   C43   S    
C62   C67   S    
C90   O6    A    
C37   C41   S    
C35   C105  S    
C3    O52   D    
C36   C37   S    
C9    H28   S    
C52   O26   A    
C82   O42   A    
C8    O58   D    
Cr12  O31   S    
C10   H29   S    
C4    H22   S    
C41   H10   S    
Cr8   O44   S    
C14   C102  S    
C6    C25   S    
C20   C25   S    
C61   C80   S    
C66   C74   T    
C96   C100  T    
Cr10  O11   S    
C56   C57   S    
Cr1   O40   S    
C86   O62   A    
C74   C92   S    
Cr3   O3    S    
C41   C46   S    
C107  O50   D    
Cr7   O39   S    
C84   O64   A    
C5    O54   D    
C75   O1    A    
C49   O27   A    
Cr7   O34   S    
C16   C104  S    
C12   C16   S    
C21   O19   A    
C79   O34   A    
C12   C78   S    
C46   C55   S    
Cr10  O62   S    
C64   C73   T    
C48   C88   S    
C36   C46   S    
C42   H11   S    
C9    C55   S    
C23   C27   S    
C49   C94   S    
Cr6   O38   S    
C86   O3    A    
C11   O61   D    
C2    C24   S    
C38   C48   S    
Cr2   O2    S    
Cr9   O24   S    
Cr12  O64   S    
C18   H3    S    
C7    H26   S    
C20   C34   S    
C92   O39   A    
C5    C24   S    
C32   O16   A    
Cr2   O28   S    
C19   H4    S    
C79   O35   A    
Cr11  O63   S    
C52   C95   S    
C91   O7    A    
C78   O33   A    
C52   O30   A    
C106  O49   D    
C108  O51   D    
C80   O40   A    
C42   C57   S    
C89   O5    A    
C97   C99   S    
C28   H6    S    
Cr12  O9    S    
C14   C98   S    
C53   C55   S    
C25   C29   S    
C40   C45   S    
Cr4   O8    S    
C30   H8    S    
C1    O18   A    
Cr3   O29   S    
C27   C31   S    
C78   O23   A    
C47   C86   S    
C36   C40   S    
C71   C89   S    
Cr3   O7    S    
C73   C91   S    
C19   C33   S    
Cr5   O10   S    
C108  H20   S    
C91   O38   A    
C5    H24   S    
C6    O55   D    
C94   C97   T    
C21   O15   A    
Cr7   O43   S    
C29   C34   S    
C75   C98   S    
C3    C105  S    
C4    O53   D    
C18   C23   S    
Cr11  O26   S    
C38   C39   S    
C50   O24   A    
C31   C102  S    
C51   O29   A    
C17   C105  S    
C59   C68   T    
C72   C90   S    
C60   C81   S    
C44   C56   S    
C11   H30   S    
Cr4   O13   S    
C87   C105  S    
Cr9   O10   S    
C16   C20   S    
C40   C55   S    
C13   C87   S    
C37   H15   S    
C81   O41   A    
C10   O60   D    
C64   C69   S    
C2    C15   S    
C41   C53   S    
C7    O57   D    
C22   C26   S    
Cr1   O9    S    
Cr12  O5    S    
Cr11  O13   S    
C30   C35   S    
C54   H1    S    
C28   C33   S    
C26   C30   S    
C38   H16   S    
C29   H7    S    
C16   H34   S    
Cr8   O9    S    
C45   C84   S    
Cr3   O11   S    
C85   O2    A    
C65   C103  S    
C39   C44   S    
C83   O43   A    
Cr9   O46   S    
C17   H35   S    
C85   O56   A    
C104  C108  S    
C65   H12   S    
C10   C56   S    
Cr1   O14   S    
C1    C35   S    
C39   C47   S    
C49   O22   A    
Cr10  O25   S    
C44   H13   S    
C6    H25   S    
C93   C99   T    
C63   C68   S    
C43   O21   A    
C20   H36   S    
C33   C103  S    
Cr5   O37   S    
C14   C18   S    
C54   C102  S    
Cr9   O56   S    
C75   O31   A    
Cr11  O48   S    
C24   C28   S    
C83   O48   A    
C51   O25   A    
Cr6   O11   S    
C36   H14   S    
C8    C53   S    
Cr6   O16   S    
C50   C93   S    
Cr3   O33   S    
C81   O46   A    
C21   C34   S    
C13   C17   S    
Cr11  O21   S    
C51   C96   S    
Cr9   O19   S    
C95   C101  T    
C17   C22   S    
C88   O63   A    
Cr8   O18   S    
C12   C25   S    
C32   C33   S    
C46   C85   S    
C12   C76   S    
C19   C24   S    
C30   C87   S    
Cr7   O17   S    
C2    C77   S    
C11   C57   S    
C58   C83   S    
Cr4   O35   S    
Cr4   O30   S    
C43   O17   A    
C92   O8    A    
C66   C70   S    
C90   O37   A    
C60   C69   T    
C27   H5    S    
C100  C101  S    
C89   O36   A    
C62   C71   T    
C28   C65   S    
C42   C47   S    
C88   O4    A    
C107  H19   S    
C13   C26   S    
Cr12  O27   S    
C34   C104  S    
C15   H33   S    
C106  H18   S    
C45   C53   S    
C8    H27   S    
C38   C42   S    
Cr4   O4    S    
C58   C67   T    
C23   C98   S    
C63   C72   T    
Cr6   O23   S    
Cr6   O42   S    
C102  C106  S    
C14   H32   S    
C77   O32   A    
Cr5   O41   S    
C54   C98   S    
C22   H2    S    
C103  C107  S    
C18   C31   S    
Cr1   O36   S    
C15   C103  S    
C4    C23   S    
C82   O47   A    
C37   C45   S    
Cr10  O20   S    
C44   C48   S    
C47   C56   S    
C80   O44   A    
