data_mof_unit_11750.cif
_audit_creation_date              2012-12-10T16:48:48-0500
_audit_creation_method            fapswitch 2.2
_symmetry_space_group_name_H-M    P1
_symmetry_Int_Tables_number       1
_space_group_crystal_system       triclinic
_cell_length_a                    17.332932
_cell_length_b                    8.662898
_cell_length_c                    7.421161
_cell_angle_alpha                 102.823309
_cell_angle_beta                  89.166591
_cell_angle_gamma                 92.342131
_cell_volume                      1085.59599902

loop_
_atom_site_label
_atom_site_type_symbol
_atom_type_description
_atom_site_fract_x
_atom_site_fract_y
_atom_site_fract_z
_atom_type_partial_charge
C1    C     C_R   0.498970 0.199880 0.453520 0.876408
C2    C     C_R   0.501050 0.800122 0.546474 0.876413
C3    C     C_2   0.500629 0.032249 0.427072 -0.399323
C4    C     C_2   0.499426 0.967755 0.572917 -0.399669
C5    C     C_R   0.351445 0.504165 0.528143 0.803046
C6    C     C_R   0.648553 0.495853 0.471861 0.803032
C7    C     C_R   0.267762 0.509486 0.548158 -0.139555
C8    C     C_R   0.732234 0.490554 0.451865 -0.139401
C9    C     C_R   0.223300 0.416192 0.405790 -0.225628
C10   C     C_R   0.776684 0.584074 0.594092 -0.225546
C11   C     C_R   0.144249 0.430098 0.403980 -0.230459
C12   C     C_R   0.855732 0.570138 0.596032 -0.230440
C13   C     C_R   0.107583 0.535031 0.547430 0.070246
C14   C     C_R   0.892404 0.464927 0.452853 0.070165
C15   C     C_R   0.150921 0.624481 0.696646 0.484675
C16   C     C_R   0.849071 0.375199 0.303804 0.484616
C17   C     C_R   0.231693 0.614505 0.695221 -0.129695
C18   C     C_R   0.768305 0.385246 0.305088 -0.129766
C19   C     C_2   0.024830 0.559531 0.536390 -0.227340
C20   C     C_2   0.975163 0.440467 0.463946 -0.227173
Cu1   Cu    Cu3+1 0.508700 0.517250 0.683000 0.939951
Cu2   Cu    Cu3+1 0.491300 0.482750 0.317000 0.940075
H1    H     H_    0.250249 0.335916 0.291376 0.165125
H2    H     H_    0.749725 0.664547 0.708312 0.165055
H3    H     H_    0.995495 0.322334 0.408518 0.194445
H4    H     H_    0.004520 0.677678 0.591827 0.194257
H5    H     H_    0.887493 0.637196 0.714247 0.158138
H6    H     H_    0.112472 0.363245 0.285674 0.158129
H7    H     H_    0.502595 0.961512 0.286386 0.185424
H8    H     H_    0.497463 0.038493 0.713602 0.185298
H9    H     H_    0.439425 0.381011 0.958815 0.218527
H10   H     H_    0.560575 0.618988 0.041184 0.218493
N1    N     N_2   0.478180 0.456750 0.041980 -0.213115
N2    N     N_2   0.521820 0.543250 0.958020 -0.213167
O1    O     O_R   0.505650 0.286040 0.618880 -0.585288
O2    O     O_R   0.494350 0.713960 0.381120 -0.585101
O3    O     O_R   0.490960 0.256910 0.309800 -0.586181
O4    O     O_R   0.509040 0.743090 0.690200 -0.586244
O5    O     O_R   0.394600 0.516230 0.672450 -0.583635
O6    O     O_R   0.605400 0.483770 0.327550 -0.583714
O7    O     O_R   0.379910 0.487100 0.363380 -0.594354
O8    O     O_R   0.620090 0.512900 0.636620 -0.594492
C21   C     C_R   0.723323 0.272153 0.163095 0.174838
C22   C     C_R   0.696867 0.126444 0.198607 -0.118615
C23   C     C_R   0.662925 0.010540 0.057638 -0.131091
C24   C     C_R   0.655437 0.039624 0.881052 -0.128488
C25   C     C_R   0.679287 0.186480 0.846410 -0.108664
C26   C     C_R   0.713188 0.302847 0.987150 -0.085458
H11   H     H_    0.704522 0.101225 0.333687 0.107463
H12   H     H_    0.643919 0.897052 0.084220 0.120638
H13   H     H_    0.632037 0.947598 0.770677 0.138156
H14   H     H_    0.672868 0.208934 0.709708 0.137090
H15   H     H_    0.733054 0.415012 0.958058 0.113044
C27   C     C_R   0.276673 0.727422 0.837409 0.175037
C28   C     C_R   0.286350 0.696966 0.013629 -0.084886
C29   C     C_R   0.320209 0.813282 0.154489 -0.108250
C30   C     C_R   0.344469 0.959861 0.119706 -0.128354
C31   C     C_R   0.337450 0.988682 0.942870 -0.130884
C32   C     C_R   0.303557 0.872821 0.801773 -0.118779
H16   H     H_    0.266166 0.585034 0.042827 0.112974
H17   H     H_    0.326275 0.791018 0.291381 0.136611
H18   H     H_    0.367824 0.051878 0.230158 0.137995
H19   H     H_    0.356776 0.101951 0.916182 0.120691
H20   H     H_    0.296255 0.897868 0.666488 0.107077
O9    O     O_3   0.115849 0.733956 0.834995 -0.581977
C33   C     C_3   0.082253 0.654054 0.964638 -0.333262
H21   H     H_    0.031451 0.578831 0.905065 0.157803
H22   H     H_    0.061642 0.743400 0.084935 0.204040
H23   H     H_    0.124468 0.581212 0.016954 0.153137
O10   O     O_3   0.884158 0.265435 0.165805 -0.582018
C34   C     C_3   0.917539 0.344898 0.035520 -0.333307
H24   H     H_    0.938736 0.255321 0.916182 0.204010
H25   H     H_    0.967917 0.421558 0.095034 0.157396
H26   H     H_    0.874987 0.416182 0.981849 0.153802

loop_
_geom_bond_atom_site_label_1
_geom_bond_atom_site_label_2
_ccdc_geom_bond_type
C22   H11   S    
C34   H26   S    
C2    C4    S    
C21   C22   A    
H9    N1    S    
C25   H14   S    
Cu1   O1    S    
C14   C20   S    
C6    O6    A    
Cu2   O2    S    
C21   C26   A    
C2    O4    A    
C33   H22   S    
C19   C20   D    
Cu1   O5    S    
C1    O3    A    
C17   C27   S    
C28   C29   A    
Cu2   O6    S    
C33   H23   S    
C13   C15   A    
N1    N2    D    
C30   C31   A    
C34   H24   S    
C16   C18   A    
C24   C25   A    
Cu1   Cu2   S    
C29   C30   A    
C11   C13   A    
C9    C11   A    
C32   H20   S    
O10   C34   S    
C10   C12   A    
C23   H12   S    
C11   H6    S    
C8    C10   A    
C12   C14   A    
C33   H21   S    
C8    C18   A    
C5    C7    S    
C27   C32   A    
C5    O5    A    
C26   H15   S    
C14   C16   A    
Cu2   O7    S    
C7    C17   A    
C20   H3    S    
C13   C19   S    
C12   H5    S    
C2    O2    A    
Cu1   O8    S    
C15   O9    S    
C23   C24   A    
C34   H25   S    
C30   H18   S    
C3    H7    S    
C16   O10   S    
C22   C23   A    
C1    O1    A    
C15   C17   A    
O9    C33   S    
C6    O8    A    
C18   C21   S    
C31   H19   S    
C7    C9    A    
Cu2   N1    S    
C5    O7    A    
C29   H17   S    
C9    H1    S    
C6    C8    S    
Cu1   N2    S    
C27   C28   A    
C10   H2    S    
C31   C32   A    
C28   H16   S    
Cu2   O3    S    
C24   H13   S    
C4    H8    S    
Cu1   O4    S    
C25   C26   A    
H10   N2    S    
C1    C3    S    
C3    C4    D    
C19   H4    S    
