data_mof_unit_44033.cif
_audit_creation_date              2012-12-10T20:29:26-0500
_audit_creation_method            fapswitch 2.2
_symmetry_space_group_name_H-M    P1
_symmetry_Int_Tables_number       1
_space_group_crystal_system       triclinic
_cell_length_a                    19.082322
_cell_length_b                    18.375393
_cell_length_c                    19.074257
_cell_angle_alpha                 109.16772
_cell_angle_beta                  110.907864
_cell_angle_gamma                 108.367527
_cell_volume                      5144.78995989

loop_
_atom_site_label
_atom_site_type_symbol
_atom_type_description
_atom_site_fract_x
_atom_site_fract_y
_atom_site_fract_z
_atom_type_partial_charge
C1    C     C_R   0.381099 0.502205 0.380929 0.894625
C2    C     C_R   0.811382 0.184962 0.790573 -0.070475
C3    C     C_R   0.012171 0.744018 0.327671 -0.083164
C4    C     C_R   0.070857 0.851657 0.127029 0.640304
C5    C     C_R   0.779963 0.740706 0.777946 -0.236802
C6    C     C_R   0.070065 0.863643 0.058094 -0.153864
C7    C     C_R   0.002982 0.800766 0.973491 -0.185192
C8    C     C_R   0.936383 0.726195 0.957864 -0.064041
C9    C     C_R   0.935455 0.714860 0.026523 -0.108497
C10   C     C_R   0.003415 0.776886 0.111722 0.012981
C11   C     C_R   0.301554 0.295073 0.803271 0.503015
C12   C     C_R   0.219295 0.252931 0.790796 0.323250
C13   C     C_R   0.731271 0.164221 0.783145 -0.060522
C14   C     C_R   0.160654 0.284091 0.762442 -0.114775
C15   C     C_R   0.186172 0.353652 0.745232 -0.211806
C16   C     C_R   0.267996 0.394528 0.758559 -0.284632
C17   C     C_R   0.669123 0.166846 0.719121 -0.159642
C18   C     C_R   0.825836 0.817884 0.581605 0.421008
C19   C     C_R   0.686579 0.189121 0.661697 -0.190968
C20   C     C_R   0.766900 0.210254 0.668220 0.483670
C21   C     C_R   0.831273 0.210344 0.735175 0.014950
C22   C     C_R   0.813582 0.814613 0.502256 -0.244077
C23   C     C_R   0.734452 0.751290 0.423197 -0.079403
C24   C     C_R   0.673233 0.682181 0.420221 0.411274
C25   C     C_R   0.767430 0.808502 0.821727 0.514727
C26   C     C_R   0.683700 0.688551 0.499833 -0.214340
C27   C     C_R   0.756180 0.759916 0.580211 -0.077961
C28   C     C_R   0.657721 0.803249 0.333088 -0.137482
C29   C     C_R   0.634682 0.818039 0.263109 -0.181882
C30   C     C_R   0.663413 0.793759 0.206021 -0.278183
C31   C     C_R   0.618587 0.620963 0.499415 0.992261
C32   C     C_R   0.715436 0.754329 0.218348 0.376621
C33   C     C_R   0.739208 0.739824 0.289291 0.625947
C34   C     C_R   0.709902 0.763987 0.346649 0.033879
C35   C     C_R   0.450610 0.799959 0.529759 0.687945
C36   C     C_R   0.326343 0.366853 0.789811 0.223013
C37   C     C_R   0.396219 0.709717 0.470149 -0.210408
C38   C     C_R   0.391939 0.673039 0.390509 0.045037
C39   C     C_R   0.443268 0.728128 0.371705 -0.139069
C40   C     C_R   0.496874 0.818431 0.431044 -0.198764
C41   C     C_R   0.499780 0.854481 0.509540 -0.084666
C42   C     C_R   0.256062 0.579105 0.252836 -0.172527
C43   C     C_R   0.623034 0.502464 0.620032 1.001528
C44   C     C_R   0.184063 0.498076 0.186994 0.000334
C45   C     C_R   0.174926 0.419403 0.187773 0.111594
C46   C     C_R   0.241044 0.422871 0.252665 -0.183385
C47   C     C_R   0.073015 0.319624 0.820246 -0.112935
C48   C     C_R   0.313954 0.503874 0.317629 -0.080952
C49   C     C_R   0.320751 0.583624 0.320164 0.032154
C50   C     C_R   0.032956 0.290213 0.124174 -0.273066
C51   C     C_R   0.962514 0.208378 0.056012 0.448063
C52   C     C_R   0.961515 0.168631 0.979151 -0.377964
C53   C     C_R   0.030401 0.210015 0.970143 0.534719
C54   C     C_R   0.102596 0.291499 0.039106 0.352945
C55   C     C_R   0.379909 0.378959 0.499197 0.959214
C56   C     C_R   0.102536 0.332117 0.115871 -0.180042
C57   C     C_R   0.263478 0.549722 0.550052 0.685216
C58   C     C_R   0.994444 0.307452 0.813090 -0.176704
C59   C     C_R   0.273104 0.480643 0.559644 -0.075806
C60   C     C_R   0.232894 0.396995 0.486573 0.105295
C61   C     C_R   0.182373 0.383344 0.404142 -0.133892
C62   C     C_R   0.172076 0.452440 0.395088 -0.213925
C63   C     C_R   0.212864 0.535516 0.467833 -0.211296
C64   C     C_R   0.179661 0.262426 0.500254 0.422666
C65   C     C_R   0.186188 0.187881 0.500804 -0.284888
C66   C     C_R   0.256745 0.176328 0.502282 -0.194116
C67   C     C_R   0.747554 0.858800 0.784855 -0.276530
C68   C     C_R   0.321943 0.239230 0.502534 0.439712
C69   C     C_R   0.916832 0.229098 0.744640 -0.059969
C70   C     C_R   0.313464 0.311778 0.498292 -0.261288
C71   C     C_R   0.242775 0.323225 0.496559 -0.155036
C72   C     C_R   0.297540 0.091412 0.573911 0.049775
C73   C     C_R   0.300805 0.015001 0.568927 -0.107571
C74   C     C_R   0.266036 0.942121 0.488391 -0.158588
C75   C     C_R   0.226632 0.944921 0.412658 -0.094279
C76   C     C_R   0.222839 0.021034 0.417327 -0.090908
C77   C     C_R   0.259126 0.095004 0.497885 0.164040
C78   C     C_R   0.770352 0.496841 0.603201 0.629649
C79   C     C_R   0.741143 0.842953 0.705114 0.400733
C80   C     C_R   0.920592 0.167284 0.682135 0.735448
C81   C     C_R   0.830641 0.477679 0.589157 -0.009139
C82   C     C_R   0.886829 0.464619 0.646943 -0.105226
C83   C     C_R   0.882392 0.469628 0.719249 -0.127946
C84   C     C_R   0.820237 0.486745 0.733950 0.028245
C85   C     C_R   0.760119 0.496128 0.673299 -0.110259
C86   C     C_R   0.693489 0.505479 0.686257 -0.241122
C87   C     C_R   0.692487 0.512946 0.762233 0.364307
C88   C     C_R   0.753665 0.506443 0.821154 -0.278959
C89   C     C_R   0.816422 0.494184 0.807867 -0.126444
C90   C     C_R   0.000209 0.879240 0.380545 0.894610
C91   C     C_R   0.999386 0.183361 0.687415 -0.189943
C92   C     C_R   0.757081 0.776196 0.662411 0.092476
C93   C     C_R   0.880045 0.880393 0.501218 0.972189
C94   C     C_R   0.000203 0.120199 0.620001 1.001027
C95   C     C_R   0.119853 0.120973 0.500328 0.933243
C96   C     C_R   0.996894 0.378251 0.878222 0.878557
C97   C     C_R   0.119302 0.497979 0.118746 0.967814
C98   C     C_R   0.002865 0.620952 0.121770 0.940516
C99   C     C_R   0.881007 0.496537 0.876905 0.843186
C100  C     C_R   0.069571 0.760974 0.545744 -0.202689
C101  C     C_R   0.076618 0.777411 0.481746 -0.108026
C102  C     C_R   0.077161 0.257119 0.759347 0.099344
C103  C     C_R   0.005730 0.729785 0.397528 0.107397
C104  C     C_R   0.775714 0.725219 0.699459 -0.269220
C105  C     C_R   0.929141 0.663249 0.377200 -0.159996
C106  C     C_R   0.921227 0.644180 0.440083 0.230853
C107  C     C_R   0.992674 0.694495 0.526367 0.427985
C108  C     C_R   0.016629 0.682032 0.265455 0.396990
C109  C     C_R   0.008623 0.689659 0.191651 -0.224497
C110  C     C_R   0.005122 0.762830 0.184574 0.005613
C111  C     C_R   0.002831 0.824279 0.247963 -0.099881
C112  C     C_R   0.003772 0.813799 0.317163 -0.120796
F1    F     F_    0.790195 0.702799 0.303078 -0.655188
F2    F     F_    0.453269 0.835130 0.605860 -0.611229
F3    F     F_    0.025576 0.169914 0.893799 -0.598066
F4    F     F_    0.302933 0.630398 0.620553 -0.615996
F5    F     F_    0.727671 0.521839 0.550905 -0.641600
F6    F     F_    0.138571 0.911561 0.208175 -0.701855
F7    F     F_    0.359166 0.267795 0.831280 -0.550560
F8    F     F_    0.847415 0.091262 0.615828 -0.580100
H1    H     H_    0.644986 0.805694 0.151994 0.192218
H2    H     H_    0.907322 0.105322 0.925987 0.218723
H3    H     H_    0.205450 0.588987 0.460450 0.208438
H4    H     H_    0.311627 0.491865 0.623707 0.179365
H5    H     H_    0.150766 0.319303 0.347254 0.168326
H6    H     H_    0.132797 0.441930 0.331720 0.194144
H7    H     H_    0.325386 0.147948 0.636579 0.175287
H8    H     H_    0.330761 0.012482 0.627478 0.172686
H9    H     H_    0.269213 0.883267 0.484620 0.165357
H10   H     H_    0.199086 0.888083 0.350410 0.186723
H11   H     H_    0.192289 0.023049 0.358657 0.201410
H12   H     H_    0.540052 0.924783 0.554517 0.202798
H13   H     H_    0.834751 0.474642 0.533631 0.260313
H14   H     H_    0.788733 0.674679 0.668324 0.221993
H15   H     H_    0.934250 0.450941 0.635858 0.212799
H16   H     H_    0.926635 0.457691 0.762000 0.167948
H17   H     H_    0.754264 0.512763 0.879834 0.188318
H18   H     H_    0.125587 0.799036 0.610213 0.226626
H19   H     H_    0.137424 0.826931 0.497685 0.167585
H20   H     H_    0.876656 0.623901 0.310624 0.258679
H21   H     H_    0.999617 0.880462 0.243042 0.191976
H22   H     H_    0.793790 0.700284 0.804679 0.166197
H23   H     H_    0.354733 0.669348 0.484469 0.179979
H24   H     H_    0.122137 0.921116 0.070154 0.186221
H25   H     H_    0.002875 0.809442 0.920000 0.169666
H26   H     H_    0.885755 0.676848 0.892412 0.136010
H27   H     H_    0.882736 0.657093 0.013289 0.144267
H28   H     H_    0.142988 0.378649 0.724068 0.226667
H29   H     H_    0.286304 0.449482 0.746913 0.227023
H30   H     H_    0.131961 0.379956 0.872624 0.210144
H31   H     H_    0.858402 0.181458 0.839925 0.161820
H32   H     H_    0.717237 0.145543 0.826798 0.189380
H33   H     H_    0.606807 0.150327 0.713110 0.192508
H34   H     H_    0.438854 0.701792 0.309538 0.186822
H35   H     H_    0.636627 0.188541 0.611039 0.192787
H36   H     H_    0.635354 0.822686 0.377173 0.184343
H37   H     H_    0.594526 0.848455 0.253136 0.187993
H38   H     H_    0.707547 0.859895 0.984983 0.390339
H39   H     H_    0.665872 0.720208 0.028228 0.381681
H40   H     H_    0.750379 0.039117 0.984669 0.412426
H41   H     H_    0.330140 0.382394 0.108164 0.402524
H42   H     H_    0.843059 0.023415 0.770521 0.365120
H43   H     H_    0.059962 0.383248 0.533433 0.402533
H44   H     H_    0.474105 0.149361 0.529272 0.383659
H45   H     H_    0.534784 0.860892 0.415452 0.186165
H46   H     H_    0.675037 0.571275 0.923401 0.390981
H47   H     H_    0.079402 0.734566 0.748060 0.383464
H48   H     H_    0.872203 0.461445 0.374533 0.369783
H49   H     H_    0.048572 0.560255 0.380065 0.380337
H50   H     H_    0.481669 0.507480 0.952674 0.364317
H51   H     H_    0.105517 0.086541 0.834640 0.426985
H52   H     H_    0.950433 0.867893 0.786478 0.374800
H53   H     H_    0.756244 0.146686 0.461706 0.396280
H54   H     H_    0.444101 0.533066 0.259522 0.389339
H55   H     H_    0.260727 0.639556 0.252883 0.168464
H56   H     H_    0.236121 0.362123 0.251978 0.169290
H57   H     H_    0.738476 0.911645 0.819284 0.228170
H58   H     H_    0.033418 0.321483 0.183466 0.203820
O1    O     O_R   0.408360 0.551710 0.460090 -0.655877
O2    O     O_R   0.948270 0.356620 0.908410 -0.649143
O3    O     O_R   0.143330 0.551680 0.091590 -0.605879
O4    O     O_R   0.408390 0.448280 0.356670 -0.587979
O5    O     O_R   0.039890 0.448260 0.091620 -0.593715
O6    O     O_R   0.051700 0.643310 0.091570 -0.633279
O7    O     O_R   0.948260 0.539890 0.091600 -0.538683
O8    O     O_R   0.960080 0.551670 0.908360 -0.636894
O9    O     O_R   0.856640 0.448250 0.908390 -0.604965
O10   O     O_R   0.591600 0.643340 0.551710 -0.649519
O11   O     O_R   0.591630 0.539900 0.448290 -0.498467
O12   O     O_R   0.948280 0.908380 0.356650 -0.600928
O13   O     O_R   0.591610 0.551720 0.643330 -0.579290
O14   O     O_R   0.591640 0.448290 0.539910 -0.534806
O15   O     O_R   0.408370 0.460100 0.551710 -0.616552
O16   O     O_R   0.408400 0.356660 0.448290 -0.574059
O17   O     O_R   0.051730 0.908360 0.460070 -0.653598
O18   O     O_2   0.787292 0.764532 0.946407 -0.284729
O19   O     O_2   0.860407 0.921667 0.990832 -0.245901
O20   O     O_3   0.694976 0.842360 0.925065 -0.510406
O21   O     O_2   0.817504 0.805580 0.158683 -0.308337
O22   O     O_2   0.784001 0.662641 0.152240 -0.202010
O23   O     O_R   0.960110 0.908350 0.551690 -0.553862
O24   O     O_3   0.663989 0.672972 0.042955 -0.502784
O25   O     O_2   0.904716 0.123547 0.129361 -0.230511
O26   O     O_2   0.849222 0.221206 0.103105 -0.250011
O27   O     O_3   0.792144 0.070004 0.971167 -0.547615
O28   O     O_2   0.182823 0.284868 0.947737 -0.203023
O29   O     O_2   0.213458 0.430349 0.044170 -0.364353
O30   O     O_3   0.280216 0.350032 0.111712 -0.522633
O31   O     O_2   0.676323 0.867005 0.568663 -0.303960
O32   O     O_2   0.661861 0.939093 0.691918 -0.292254
O33   O     O_3   0.811773 0.004120 0.708182 -0.437226
O34   O     O_R   0.856660 0.908370 0.448270 -0.643742
O35   O     O_2   0.017022 0.226763 0.409870 -0.240941
O36   O     O_2   0.064611 0.245311 0.554787 -0.336000
O37   O     O_3   0.114864 0.384580 0.542336 -0.565253
O38   O     O_2   0.398693 0.193246 0.415640 -0.265858
O39   O     O_2   0.493770 0.313897 0.565507 -0.279886
O40   O     O_3   0.428002 0.155659 0.538575 -0.553787
O41   O     O_2   0.625590 0.617107 0.806185 -0.236216
O42   O     O_2   0.526785 0.458610 0.709675 -0.185928
O43   O     O_3   0.624963 0.514862 0.872791 -0.410182
O44   O     O_2   0.918267 0.672367 0.619602 -0.285227
O45   O     O_R   0.051720 0.091580 0.643310 -0.561183
O46   O     O_2   0.989427 0.585242 0.589677 -0.312437
O47   O     O_3   0.084577 0.751329 0.705074 -0.519329
O48   O     O_2   0.786768 0.576798 0.459354 -0.184791
O49   O     O_2   0.758716 0.519267 0.312063 -0.187090
O50   O     O_3   0.843434 0.470208 0.408275 -0.505834
O51   O     O_2   0.954727 0.510982 0.223589 -0.261141
O52   O     O_2   0.102879 0.592276 0.259138 -0.359822
O53   O     O_3   0.074890 0.618600 0.384408 -0.579425
O54   O     O_2   0.452679 0.360754 0.766695 -0.153172
O55   O     O_2   0.444999 0.498424 0.796563 -0.240323
O56   O     O_R   0.948270 0.091600 0.539890 -0.553809
O57   O     O_3   0.498108 0.466272 0.923360 -0.385528
O58   O     O_2   0.198946 0.091077 0.749618 -0.269530
O59   O     O_2   0.269381 0.196792 0.902786 -0.180965
O60   O     O_3   0.103915 0.125584 0.809248 -0.412070
O61   O     O_2   0.995835 0.879580 0.680925 -0.255909
O62   O     O_2   0.945880 0.987701 0.690380 -0.205640
O63   O     O_3   0.924905 0.904066 0.772202 -0.558423
O64   O     O_2   0.730048 0.272998 0.559258 -0.300480
O65   O     O_2   0.873856 0.287145 0.620653 -0.361824
O66   O     O_3   0.742758 0.131758 0.502380 -0.474125
O67   O     O_R   0.143340 0.091590 0.551680 -0.652631
O68   O     O_2   0.573825 0.601608 0.241008 -0.290610
O69   O     O_2   0.588232 0.507871 0.303452 -0.163473
O70   O     O_3   0.491722 0.576980 0.319776 -0.618827
O71   O     O_R   0.039890 0.091610 0.448270 -0.550650
O72   O     O_R   0.051710 0.460040 0.908380 -0.615309
S1    S     S_3+6 0.780126 0.834271 0.924488 0.072916
S2    S     S_3+6 0.823889 0.552071 0.403972 0.124561
S3    S     S_3+6 0.036748 0.598206 0.281819 0.004076
S4    S     S_3+6 0.432533 0.424651 0.817098 0.164441
S5    S     S_3+6 0.198400 0.164714 0.813799 0.162653
S6    S     S_3+6 0.925095 0.898566 0.682454 0.081685
S7    S     S_3+6 0.780664 0.229614 0.587784 0.025553
S8    S     S_3+6 0.581751 0.590344 0.317520 0.074362
S9    S     S_3+6 0.748904 0.723846 0.143542 0.080494
S10   S     S_3+6 0.875948 0.155957 0.067380 0.072300
S11   S     S_3+6 0.195140 0.340313 0.032882 0.047565
S12   S     S_3+6 0.719186 0.912565 0.665449 0.051254
S13   S     S_3+6 0.091478 0.278298 0.501394 0.034165
S14   S     S_3+6 0.412621 0.226372 0.505368 0.063095
S15   S     S_3+6 0.614821 0.526815 0.786591 0.136106
S16   S     S_3+6 0.993403 0.673156 0.610414 0.058969
Zn1   Zn    Zn3+2 0.499980 0.569070 0.569050 1.106278
Zn2   Zn    Zn3+2 0.500020 0.430930 0.430950 1.220065
Zn3   Zn    Zn3+2 0.069080 0.999960 0.569030 1.119893
Zn4   Zn    Zn3+2 0.930920 0.999990 0.430930 1.127490
Zn5   Zn    Zn3+2 0.069060 0.569020 0.999970 1.014778
Zn6   Zn    Zn3+2 0.930920 0.430910 0.000010 1.086971

loop_
_geom_bond_atom_site_label_1
_geom_bond_atom_site_label_2
_ccdc_geom_bond_type
O32   S12   D    
C66   C68   A    
C87   C88   A    
C80   F8    S    
C40   C41   A    
C7    H25   S    
C108  S3    S    
C55   C70   S    
C19   H35   S    
C73   C74   A    
C105  C106  A    
C19   C20   A    
C25   C67   A    
C96   O72   A    
C51   S10   S    
O52   S3    D    
C17   H33   S    
C95   O71   A    
C99   O9    A    
C81   C82   A    
C101  H19   S    
C64   S13   S    
H54   O70   S    
C7    C8    A    
C38   C49   S    
C45   C46   A    
C57   C63   A    
O48   S2    D    
O26   S10   D    
C26   C27   A    
C29   C30   A    
C93   O34   A    
C104  H14   S    
C89   C99   S    
H53   O66   S    
C28   C29   A    
C50   H58   S    
C24   C26   A    
O45   Zn3   S    
C98   O7    A    
C42   H55   S    
O46   S16   D    
C38   C39   A    
O44   S16   D    
C76   H11   S    
C14   C102  S    
C47   C102  A    
H42   O33   S    
O19   S1    D    
C3    C103  S    
C15   C16   A    
C24   S8    S    
C2    H31   S    
O40   S14   S    
C108  C109  A    
O57   S4    S    
C35   F2    S    
O14   Zn2   S    
C64   C71   A    
C106  S2    S    
C82   H15   S    
C2    C13   A    
C58   C96   S    
C110  C111  A    
O7    Zn6   S    
H38   O20   S    
H40   O27   S    
C52   H2    S    
O20   S1    S    
O4    Zn2   S    
C90   O17   A    
C111  C112  A    
C45   C56   S    
C8    C9    A    
O33   S12   S    
C31   O10   A    
C23   C24   A    
C30   H1    S    
O11   Zn2   S    
C97   O5    A    
C16   H29   S    
C16   C36   A    
C90   C112  S    
C93   O23   A    
C9    C10   A    
C75   H10   S    
C20   S7    S    
C88   C89   A    
C5    C104  A    
C43   O13   A    
C26   C31   S    
C101  C103  A    
C12   S5    S    
O41   S15   D    
O6    Zn5   S    
C4    F6    S    
C42   C44   A    
O72   Zn5   S    
O12   Zn4   S    
O53   S3    S    
O42   S15   D    
O8    Zn5   S    
H46   O43   S    
C54   S11   S    
C40   H45   S    
O56   Zn4   S    
C57   F4    S    
C54   C56   A    
C22   C23   A    
O29   S11   D    
O28   S11   D    
C46   C48   A    
O62   S6    D    
O66   S7    S    
C74   C75   A    
C18   C27   A    
C72   H7    S    
C79   C92   A    
C51   C52   A    
O15   Zn1   S    
C99   O8    A    
O37   S13   S    
O36   S13   D    
O31   S12   D    
C78   F5    S    
O54   S4    D    
C84   C85   A    
O38   S14   D    
C4    C6    A    
C11   F7    S    
C67   H57   S    
C39   C40   A    
C62   H6    S    
C58   C69   A    
C111  H21   S    
C86   C87   A    
C94   O56   A    
H39   O24   S    
C29   H37   S    
O10   Zn1   S    
C60   C71   S    
C18   S6    S    
C53   C54   A    
O21   S9    D    
C9    H27   S    
O16   Zn2   S    
C50   C56   A    
O30   S11   S    
H49   O53   S    
C21   C69   S    
C60   C61   A    
O67   Zn3   S    
C75   C76   A    
C59   C60   A    
C37   C38   A    
O68   S8    D    
C41   H12   S    
C44   C97   S    
O51   S3    D    
C83   C84   A    
C47   H30   S    
O65   S7    D    
C3    C112  A    
C11   C12   A    
C23   C34   S    
O64   S7    D    
C2    C21   A    
C50   C51   A    
C83   H16   S    
H43   O37   S    
C27   C92   S    
C103  C105  A    
O63   S6    S    
O23   Zn3   S    
C52   C53   A    
C76   C77   A    
C81   H13   S    
C85   C86   A    
O2    Zn6   S    
C100  H18   S    
O55   S4    D    
C87   S15   S    
O70   S8    S    
C78   C85   A    
C48   C49   A    
C55   O15   A    
C12   C14   A    
H52   O63   S    
C82   C83   A    
C1    O1    A    
C94   O45   A    
C22   C93   S    
C46   H56   S    
C57   C59   A    
C84   C89   A    
C91   C102  A    
C6    H24   S    
O17   Zn3   S    
O47   S16   S    
C68   S14   S    
O69   S8    D    
O25   S10   D    
O22   S9    D    
C28   H36   S    
C90   O12   A    
H44   O40   S    
C59   H4    S    
C66   C77   S    
C11   C36   A    
C100  C107  A    
O5    Zn6   S    
C37   H23   S    
C35   C37   A    
C18   C22   A    
C43   C86   S    
O13   Zn1   S    
O71   Zn4   S    
O59   S5    D    
C32   S9    S    
C8    H26   S    
C44   C45   A    
C13   H32   S    
C72   C73   A    
C91   C94   S    
H48   O50   S    
C72   C77   A    
C63   H3    S    
C1    O4    A    
C1    C48   S    
C97   O3    A    
C6    C7    A    
H51   O60   S    
C3    C108  A    
C73   H8    S    
O34   Zn4   S    
H50   O57   S    
C31   O11   A    
C33   F1    S    
O9    Zn6   S    
C13   C17   A    
O60   S5    S    
C32   C33   A    
C96   O2    A    
C80   C91   A    
C109  C110  A    
C64   C65   A    
C47   C58   A    
C30   C32   A    
C25   S1    S    
C78   C81   A    
C5    H22   S    
C15   H28   S    
O18   S1    D    
C100  C101  A    
C17   C19   A    
C33   C34   A    
C10   C110  S    
C65   C66   A    
O58   S5    D    
C98   O6    A    
C61   C62   A    
C35   C41   A    
C36   S4    S    
C88   H17   S    
O43   S15   S    
C70   C71   A    
H47   O47   S    
C92   C104  A    
C42   C49   A    
C28   C34   A    
C39   H34   S    
O39   S14   D    
C65   C95   S    
C55   O16   A    
O50   S2    S    
C20   C21   A    
O35   S13   D    
C68   C70   A    
C43   O14   A    
C106  C107  A    
C74   H9    S    
O61   S6    D    
C98   C109  S    
C79   S12   S    
C14   C15   A    
C69   C80   A    
C61   H5    S    
H41   O30   S    
O3    Zn5   S    
C62   C63   A    
O24   S9    S    
C107  S16   S    
C4    C10   A    
O27   S10   S    
C67   C79   A    
C95   O67   A    
C53   F3    S    
O49   S2    D    
C105  H20   S    
C5    C25   A    
O1    Zn1   S    
