data_mof_unit_35719.cif
_audit_creation_date              2012-12-11T15:56:38-0500
_audit_creation_method            fapswitch 2.2
_symmetry_space_group_name_H-M    P1
_symmetry_Int_Tables_number       1
_space_group_crystal_system       triclinic
_cell_length_a                    17.458057
_cell_length_b                    24.460464
_cell_length_c                    14.939317
_cell_angle_alpha                 90.108769
_cell_angle_beta                  126.095041
_cell_angle_gamma                 89.776594
_cell_volume                      5154.91273368

loop_
_atom_site_label
_atom_site_type_symbol
_atom_type_description
_atom_site_fract_x
_atom_site_fract_y
_atom_site_fract_z
_atom_type_partial_charge
C1    C     C_R   0.308068 0.122659 0.907825 -0.105277
C2    C     C_R   0.553797 0.152210 0.907222 -0.115199
C3    C     C_R   0.815101 0.360419 0.001208 -0.024494
C4    C     C_R   0.566312 0.999911 0.368771 -0.002825
C5    C     C_R   0.066528 0.499892 0.368827 -0.000209
C6    C     C_R   0.192139 0.000702 0.635570 0.041285
C7    C     C_R   0.691496 0.500427 0.636564 0.043474
C8    C     C_R   0.521620 0.045665 0.754247 -0.143538
C9    C     C_R   0.521609 0.954080 0.754122 -0.141670
C10   C     C_R   0.020880 0.545658 0.753349 -0.118307
C11   C     C_R   0.021317 0.454048 0.753799 -0.149374
C12   C     C_R   0.769092 0.953576 0.248416 -0.132007
C13   C     C_R   0.053086 0.347572 0.907207 -0.114546
C14   C     C_R   0.769226 0.045698 0.247614 -0.142264
C15   C     C_R   0.269004 0.453427 0.248580 -0.128482
C16   C     C_R   0.269572 0.545496 0.248660 -0.134034
C17   C     C_2   0.516813 0.259759 0.789581 0.982227
C18   C     C_2   0.519505 0.742296 0.785086 0.959124
C19   C     C_2   0.130633 0.705397 0.794332 1.040745
C20   C     C_2   0.016358 0.240597 0.788112 0.982427
C21   C     C_2   0.809374 0.256980 0.896971 1.021447
C22   C     C_2   0.812504 0.742164 0.902428 0.998307
C23   C     C_2   0.388151 0.751415 0.009014 1.011665
C24   C     C_R   0.058491 0.650415 0.906863 -0.047019
C25   C     C_2   0.310243 0.241964 0.899929 1.023551
C26   C     C_R   0.552526 0.999794 0.728878 -0.005574
C27   C     C_R   0.051882 0.499757 0.728146 0.008168
C28   C     C_R   0.824140 0.999360 0.272771 0.030061
C29   C     C_R   0.324199 0.499108 0.273405 0.031569
C30   C     C_R   0.611990 0.184986 0.997558 0.052036
C31   C     C_R   0.610907 0.814655 0.997063 0.056043
C32   C     C_R   0.128831 0.678679 0.997288 0.038097
C33   C     C_R   0.307968 0.878417 0.906079 -0.106629
C34   C     C_R   0.110572 0.314532 0.997411 0.051922
C35   C     C_3   0.022132 0.966151 0.519165 -0.147330
C36   C     C_3   0.035164 0.051268 0.482963 -0.163760
C37   C     C_3   0.521712 0.465448 0.519775 -0.146070
C38   C     C_3   0.534487 0.550810 0.484422 -0.163996
C39   C     C_3   0.956968 0.016349 0.471560 -0.136168
C40   C     C_3   0.456356 0.515572 0.472440 -0.138046
C41   C     C_3   0.925508 0.999123 0.355702 0.180403
C42   C     C_3   0.425350 0.498721 0.356579 0.177987
C43   C     C_3   0.990298 0.948761 0.402811 -0.158768
C44   C     C_R   0.808046 0.622577 0.907697 -0.107924
C45   C     C_3   0.002715 0.034110 0.365813 -0.158072
C46   C     C_3   0.490281 0.448425 0.403377 -0.158880
C47   C     C_3   0.502496 0.534021 0.367287 -0.154120
C48   C     C_3   0.070071 0.983612 0.415359 -0.148391
C49   C     C_3   0.570018 0.483598 0.416536 -0.148333
C50   C     C_R   0.401095 0.876696 0.091884 -0.098609
C51   C     C_R   0.404056 0.125621 0.093649 -0.121119
C52   C     C_R   0.904836 0.373594 0.093681 -0.121487
C53   C     C_R   0.903848 0.625490 0.093528 -0.118307
C54   C     C_3   0.099945 0.000953 0.530323 0.180307
C55   C     C_R   0.808751 0.376470 0.907669 -0.105072
C56   C     C_3   0.599438 0.500574 0.531484 0.178868
C57   C     C_3   0.216804 0.826369 0.058043 -0.420724
C58   C     C_3   0.262680 0.183910 0.108342 -0.413522
C59   C     C_3   0.765577 0.314480 0.109283 -0.413047
C60   C     C_3   0.761003 0.683257 0.106909 -0.427525
C61   C     C_3   0.714812 0.263676 0.110414 -0.412819
C62   C     C_3   0.709946 0.734245 0.107929 -0.398270
C63   C     C_3   0.163400 0.775321 0.054603 -0.390616
C64   C     C_3   0.211990 0.235013 0.109610 -0.413121
C65   C     C_3   0.795374 0.260157 0.987995 -0.206457
C66   C     C_R   0.644819 0.153055 0.090488 -0.142488
C67   C     C_3   0.796160 0.738373 0.991508 -0.182881
C68   C     C_3   0.332768 0.765059 0.055288 -0.206509
C69   C     C_3   0.294850 0.238532 0.989789 -0.208090
C70   C     C_3   0.178652 0.798748 0.874486 -0.430124
C71   C     C_3   0.149575 0.174888 0.903188 -0.480533
C72   C     C_3   0.650813 0.324672 0.904457 -0.480447
C73   C     C_3   0.649727 0.675351 0.901536 -0.454846
C74   C     C_3   0.261021 0.814176 0.995763 0.273531
C75   C     C_3   0.255922 0.182720 0.999593 0.300166
C76   C     C_3   0.757398 0.316101 0.999667 0.299317
C77   C     C_R   0.644450 0.846692 0.090181 -0.097432
C78   C     C_3   0.755810 0.682612 0.999203 0.290017
C79   C     C_3   0.659003 0.234646 0.995529 0.265511
C80   C     C_3   0.657621 0.764729 0.994676 0.264680
C81   C     C_3   0.174605 0.727617 0.993853 0.281843
C82   C     C_3   0.157426 0.264611 0.995300 0.266074
C83   C     C_3   0.731161 0.213758 0.974736 -0.463392
C84   C     C_3   0.732695 0.785367 0.978871 -0.468543
C85   C     C_3   0.281589 0.714818 0.056464 -0.453234
C86   C     C_3   0.230609 0.285219 0.976320 -0.462319
C87   C     C_3   0.590632 0.279098 0.906672 -0.176372
C88   C     C_R   0.155477 0.649922 0.091143 -0.140738
C89   C     C_3   0.589468 0.721611 0.902324 -0.182091
C90   C     C_3   0.130104 0.746371 0.871420 -0.215176
C91   C     C_3   0.089198 0.220713 0.905182 -0.177468
C92   C     C_3   0.619620 0.050902 0.643878 -0.385815
C93   C     C_3   0.619173 0.948344 0.643161 -0.388522
C94   C     C_3   0.118976 0.550815 0.643364 -0.348723
C95   C     C_3   0.119026 0.448277 0.642997 -0.384952
C96   C     C_R   0.549375 0.045414 0.305242 -0.147721
C97   C     C_R   0.549346 0.954480 0.305042 -0.150905
C98   C     C_R   0.049465 0.545406 0.305273 -0.147843
C99   C     C_R   0.144137 0.346650 0.090345 -0.144496
C100  C     C_R   0.049475 0.454477 0.305075 -0.148594
C101  C     C_3   0.622848 0.051042 0.543149 -0.394570
C102  C     C_3   0.622305 0.948263 0.542373 -0.397930
C103  C     C_3   0.123021 0.550855 0.543270 -0.418129
C104  C     C_3   0.121990 0.448088 0.542088 -0.395022
C105  C     C_3   0.463301 0.000142 0.529843 -0.388067
C106  C     C_3   0.962937 0.499836 0.529204 -0.395062
C107  C     C_3   0.564913 0.999786 0.639652 0.371867
C108  C     C_3   0.064452 0.499639 0.639124 0.351038
C109  C     C_3   0.570994 0.999868 0.470083 0.383586
C110  C     C_R   0.553201 0.847697 0.907019 -0.149474
C111  C     C_3   0.070996 0.499792 0.469953 0.384177
C112  C     C_3   0.466971 0.000243 0.430774 -0.395110
C113  C     C_3   0.966876 0.500306 0.430346 -0.390553
C114  C     C_R   0.240900 0.954716 0.694734 -0.161454
C115  C     C_R   0.240480 0.046160 0.696229 -0.149060
C116  C     C_R   0.740340 0.454467 0.695722 -0.160960
C117  C     C_R   0.740121 0.546023 0.696477 -0.151307
C118  C     C_R   0.313877 0.138277 0.001270 -0.025366
C119  C     C_R   0.312914 0.862012 0.997919 -0.029273
C120  C     C_R   0.813653 0.638080 0.001041 -0.021091
H1    H     H_    0.250224 0.129391 0.822214 0.113732
H2    H     H_    0.991947 0.061628 0.300264 0.112724
H3    H     H_    0.685975 0.833438 0.175518 0.093395
H4    H     H_    0.200738 0.663836 0.176049 0.088646
H5    H     H_    0.185500 0.333443 0.175715 0.090747
H6    H     H_    0.509767 0.837778 0.820595 0.124072
H7    H     H_    0.511306 0.162346 0.820819 0.118427
H8    H     H_    0.010216 0.337556 0.820782 0.118539
H9    H     H_    0.010513 0.663919 0.822000 0.063169
H10   H     H_    0.909163 0.029688 0.493673 0.116802
H11   H     H_    0.408268 0.528590 0.494353 0.118179
H12   H     H_    0.377820 0.250478 0.666315 0.309203
H13   H     H_    0.470477 0.406574 0.367987 0.110419
H14   H     H_    0.382355 0.752779 0.656378 0.321424
H15   H     H_    0.084380 0.688736 0.637516 0.313039
H16   H     H_    0.877788 0.250565 0.663468 0.309134
H17   H     H_    0.750602 0.257396 0.733398 0.336611
H18   H     H_    0.756586 0.743139 0.739672 0.315908
H19   H     H_    0.387529 0.721870 0.882654 0.347404
H20   H     H_    0.253130 0.242165 0.736798 0.336526
H21   H     H_    0.491736 0.561776 0.302034 0.117631
H22   H     H_    0.119547 0.970363 0.395770 0.111169
H23   H     H_    0.619792 0.470666 0.397182 0.111642
H24   H     H_    0.272978 0.837499 0.145712 0.156967
H25   H     H_    0.337061 0.185604 0.183365 0.151015
H26   H     H_    0.840291 0.312048 0.183492 0.150974
H27   H     H_    0.835076 0.684652 0.182652 0.153210
H28   H     H_    0.167004 0.861648 0.019261 0.169618
H29   H     H_    0.250258 0.874125 0.819766 0.099514
H30   H     H_    0.230327 0.146415 0.114875 0.169177
H31   H     H_    0.734143 0.352141 0.117440 0.169424
H32   H     H_    0.728060 0.645667 0.112096 0.172885
H33   H     H_    0.087007 0.785378 0.011146 0.199025
H34   H     H_    0.162524 0.223354 0.130272 0.167360
H35   H     H_    0.666149 0.275590 0.132308 0.167398
H36   H     H_    0.659004 0.722303 0.126163 0.196153
H37   H     H_    0.769686 0.235816 0.176363 0.162278
H38   H     H_    0.764368 0.761085 0.176397 0.157445
H39   H     H_    0.191860 0.763396 0.140845 0.159252
H40   H     H_    0.750424 0.629369 0.822041 0.113603
H41   H     H_    0.266834 0.262371 0.176469 0.162063
H42   H     H_    0.866481 0.253230 0.067775 0.113323
H43   H     H_    0.866742 0.744107 0.072504 0.113134
H44   H     H_    0.385887 0.776423 0.143840 0.108437
H45   H     H_    0.365567 0.244926 0.070277 0.113930
H46   H     H_    0.776493 0.180782 0.034846 0.150244
H47   H     H_    0.778262 0.817186 0.041835 0.148254
H48   H     H_    0.312937 0.704258 0.144280 0.142895
H49   H     H_    0.275831 0.317846 0.037229 0.151457
H50   H     H_    0.205167 0.793246 0.823374 0.198528
H51   H     H_    0.751095 0.369705 0.821974 0.113406
H52   H     H_    0.139524 0.174096 0.822681 0.206591
H53   H     H_    0.639872 0.325791 0.823452 0.206062
H54   H     H_    0.640671 0.674376 0.821619 0.202297
H55   H     H_    0.429611 0.868328 0.177176 0.087202
H56   H     H_    0.435652 0.134172 0.179513 0.088899
H57   H     H_    0.936669 0.365031 0.179596 0.088713
H58   H     H_    0.935297 0.634120 0.179342 0.088308
H59   H     H_    0.125803 0.832675 0.835668 0.155194
H60   H     H_    0.124930 0.134449 0.910993 0.151399
H61   H     H_    0.626804 0.365187 0.913581 0.151562
H62   H     H_    0.031514 0.938502 0.583867 0.115728
H63   H     H_    0.623994 0.635122 0.908523 0.149893
H64   H     H_    0.054231 0.756561 0.831872 0.104905
H65   H     H_    0.048244 0.202122 0.932882 0.155986
H66   H     H_    0.550506 0.297800 0.935640 0.154581
H67   H     H_    0.546312 0.703251 0.927165 0.126041
H68   H     H_    0.692762 0.194698 0.891250 0.207550
H69   H     H_    0.696954 0.805868 0.897007 0.209428
H70   H     H_    0.293770 0.678125 0.022497 0.214468
H71   H     H_    0.193060 0.304644 0.893223 0.208024
H72   H     H_    0.584689 0.089366 0.641847 0.165911
H73   H     H_    0.054321 0.093356 0.517160 0.118235
H74   H     H_    0.583936 0.910105 0.640663 0.166875
H75   H     H_    0.083157 0.589039 0.640233 0.161344
H76   H     H_    0.084130 0.409975 0.640920 0.166971
H77   H     H_    0.692900 0.050887 0.721889 0.160803
H78   H     H_    0.692473 0.947861 0.721132 0.159579
H79   H     H_    0.191990 0.551203 0.721800 0.182427
H80   H     H_    0.192371 0.448027 0.720898 0.163403
H81   H     H_    0.697734 0.051452 0.571320 0.159653
H82   H     H_    0.697161 0.947276 0.570457 0.157737
H83   H     H_    0.198094 0.550989 0.572099 0.165625
H84   H     H_    0.531090 0.437568 0.584191 0.118746
H85   H     H_    0.196801 0.446870 0.570035 0.161137
H86   H     H_    0.588418 0.089307 0.495870 0.154775
H87   H     H_    0.587404 0.910277 0.494546 0.155158
H88   H     H_    0.089192 0.589222 0.496090 0.152250
H89   H     H_    0.086716 0.410178 0.494159 0.154952
H90   H     H_    0.423382 0.036908 0.525527 0.159070
H91   H     H_    0.423161 0.963570 0.524961 0.158474
H92   H     H_    0.922599 0.536398 0.524827 0.157002
H93   H     H_    0.923118 0.463057 0.524147 0.160817
H94   H     H_    0.562795 0.087585 0.331549 0.088886
H95   H     H_    0.553390 0.592831 0.519040 0.119408
H96   H     H_    0.562527 0.912216 0.330867 0.093123
H97   H     H_    0.062797 0.587585 0.331527 0.089852
H98   H     H_    0.062911 0.412244 0.331054 0.089083
H99   H     H_    0.429192 0.037123 0.379181 0.156965
H100  H     H_    0.428748 0.963724 0.378435 0.156499
H101  H     H_    0.929469 0.537383 0.379286 0.156754
H102  H     H_    0.928407 0.463986 0.377410 0.156669
H103  H     H_    0.226576 0.913131 0.664303 0.105983
H104  H     H_    0.226647 0.088027 0.667453 0.099322
H105  H     H_    0.725692 0.412758 0.665982 0.106550
H106  H     H_    0.970335 0.906829 0.367899 0.110344
H107  H     H_    0.726125 0.587817 0.667276 0.098826
H108  H     H_    0.527351 0.087920 0.738834 0.105837
H109  H     H_    0.527480 0.911767 0.738735 0.108163
H110  H     H_    0.025563 0.587880 0.736802 0.116370
H111  H     H_    0.027207 0.411720 0.738506 0.107818
H112  H     H_    0.791694 0.911323 0.263832 0.093719
H113  H     H_    0.792494 0.087751 0.262855 0.102372
H114  H     H_    0.291432 0.411142 0.263940 0.095577
H115  H     H_    0.293749 0.587322 0.265978 0.101308
H116  H     H_    0.686378 0.166200 0.175888 0.090883
N1    N     N_R   0.392450 0.103580 0.942190 -0.032772
N2    N     N_R   0.525490 0.971610 0.207550 -0.036439
N3    N     N_R   0.025490 0.528390 0.207550 -0.035419
N4    N     N_R   0.025490 0.471610 0.207550 -0.035142
N5    N     N_R   0.317450 0.971190 0.792000 -0.039739
N6    N     N_R   0.317450 0.028810 0.792000 -0.040321
N7    N     N_R   0.817450 0.471190 0.792000 -0.039401
N8    N     N_R   0.817450 0.528810 0.792000 -0.040613
N9    N     N_R   0.473900 0.028390 0.792280 -0.038895
N10   N     N_R   0.473900 0.971610 0.792280 -0.038333
N11   N     N_R   0.973900 0.528390 0.792280 -0.045084
N12   N     N_R   0.392450 0.896420 0.942190 -0.034689
N13   N     N_R   0.973900 0.471610 0.792280 -0.039809
N14   N     N_R   0.682310 0.971180 0.208170 -0.040969
N15   N     N_R   0.682310 0.028820 0.208170 -0.040558
N16   N     N_R   0.182310 0.471180 0.208170 -0.040775
N17   N     N_R   0.182310 0.528820 0.208170 -0.040830
N18   N     N_R   0.606470 0.103570 0.057210 -0.039896
N19   N     N_R   0.606470 0.896430 0.057210 -0.044469
N20   N     N_R   0.106470 0.603570 0.057210 -0.038514
N21   N     N_R   0.106470 0.396430 0.057210 -0.039543
N22   N     N_R   0.549740 0.896000 0.943240 -0.043252
N23   N     N_R   0.892450 0.603580 0.942190 -0.036642
N24   N     N_R   0.549740 0.104000 0.943240 -0.044113
N25   N     N_R   0.049740 0.396000 0.943240 -0.043428
N26   N     N_R   0.049740 0.604000 0.943240 -0.043395
N27   N     N_R   0.892450 0.396420 0.942190 -0.032655
N28   N     N_R   0.450490 0.896000 0.057360 -0.029094
N29   N     N_R   0.450490 0.104000 0.057360 -0.034297
N30   N     N_R   0.950490 0.396000 0.057360 -0.034527
N31   N     N_R   0.950490 0.604000 0.057360 -0.035484
N32   N     N_R   0.525490 0.028390 0.207550 -0.035640
Ni1   Ni    Ni4+2 0.433780 0.065390 0.868430 0.227358
Ni2   Ni    Ni4+2 0.433780 0.934610 0.868430 0.224531
Ni3   Ni    Ni4+2 0.933780 0.565390 0.868430 0.223106
Ni4   Ni    Ni4+2 0.933780 0.434610 0.868430 0.227944
Ni5   Ni    Ni4+2 0.565800 0.934190 0.131570 0.225078
Ni6   Ni    Ni4+2 0.565800 0.065810 0.131570 0.212236
Ni7   Ni    Ni4+2 0.065800 0.434190 0.131570 0.213831
Ni8   Ni    Ni4+2 0.065800 0.565810 0.131570 0.215655
O1    O     O_2   0.540433 0.240657 0.733408 -0.636298
O2    O     O_R   0.731557 0.259750 0.785604 -0.783489
O3    O     O_2   0.893199 0.747089 0.929194 -0.682255
O4    O     O_R   0.736005 0.740451 0.790353 -0.781650
O5    O     O_2   0.473943 0.758384 0.066522 -0.684655
O6    O     O_R   0.342251 0.730029 0.902375 -0.779922
O7    O     O_2   0.390622 0.247090 0.925835 -0.647491
O8    O     O_R   0.233208 0.239713 0.788132 -0.784266
O9    O     O_R   0.420748 0.264753 0.744995 -0.794329
O10   O     O_2   0.547247 0.762197 0.733865 -0.625555
O11   O     O_R   0.422323 0.737640 0.734570 -0.822109
O12   O     O_2   0.175610 0.662656 0.828896 -0.656038
O13   O     O_R   0.078321 0.717802 0.681451 -0.817798
O14   O     O_2   0.041048 0.259834 0.733278 -0.636918
O15   O     O_R   0.919981 0.235940 0.741976 -0.793804
O16   O     O_2   0.889340 0.251605 0.921554 -0.648862

loop_
_geom_bond_atom_site_label_1
_geom_bond_atom_site_label_2
_ccdc_geom_bond_type
N20   N26   A    
C29   C42   S    
C86   H49   S    
C8    C26   A    
C79   C87   S    
N18   Ni6   S    
C39   C41   S    
C32   C81   S    
C11   N13   A    
N21   N25   A    
C51   C118  A    
C96   H94   S    
N5    Ni2   S    
N1    N29   A    
N24   Ni1   S    
N25   Ni4   S    
N26   Ni3   S    
C4    C96   A    
C37   C56   S    
C24   H9    S    
C70   C74   S    
C114  H103  S    
C81   C85   S    
C80   C89   S    
N9    N10   A    
C41   C43   S    
C6    C54   S    
C61   H35   S    
C9    C26   A    
C31   C77   A    
C87   H66   S    
C68   H44   S    
C83   H46   S    
N21   Ni7   S    
C115  H104  S    
C63   H33   S    
C7    C116  A    
C14   N15   A    
C105  H90   S    
C78   C120  S    
C24   C32   A    
C16   N17   A    
C5    C100  A    
C11   C27   A    
N30   Ni7   S    
C34   C99   A    
C111  C113  S    
C72   H53   S    
C9    N10   A    
H15   O13   S    
C113  H101  S    
C81   C90   S    
C105  C112  S    
C8    N9    A    
C25   C69   S    
C23   O6    S    
C11   H111  S    
H18   O4    S    
C17   C87   S    
C18   C89   S    
N10   Ni2   S    
H16   O15   S    
C3    C52   A    
C18   O10   D    
C47   H21   S    
C20   O14   D    
N2    N32   A    
C33   H29   S    
C27   C108  S    
C51   N29   A    
C31   C110  A    
C70   H50   S    
C51   H56   S    
C22   C67   S    
C95   C108  S    
N32   Ni6   S    
C44   C120  A    
N20   Ni8   S    
C102  C109  S    
C101  H81   S    
C58   H30   S    
N16   N17   A    
N12   N28   A    
C10   C27   A    
C96   N32   A    
C79   C83   S    
C4    C109  S    
C95   H76   S    
C7    C117  A    
C93   H74   S    
C63   H39   S    
C88   H4    S    
C8    H108  S    
C105  C107  S    
C60   C78   S    
C60   C62   S    
C110  N22   A    
C37   C40   S    
C42   C46   S    
C73   H63   S    
C22   O4    S    
C70   H59   S    
C68   C74   S    
C32   C88   A    
C10   H110  S    
C33   N12   A    
C94   H79   S    
N7    Ni4   S    
C6    C114  A    
C3    C55   A    
C97   H96   S    
C25   O7    D    
N2    Ni5   S    
C35   C43   S    
C2    H7    S    
C40   C42   S    
C100  H98   S    
C4    C97   A    
C68   C85   S    
N13   Ni4   S    
H20   O8    S    
C57   C63   S    
C58   C64   S    
C6    C115  A    
C59   C61   S    
C106  C113  S    
N6    Ni1   S    
C16   H115  S    
C1    N1    A    
C53   N31   A    
C50   H55   S    
C71   H60   S    
H12   O9    S    
C112  H100  S    
C84   H69   S    
C21   O16   D    
C110  H6    S    
C30   C79   S    
C40   H11   S    
C83   H68   S    
C98   H97   S    
C72   C87   S    
N23   Ni3   S    
C41   C45   S    
C57   H24   S    
C36   C39   S    
C64   H41   S    
N17   Ni8   S    
C38   C56   S    
N4    Ni7   S    
C116  H105  S    
C2    C30   A    
C19   C90   S    
C106  C108  S    
C61   C79   S    
C19   O12   D    
C15   H114  S    
C37   H84   S    
C100  N4    A    
C1    H1    S    
C36   C54   S    
C101  H86   S    
C67   H43   S    
N12   Ni2   S    
C10   N11   A    
C34   C82   S    
C59   C76   S    
C14   H113  S    
C17   O1    D    
C89   H67   S    
C52   N30   A    
N3    N4    A    
C77   N19   A    
N15   Ni6   S    
C38   H95   S    
C80   C84   S    
C58   H25   S    
C31   C80   S    
C50   N28   A    
C46   C49   S    
C65   C76   S    
C12   C28   A    
C53   C120  A    
C72   H61   S    
C15   N16   A    
C99   N21   A    
C101  C109  S    
N7    N8    A    
C28   C41   S    
C12   N14   A    
C103  C111  S    
C60   H32   S    
C73   H54   S    
C66   N18   A    
C95   H80   S    
C62   H38   S    
C43   H106  S    
C23   O5    D    
C91   H65   S    
N19   N22   A    
C35   C54   S    
C20   O15   S    
C75   C118  S    
C7    C56   S    
C55   H51   S    
C15   C29   A    
N11   N13   A    
C20   C91   S    
N31   Ni8   S    
C94   H75   S    
C99   H5    S    
C18   O11   S    
N14   N15   A    
C82   C86   S    
C35   C39   S    
C97   N2    A    
C61   H37   S    
C115  N6    A    
N11   Ni3   S    
N18   N24   A    
H14   O11   S    
C92   C101  S    
C63   C81   S    
C94   C103  S    
C44   H40   S    
C45   C48   S    
C62   C80   S    
H19   O6    S    
C21   C65   S    
C93   C102  S    
C98   N3    A    
C45   H2    S    
N28   Ni5   S    
C105  H91   S    
C102  H82   S    
C73   C89   S    
C13   C34   A    
C84   H47   S    
C21   O2    S    
C46   H13   S    
C38   C40   S    
C49   H23   S    
C62   H36   S    
C69   C75   S    
N22   Ni2   S    
C113  H102  S    
N23   N31   A    
C82   C91   S    
C117  N8    A    
C71   C91   S    
C19   O13   S    
C57   H28   S    
C24   N26   A    
N1    Ni1   S    
C37   C46   S    
C92   H72   S    
C57   C74   S    
N27   N30   A    
C2    N24   A    
N8    Ni3   S    
C72   C76   S    
C53   H58   S    
C88   N20   A    
C35   H62   S    
C48   C54   S    
C74   C119  S    
C94   C108  S    
C86   H71   S    
N19   Ni5   S    
C55   N27   A    
N5    N6    A    
C65   C83   S    
C64   H34   S    
C9    H109  S    
N14   Ni5   S    
C36   H73   S    
C52   H57   S    
C13   H8    S    
C65   H42   S    
C73   C78   S    
C60   H27   S    
C43   C48   S    
C1    C118  A    
C116  N7    A    
C67   C84   S    
N3    Ni8   S    
C70   C90   S    
C67   C78   S    
C104  H89   S    
C58   C75   S    
C12   H112  S    
C69   H45   S    
H17   O2    S    
C50   C119  A    
C103  H88   S    
C109  C112  S    
C22   O3    D    
C5    C111  S    
C16   C29   A    
C104  H85   S    
C66   H116  S    
C23   C68   S    
N9    Ni1   S    
C17   O9    S    
C92   C107  S    
C106  H92   S    
C48   H22   S    
C36   C45   S    
C25   O8    S    
C3    C76   S    
C64   C82   S    
C38   C47   S    
C30   C66   A    
N27   Ni4   S    
C33   C119  A    
C92   H77   S    
C95   C104  S    
C102  H87   S    
C106  H93   S    
C117  H107  S    
C85   H48   S    
C90   H64   S    
C26   C107  S    
C104  C111  S    
C39   H10   S    
C59   H31   S    
C47   C49   S    
C49   C56   S    
C93   H78   S    
C93   C107  S    
C44   N23   A    
C71   C75   S    
C112  H99   S    
C42   C47   S    
N16   Ni7   S    
C103  H83   S    
C85   H70   S    
C59   H26   S    
N29   Ni6   S    
C114  N5    A    
C5    C98   A    
C71   H52   S    
C14   C28   A    
C13   N25   A    
C69   C86   S    
C77   H3    S    
