data_mof_unit_31028.cif
_audit_creation_date              2012-12-10T16:55:45-0500
_audit_creation_method            fapswitch 2.2
_symmetry_space_group_name_H-M    P1
_symmetry_Int_Tables_number       1
_space_group_crystal_system       triclinic
_cell_length_a                    7.839186
_cell_length_b                    8.561626
_cell_length_c                    10.507754
_cell_angle_alpha                 92.436752
_cell_angle_beta                  85.778761
_cell_angle_gamma                 92.333813
_cell_volume                      702.190896004

loop_
_atom_site_label
_atom_site_type_symbol
_atom_type_description
_atom_site_fract_x
_atom_site_fract_y
_atom_site_fract_z
_atom_type_partial_charge
C1    C     C_R   0.543015 0.793457 0.493163 0.907974
C2    C     C_R   0.456895 0.206362 0.505481 0.908000
C3    C     C_R   0.502428 0.502815 0.742192 0.895491
C4    C     C_R   0.497583 0.497315 0.257798 0.891209
C5    C     C_3   0.414216 0.623427 0.966319 -0.137630
C6    C     C_3   0.585807 0.376922 0.033670 -0.138304
C7    C     C_3   0.572492 0.633800 0.046384 -0.280115
C8    C     C_3   0.427484 0.366536 0.953628 -0.280012
C9    C     C_3   0.494272 0.497327 0.123177 -0.034817
C10   C     C_3   0.505731 0.503012 0.876813 -0.034958
C11   C     C_3   0.337943 0.487221 0.044981 0.069111
C12   C     C_3   0.662050 0.513128 0.955011 0.071011
C13   C     C_2   0.554200 0.951759 0.464117 -0.180292
C14   C     C_2   0.445564 0.047784 0.533158 -0.181191
H1    H     H_    0.632682 0.741438 0.088702 0.158538
H2    H     H_    0.366995 0.258836 0.911499 0.161509
H3    H     H_    0.342842 0.722394 0.935691 0.196645
H4    H     H_    0.657266 0.277949 0.064148 0.197815
N1    N     N_2   0.950320 0.457950 0.465730 -0.128586
N2    N     N_2   0.049680 0.542050 0.534270 -0.129418
O1    O     O_R   0.389250 0.738570 0.508410 -0.554315
O2    O     O_R   0.610750 0.261430 0.491590 -0.547640
O3    O     O_R   0.678390 0.711620 0.486450 -0.644015
O4    O     O_R   0.321610 0.288380 0.513550 -0.647262
O5    O     O_R   0.355460 0.513510 0.697030 -0.615760
O6    O     O_R   0.644540 0.486490 0.302970 -0.614211
O7    O     O_R   0.644600 0.486560 0.675070 -0.626284
O8    O     O_R   0.355400 0.513440 0.324930 -0.627201
Zn1   Zn    Zn3+2 0.306940 0.517990 0.514670 1.030534
Zn2   Zn    Zn3+2 0.693060 0.482010 0.485330 1.034401
C15   C     C_2   0.153443 0.472403 0.095438 0.355547
H5    H     H_    0.075256 0.368022 0.072491 0.079093
O9    O     O_2   0.089898 0.577655 0.162674 -0.579570
C16   C     C_2   0.846484 0.528628 0.904736 0.355901
H6    H     H_    0.924133 0.633536 0.927898 0.078114
O10   O     O_2   0.910581 0.423329 0.837605 -0.579461
C17   C     C_2   0.027958 0.335856 0.392421 0.561959
H7    H     H_    0.975383 0.275280 0.310942 0.204775
O11   O     O_2   0.978067 0.199756 0.399119 -0.634013
C18   C     C_2   0.972522 0.664554 0.607063 0.566284
H8    H     H_    0.025342 0.725706 0.687995 0.200970
O12   O     O_2   0.021686 0.800094 0.598932 -0.638645
C19   C     C_2   0.649991 0.985394 0.338473 0.457727
H9    H     H_    0.744208 0.902103 0.296610 0.093755
O13   O     O_2   0.620796 0.098348 0.277424 -0.597977
C20   C     C_2   0.350281 0.012913 0.658462 0.455489
H10   H     H_    0.247886 0.089203 0.696685 0.101909
O14   O     O_2   0.390908 0.907673 0.723779 -0.602084

loop_
_geom_bond_atom_site_label_1
_geom_bond_atom_site_label_2
_ccdc_geom_bond_type
C2    O2    A    
C4    O6    A    
C19   H9    S    
C15   O9    D    
C1    O1    A    
C17   H7    S    
C9    C11   S    
C15   H5    S    
C3    O5    A    
C6    C9    S    
C18   O12   D    
C11   C15   S    
C5    C10   S    
C14   C20   S    
C3    C10   S    
O2    Zn2   S    
C13   C14   D    
O7    Zn2   S    
C6    C12   S    
C19   O13   D    
C10   C12   S    
C8    C11   S    
C2    C14   S    
C7    H1    S    
C18   H8    S    
C4    O8    A    
C1    O3    A    
C16   O10   D    
N2    Zn1   S    
C5    C11   S    
C2    O4    A    
C7    C12   S    
N2    C18   S    
C6    H4    S    
C20   O14   D    
C3    O7    A    
C1    C13   S    
C12   C16   S    
O3    Zn2   S    
C7    C9    S    
C13   C19   S    
C5    H3    S    
O5    Zn1   S    
C17   O11   D    
C16   H6    S    
C8    H2    S    
C5    C7    S    
C20   H10   S    
O8    Zn1   S    
C6    C8    S    
N1    C17   S    
C4    C9    S    
O4    Zn1   S    
N1    Zn2   S    
O1    Zn1   S    
C8    C10   S    
N1    N2    D    
O6    Zn2   S    
