data_mof_unit_64442.cif
_audit_creation_date              2012-12-10T21:21:42-0500
_audit_creation_method            fapswitch 2.2
_symmetry_space_group_name_H-M    P1
_symmetry_Int_Tables_number       1
_space_group_crystal_system       triclinic
_cell_length_a                    17.598037
_cell_length_b                    16.809732
_cell_length_c                    23.436255
_cell_angle_alpha                 89.986117
_cell_angle_beta                  91.553947
_cell_angle_gamma                 89.938543
_cell_volume                      6930.31886635

loop_
_atom_site_label
_atom_site_type_symbol
_atom_type_description
_atom_site_fract_x
_atom_site_fract_y
_atom_site_fract_z
_atom_type_partial_charge
Br1   Br    Br    0.254807 0.471442 0.926987 -0.242988
Br2   Br    Br    0.098989 0.331109 0.487027 -0.341976
Br3   Br    Br    0.106150 0.668984 0.542638 -0.344893
Br4   Br    Br    0.898075 0.330426 0.535926 -0.337774
Br5   Br    Br    0.705010 0.620044 0.072462 -0.252271
Br6   Br    Br    0.381223 0.697235 0.412774 -0.442351
Br7   Br    Br    0.615239 0.302421 0.589901 -0.456539
Br8   Br    Br    0.618405 0.697040 0.587539 -0.438688
Br9   Br    Br    0.383975 0.302879 0.410661 -0.453487
Br10  Br    Br    0.254876 0.471942 0.063247 -0.236705
Br11  Br    Br    0.704869 0.620101 0.935595 -0.243401
Br12  Br    Br    0.899135 0.672101 0.493689 -0.341798
C1    C     C_R   0.353362 0.500070 0.500446 0.950569
C2    C     C_R   0.497043 0.429499 0.704026 -0.165424
C3    C     C_R   0.495130 0.431488 0.236506 -0.065685
C4    C     C_R   0.494862 0.431372 0.763276 -0.064329
C5    C     C_R   0.494244 0.504686 0.208171 0.278643
C6    C     C_R   0.493975 0.504552 0.791571 0.278697
C7    C     C_R   0.847594 0.572557 0.503008 0.284652
C8    C     C_R   0.152082 0.429261 0.500570 0.280973
C9    C     C_R   0.155043 0.570927 0.523163 0.284396
C10   C     C_R   0.847260 0.429369 0.519999 0.283754
C11   C     C_R   0.768914 0.571752 0.498019 -0.181190
C12   C     C_R   0.646702 0.499987 0.500318 0.947345
C13   C     C_R   0.230416 0.429613 0.495891 -0.184913
C14   C     C_R   0.233290 0.570859 0.517697 -0.188468
C15   C     C_R   0.768688 0.429037 0.514201 -0.183748
C16   C     C_R   0.729220 0.500112 0.503564 -0.154480
C17   C     C_R   0.271186 0.500319 0.504102 -0.151723
C18   C     C_R   0.886621 0.501231 0.514175 -0.052523
C19   C     C_R   0.114531 0.500036 0.514344 -0.051615
C20   C     C_R   0.499837 0.500094 0.389115 0.914679
C21   C     C_R   0.499890 0.500077 0.610877 0.914118
C22   C     C_1   0.966905 0.501076 0.516613 0.141667
C23   C     C_R   0.495762 0.575866 0.238830 -0.079784
C24   C     C_1   0.034414 0.500656 0.516653 0.142190
C25   C     C_R   0.450778 0.833143 0.463714 -0.252178
C26   C     C_R   0.547951 0.166762 0.537132 -0.249729
C27   C     C_R   0.549192 0.833051 0.536229 -0.251205
C28   C     C_R   0.451993 0.166943 0.462817 -0.250659
C29   C     C_R   0.451304 0.749190 0.464148 0.354486
C30   C     C_R   0.547393 0.250716 0.536782 0.354845
C31   C     C_R   0.548638 0.749100 0.535873 0.353364
C32   C     C_R   0.452489 0.250898 0.463270 0.355374
C33   C     C_R   0.500003 0.876092 0.499944 0.041760
C34   C     C_R   0.495275 0.575750 0.760964 -0.081954
C35   C     C_R   0.500008 0.123856 0.499934 0.041294
C36   C     C_1   0.499999 0.963558 0.499924 0.038115
C37   C     C_1   0.500000 0.036389 0.499920 0.037818
C38   C     C_R   0.556579 0.529100 0.881590 0.571007
C39   C     C_R   0.425903 0.492065 0.118762 0.573437
C40   C     C_R   0.425750 0.491956 0.878257 0.569109
C41   C     C_R   0.556731 0.529247 0.120635 0.566394
C42   C     C_R   0.421046 0.498557 0.938060 -0.126194
C43   C     C_R   0.555724 0.539945 0.061151 -0.126558
C44   C     C_R   0.488097 0.519842 0.969651 -0.086110
C45   C     C_R   0.498045 0.574183 0.297934 -0.158418
C46   C     C_R   0.488137 0.519882 0.029839 -0.086162
C47   C     C_R   0.555643 0.539879 0.941023 -0.130681
C48   C     C_R   0.421120 0.498654 0.058770 -0.129764
C49   C     C_R   0.352187 0.485717 0.967044 0.259518
C50   C     C_R   0.619199 0.570623 0.032271 0.262377
C51   C     C_R   0.352221 0.485816 0.027049 0.259522
C52   C     C_R   0.619152 0.570608 0.972411 0.262331
C53   C     C_R   0.497480 0.574107 0.701951 -0.158883
C54   C     C_R   0.498644 0.501041 0.326873 -0.060181
C55   C     C_R   0.498421 0.500982 0.673055 -0.059328
C56   C     C_R   0.497370 0.429578 0.295844 -0.164865
H1    H     H_    0.495154 0.632415 0.216664 0.157780
H2    H     H_    0.259138 0.374702 0.485568 0.221809
H3    H     H_    0.264361 0.625745 0.524736 0.207738
H4    H     H_    0.738729 0.373281 0.518552 0.222141
H5    H     H_    0.411858 0.864609 0.435064 0.195091
H6    H     H_    0.585833 0.135255 0.566533 0.195925
H7    H     H_    0.588065 0.864445 0.564895 0.196020
H8    H     H_    0.414018 0.135580 0.433462 0.195523
H9    H     H_    0.494507 0.632283 0.783096 0.157639
H10   H     H_    0.499233 0.630126 0.320831 0.194448
H11   H     H_    0.498209 0.630066 0.679081 0.194482
H12   H     H_    0.498052 0.372518 0.317290 0.194600
H13   H     H_    0.497467 0.372456 0.682593 0.194736
H14   H     H_    0.494241 0.376435 0.212519 0.159619
H15   H     H_    0.493972 0.376308 0.787230 0.160125
H16   H     H_    0.739035 0.627078 0.489611 0.210822
N1    N     N_R   0.492282 0.507350 0.852259 -0.369976
N2    N     N_R   0.492467 0.507505 0.147413 -0.370032
N3    N     N_R   0.500000 0.707230 0.500000 -0.146316
N4    N     N_R   0.500000 0.292770 0.500000 -0.143658
O1    O     O_R   0.389110 0.566570 0.500000 -0.595811
O2    O     O_2   0.365748 0.469195 0.149039 -0.467522
O3    O     O_2   0.365545 0.469164 0.845576 -0.478143
O4    O     O_2   0.621437 0.537599 0.152132 -0.475670
O5    O     O_R   0.610890 0.433430 0.500000 -0.598884
O6    O     O_R   0.610890 0.566570 0.500000 -0.596004
O7    O     O_R   0.389110 0.433430 0.500000 -0.598111
O8    O     O_R   0.499970 0.566560 0.416150 -0.600714
O9    O     O_R   0.500030 0.433440 0.583850 -0.596381
O10   O     O_R   0.500030 0.566560 0.583850 -0.602080
O11   O     O_R   0.499970 0.433440 0.416150 -0.596786
O12   O     O_2   0.621244 0.537390 0.852677 -0.463868
Zn1   Zn    Zn3+2 0.500000 0.588860 0.500000 1.033427
Zn2   Zn    Zn3+2 0.500000 0.411140 0.500000 1.035218

loop_
_geom_bond_atom_site_label_1
_geom_bond_atom_site_label_2
_ccdc_geom_bond_type
C56   H12   S    
C28   C35   A    
C54   C56   A    
C9    C14   A    
C53   H11   S    
Br10  C51   S    
Br8   C31   S    
C45   C54   A    
C35   C37   S    
C9    C19   A    
C47   C52   A    
C1    O7    A    
C48   C51   A    
C38   C47   A    
C1    C17   S    
C40   N1    A    
C26   C30   A    
C39   O2    S    
C8    C13   A    
C46   C48   A    
C43   C50   A    
C21   O10   A    
Br7   C30   S    
C49   C51   A    
C50   C52   A    
C38   N1    A    
N3    Zn1   S    
O6    Zn1   S    
C53   C55   A    
Br6   C29   S    
C2    C55   A    
C41   N2    A    
C27   H7    S    
C21   O9    A    
O9    Zn2   S    
O7    Zn2   S    
C27   C33   A    
O1    Zn1   S    
O8    Zn1   S    
C14   H3    S    
C6    C34   A    
C39   N2    A    
C40   C42   A    
C3    H14   S    
C41   C43   A    
C13   C17   A    
C29   N3    A    
C42   C44   A    
C6    N1    S    
C11   H16   S    
C18   C22   S    
Br2   C8    S    
C5    N2    S    
C34   C53   A    
Br11  C52   S    
C27   C31   A    
C4    H15   S    
C28   H8    S    
C7    C11   A    
C12   O6    A    
Br4   C10   S    
C41   O4    S    
C11   C16   A    
C26   C35   A    
C36   C37   T    
C20   O8    A    
C10   C15   A    
C2    C4    A    
Br3   C9    S    
C30   N4    A    
C25   C33   A    
C21   C55   S    
C20   C54   S    
C26   H6    S    
C33   C36   S    
C3    C5    A    
C25   H5    S    
Br9   C32   S    
C10   C18   A    
C1    O1    A    
C45   H10   S    
C12   C16   S    
Br1   C49   S    
O5    Zn2   S    
C34   H9    S    
N4    Zn2   S    
C44   C47   A    
C13   H2    S    
C42   C49   A    
O10   Zn1   S    
C38   O12   S    
C20   O11   A    
C23   C45   A    
C31   N3    A    
C12   O5    A    
C3    C56   A    
Br12  C7    S    
C44   C46   A    
Br5   C50   S    
C22   C24   T    
C25   C29   A    
C28   C32   A    
O11   Zn2   S    
C23   H1    S    
C14   C17   A    
C4    C6    A    
C43   C46   A    
C15   C16   A    
C19   C24   S    
C40   O3    S    
C39   C48   A    
C5    C23   A    
C2    H13   S    
C32   N4    A    
C7    C18   A    
C15   H4    S    
C8    C19   A    
