data_mof_unit_18545.cif
_audit_creation_date              2012-12-10T16:39:31-0500
_audit_creation_method            fapswitch 2.2
_symmetry_space_group_name_H-M    P1
_symmetry_Int_Tables_number       1
_space_group_crystal_system       triclinic
_cell_length_a                    16.879934
_cell_length_b                    16.765122
_cell_length_c                    16.734758
_cell_angle_alpha                 65.829768
_cell_angle_beta                  65.254006
_cell_angle_gamma                 66.404542
_cell_volume                      3771.21843544

loop_
_atom_site_label
_atom_site_type_symbol
_atom_type_description
_atom_site_fract_x
_atom_site_fract_y
_atom_site_fract_z
_atom_type_partial_charge
C1    C     C_R   0.318307 0.002851 0.425280 -0.161281
C2    C     C_R   0.684560 0.990186 0.577024 -0.026349
C3    C     C_R   0.941965 0.458906 0.329350 0.013733
C4    C     C_R   0.988346 0.576544 0.687433 -0.034720
C5    C     C_R   0.432204 0.307551 0.014850 -0.123687
C6    C     C_R   0.574580 0.682783 0.995009 -0.029053
C7    C     C_R   0.539096 0.061172 0.670264 -0.019196
C8    C     C_R   0.463824 0.930750 0.331547 -0.048410
C9    C     C_R   0.674313 0.538814 0.058002 -0.036104
C10   C     C_R   0.314205 0.447727 0.990980 -0.029168
C11   C     C_R   0.051734 0.674448 0.538458 -0.015286
C12   C     C_R   0.926297 0.331679 0.468685 -0.086228
C13   C     C_R   0.458446 0.984353 0.451322 0.079878
C14   C     C_R   0.544996 0.005075 0.552482 0.061264
C15   C     C_R   0.955488 0.465531 0.465624 0.069329
C16   C     C_R   0.991113 0.558167 0.549169 0.057206
C17   C     C_R   0.450780 0.446485 0.009001 0.064663
C18   C     C_R   0.554711 0.539544 0.012232 0.057121
C19   C     C_R   0.959141 0.179453 0.440010 0.902305
C20   C     C_R   0.040745 0.820522 0.560141 0.934436
C21   C     C_R   0.178073 0.434778 0.971988 0.997520
C22   C     C_R   0.820604 0.560784 0.040714 0.928918
C23   C     C_R   0.440213 0.956825 0.179647 0.833676
C24   C     C_R   0.560431 0.041835 0.820275 0.922551
C25   C     C_R   0.568951 0.822831 0.022212 0.971120
C26   C     C_R   0.431999 0.176639 0.977861 0.857125
C27   C     C_R   0.023574 0.568851 0.822377 1.013464
C28   C     C_R   0.963319 0.436733 0.180145 0.922934
C29   C     C_R   0.822752 0.021705 0.569774 0.989308
C30   C     C_R   0.177895 0.976595 0.430642 0.902637
C31   C     C_R   0.413859 0.971233 0.403863 0.093670
C32   C     C_R   0.589225 0.019514 0.599191 0.027184
C33   C     C_R   0.942312 0.417916 0.421250 0.048353
C34   C     C_R   0.011798 0.602007 0.591240 0.020873
C35   C     C_R   0.400699 0.401284 0.001781 0.039193
C36   C     C_R   0.601375 0.586804 0.021512 0.014187
C37   C     C_R   0.274318 0.970702 0.391909 -0.173481
C38   C     C_R   0.727219 0.025511 0.608888 -0.105012
C39   C     C_R   0.937897 0.408118 0.280967 -0.165018
C40   C     C_R   0.025998 0.608289 0.727229 -0.111635
C41   C     C_R   0.394581 0.269283 0.981264 -0.213928
C42   C     C_R   0.608617 0.727605 0.024931 -0.117088
C43   C     C_R   0.588016 0.067374 0.719276 -0.202024
C44   C     C_R   0.413727 0.928244 0.281053 -0.298050
C45   C     C_R   0.721812 0.590088 0.062156 -0.166500
C46   C     C_R   0.271543 0.401814 0.971026 -0.143672
C47   C     C_R   0.063665 0.720775 0.586699 -0.193774
C48   C     C_R   0.931531 0.279664 0.414606 -0.194220
C49   C     C_R   0.443802 0.097614 0.688088 0.011812
C50   C     C_R   0.559728 0.893856 0.313402 -0.033853
C51   C     C_R   0.075831 0.699655 0.440924 -0.012909
C52   C     C_R   0.898365 0.305714 0.567256 -0.030469
C53   C     C_R   0.697051 0.442254 0.089979 0.039032
C54   C     C_R   0.275417 0.536454 0.002858 0.037548
C55   C     C_R   0.271345 0.065285 0.478009 0.005690
C56   C     C_R   0.732584 0.926582 0.525462 0.029451
C57   C     C_R   0.496346 0.257252 0.064293 0.023759
C58   C     C_R   0.511713 0.729392 0.943937 0.024323
C59   C     C_R   0.937931 0.552508 0.291335 0.068483
C60   C     C_R   0.927594 0.521411 0.739780 0.034075
C61   C     C_R   0.324784 0.926077 0.324930 0.417528
C62   C     C_R   0.676247 0.070622 0.675312 0.351312
C63   C     C_R   0.923266 0.322940 0.327420 0.357744
C64   C     C_R   0.070245 0.675655 0.674231 0.363006
C65   C     C_R   0.320467 0.321674 0.949460 0.343618
C66   C     C_R   0.679130 0.679241 0.063216 0.360469
C67   C     C_R   0.691669 0.921777 0.468798 -0.071174
C68   C     C_R   0.312042 0.066493 0.536553 -0.000518
C69   C     C_R   0.923551 0.463391 0.700003 -0.072858
C70   C     C_R   0.977614 0.588752 0.322999 -0.072779
C71   C     C_R   0.450765 0.684757 0.954920 -0.083539
C72   C     C_R   0.555180 0.301176 0.060151 -0.014595
C73   C     C_R   0.604899 0.901344 0.365514 -0.001904
C74   C     C_R   0.397682 0.083277 0.642098 -0.039320
C75   C     C_R   0.334670 0.588382 0.978281 -0.093506
C76   C     C_R   0.657260 0.393675 0.071585 -0.039114
C77   C     C_R   0.904320 0.357808 0.614240 -0.005371
C78   C     C_R   0.043801 0.664444 0.398791 -0.040457
C79   C     C_R   0.743051 0.879549 0.398243 0.279666
C80   C     C_R   0.259248 0.100432 0.612847 0.393063
C81   C     C_R   0.888687 0.387737 0.753921 0.278535
C82   C     C_R   0.009059 0.666488 0.268723 0.298560
C83   C     C_R   0.364404 0.732992 0.941570 0.310875
C84   C     C_R   0.638038 0.252064 0.079471 0.393661
C85   C     C_R   0.699165 0.859701 0.355471 0.369347
C86   C     C_R   0.301521 0.114362 0.661768 0.301832
C87   C     C_R   0.306641 0.684228 0.952006 0.309558
C88   C     C_R   0.686581 0.297173 0.090601 0.298487
C89   C     C_R   0.871586 0.340357 0.711889 0.353930
C90   C     C_R   0.049680 0.699225 0.303875 0.345146
C91   C     C_R   0.553673 0.949744 0.432298 -0.037816
C92   C     C_R   0.449597 0.037906 0.572840 -0.048530
C93   C     C_R   0.940658 0.433516 0.561067 -0.030978
C94   C     C_R   0.005765 0.590035 0.453741 -0.038218
C95   C     C_R   0.421255 0.541604 0.988904 -0.039120
C96   C     C_R   0.582473 0.443345 0.037028 -0.049599
C97   C     C_R   0.596871 0.959665 0.483756 -0.038581
C98   C     C_R   0.406684 0.028836 0.520891 -0.071982
C99   C     C_R   0.475882 0.588746 0.984573 -0.030762
C100  C     C_R   0.531085 0.397004 0.033052 -0.072084
C101  C     C_R   0.953029 0.483889 0.603495 -0.041369
C102  C     C_R   0.981697 0.547143 0.413541 -0.046870
O1    O     O_R   0.982940 0.138950 0.510160 -0.628677
O2    O     O_R   0.017060 0.861050 0.489840 -0.658669
O3    O     O_R   0.138950 0.510160 0.982940 -0.637950
O4    O     O_R   0.861050 0.489840 0.017060 -0.664438
O5    O     O_R   0.510160 0.982940 0.138950 -0.602838
O6    O     O_R   0.489840 0.017060 0.861050 -0.650367
O7    O     O_R   0.489840 0.861050 0.017060 -0.646226
O8    O     O_R   0.510160 0.138950 0.982940 -0.634764
O9    O     O_R   0.017060 0.489840 0.861050 -0.640664
O10   O     O_R   0.982940 0.510160 0.138950 -0.615374
O11   O     O_R   0.861050 0.017060 0.489840 -0.646824
O12   O     O_R   0.138950 0.982940 0.510160 -0.646084
O13   O     O_R   0.867700 0.025880 0.612340 -0.537708
O14   O     O_R   0.132300 0.974120 0.387660 -0.576439
O15   O     O_R   0.025880 0.612340 0.867700 -0.548770
O16   O     O_R   0.974120 0.387660 0.132300 -0.619571
O17   O     O_R   0.612340 0.867700 0.025880 -0.531865
O18   O     O_R   0.387660 0.132300 0.974120 -0.607796
O19   O     O_R   0.387660 0.974120 0.132300 -0.591081
O20   O     O_R   0.612340 0.025880 0.867700 -0.565350
O21   O     O_R   0.132300 0.387660 0.974120 -0.557760
O22   O     O_R   0.867700 0.612340 0.025880 -0.583801
O23   O     O_R   0.974120 0.132300 0.387660 -0.550871
O24   O     O_R   0.025880 0.867700 0.612340 -0.577049
Zn1   Zn    Zn3+2 0.004880 0.004880 0.583590 1.132253
Zn2   Zn    Zn3+2 0.995120 0.995120 0.416410 1.064335
Zn3   Zn    Zn3+2 0.004880 0.583590 0.004880 1.107399
Zn4   Zn    Zn3+2 0.995120 0.416410 0.995120 1.068442
Zn5   Zn    Zn3+2 0.583590 0.004880 0.004880 1.147375
Zn6   Zn    Zn3+2 0.416410 0.995120 0.995120 1.033251
O25   O     O_3   0.284364 0.889019 0.296944 -0.712825
H1    H     H_    0.332507 0.845866 0.263046 0.349446
O26   O     O_3   0.715527 0.109230 0.702829 -0.720233
H2    H     H_    0.666872 0.153311 0.735304 0.339792
O27   O     O_3   0.905131 0.278220 0.286813 -0.714677
H3    H     H_    0.858324 0.323070 0.258257 0.355212
O28   O     O_3   0.112437 0.701547 0.711292 -0.719822
H4    H     H_    0.154279 0.736379 0.660377 0.342088
O29   O     O_3   0.291915 0.294193 0.901240 -0.715354
H5    H     H_    0.346904 0.269449 0.855637 0.359224
O30   O     O_3   0.709221 0.721666 0.096013 -0.705655
H6    H     H_    0.738247 0.674928 0.142513 0.374464
O31   O     O_3   0.248888 0.156531 0.730088 -0.790360
H7    H     H_    0.194455 0.201885 0.713309 0.364654
O32   O     O_3   0.747477 0.795312 0.308522 -0.756978
H8    H     H_    0.798537 0.753058 0.333085 0.325284
O33   O     O_3   0.091952 0.766930 0.246706 -0.813999
H9    H     H_    0.121023 0.758923 0.184299 0.352221
O34   O     O_3   0.818249 0.281362 0.765849 -0.737485
H10   H     H_    0.776079 0.300380 0.821552 0.341584
O35   O     O_3   0.764155 0.248000 0.116569 -0.797454
H11   H     H_    0.757118 0.187351 0.158454 0.360225
O36   O     O_3   0.224976 0.727978 0.932776 -0.780463
H12   H     H_    0.228066 0.788138 0.887182 0.355741
O37   O     O_3   0.166514 0.112339 0.643049 -0.719301
H13   H     H_    0.143306 0.103759 0.710195 0.350445
O38   O     O_3   0.836366 0.863689 0.367091 -0.806240
H14   H     H_    0.860027 0.859275 0.303500 0.363062
O39   O     O_3   0.673148 0.161731 0.080531 -0.713441
H15   H     H_    0.740237 0.145470 0.061775 0.350246
O40   O     O_3   0.334137 0.825716 0.929365 -0.803598
H16   H     H_    0.267177 0.843849 0.955291 0.352172
O41   O     O_3   0.004757 0.706185 0.179738 -0.814787
H17   H     H_    0.998023 0.772053 0.162460 0.357188
O42   O     O_3   0.877772 0.356933 0.847236 -0.795605
H18   H     H_    0.881467 0.291273 0.870349 0.367402
C103  C     C_2   0.397800 0.165630 0.739482 0.499397
H19   H     H_    0.346682 0.152335 0.805835 0.138892
O43   O     O_2   0.417990 0.237213 0.707060 -0.586534
C104  C     C_2   0.609699 0.842719 0.244281 0.637253
H20   H     H_    0.585479 0.789888 0.248069 0.020048
O44   O     O_2   0.673903 0.863947 0.179088 -0.461017
C105  C     C_2   0.145516 0.750392 0.385820 0.541401
H21   H     H_    0.132292 0.814740 0.333755 0.157639
O45   O     O_2   0.218001 0.721459 0.401489 -0.566699
C106  C     C_2   0.849865 0.234360 0.618318 0.613639
H22   H     H_    0.794395 0.238886 0.598453 0.030492
O46   O     O_2   0.875908 0.167125 0.677275 -0.446881
C107  C     C_2   0.744213 0.395751 0.160465 0.457698
H23   H     H_    0.808588 0.344656 0.148187 0.139040
O47   O     O_2   0.711562 0.416684 0.231854 -0.581088
C108  C     C_2   0.192252 0.553887 0.081186 0.509623
H24   H     H_    0.158960 0.622038 0.087874 0.136634
O48   O     O_2   0.163141 0.491330 0.141686 -0.578310
C109  C     C_2   0.194492 0.143743 0.451594 0.577290
H25   H     H_    0.164558 0.143835 0.405575 0.002463
O49   O     O_2   0.168580 0.212881 0.474139 -0.525827
C110  C     C_2   0.810234 0.849119 0.551756 0.465100
H26   H     H_    0.850272 0.799794 0.513774 0.125488
O50   O     O_2   0.826110 0.834607 0.622042 -0.568199
C111  C     C_2   0.477815 0.175112 0.142602 0.572746
H27   H     H_    0.424704 0.148577 0.151654 0.018333
O51   O     O_2   0.515712 0.140435 0.201830 -0.535036
C112  C     C_2   0.526324 0.810478 0.862680 0.488756
H28   H     H_    0.477879 0.848406 0.824379 0.116669
O52   O     O_2   0.596599 0.832182 0.833281 -0.570047
C113  C     C_2   0.864445 0.614564 0.249363 0.439184
H29   H     H_    0.866114 0.682537 0.204671 0.170606
O53   O     O_2   0.797787 0.590337 0.268563 -0.605336
C114  C     C_2   0.850280 0.546005 0.820153 0.466113
H30   H     H_    0.804242 0.504239 0.864068 0.125967
O54   O     O_2   0.832577 0.618128 0.834238 -0.570785

loop_
_geom_bond_atom_site_label_1
_geom_bond_atom_site_label_2
_ccdc_geom_bond_type
C68   C80   A    
C83   C87   A    
C9    C45   A    
O41   H17   S    
C18   C96   A    
C103  H19   S    
C6    C58   A    
C11   C47   A    
O32   H8    S    
C12   C48   A    
O31   H7    S    
C7    C49   A    
C75   C95   A    
O26   H2    S    
C105  O45   D    
O11   Zn2   S    
C30   O14   A    
C107  H23   S    
C78   C90   A    
C77   C89   A    
O37   H13   S    
C67   C97   A    
C114  O54   D    
C26   C41   S    
C26   O18   A    
C28   O10   A    
C83   O40   S    
C79   O38   S    
C95   C99   A    
C58   C71   A    
C3    C33   A    
O30   H6    S    
C96   C100  A    
C1    C31   A    
O13   Zn1   S    
C108  H24   S    
C2    C32   A    
C74   C92   A    
C13   C98   A    
C80   C86   A    
C16   C34   A    
C19   O1    A    
C4    C40   A    
C59   C113  S    
C111  O51   D    
C29   C38   S    
C10   C46   A    
C9    C36   A    
O17   Zn5   S    
O34   H10   S    
C10   C35   A    
C17   C95   A    
C7    C43   A    
O10   Zn3   S    
C58   C112  S    
O15   Zn3   S    
C76   C88   A    
C71   C83   A    
C1    C37   A    
C81   C89   A    
C107  O47   D    
C29   O13   A    
C27   O9    A    
C113  H29   S    
O42   H18   S    
C13   C91   A    
C63   O27   S    
C90   O33   S    
C10   C54   A    
C25   O17   A    
C12   C52   A    
C104  O44   D    
O39   H15   S    
C56   C110  S    
C27   O15   A    
C4    C34   A    
O36   H12   S    
O6    Zn6   S    
C114  H30   S    
C61   O25   S    
C20   C47   S    
C84   C88   A    
C67   C79   A    
C73   C91   A    
C46   C65   A    
C112  O52   D    
C50   C104  S    
C50   C73   A    
C93   C101  A    
C47   C64   A    
C55   C68   A    
C19   C48   S    
C48   C63   A    
O3    Zn3   S    
C66   O30   S    
C28   C39   S    
C22   O4    A    
C71   C99   A    
C19   O23   A    
C91   C97   A    
C23   C44   S    
C64   O28   S    
C30   C37   S    
C57   C111  S    
C52   C106  S    
C62   O26   S    
C21   O21   A    
C8    C44   A    
C6    C36   A    
C110  H26   S    
C20   O24   A    
O16   Zn4   S    
C53   C107  S    
C25   O7    A    
O23   Zn2   S    
C65   O29   S    
C2    C38   A    
O9    Zn4   S    
C106  O46   D    
O38   H14   S    
O2    Zn2   S    
C27   C40   S    
C23   O5    A    
C4    C60   A    
O7    Zn6   S    
C24   O20   A    
C81   O42   S    
O8    Zn5   S    
C74   C86   A    
C51   C105  S    
C73   C85   A    
C72   C84   A    
C23   O19   A    
C69   C81   A    
C24   O6    A    
C26   O8    A    
C60   C114  S    
C14   C92   A    
C55   C109  S    
O21   Zn4   S    
O14   Zn2   S    
O25   H1    S    
C54   C108  S    
C53   C76   A    
C9    C53   A    
C18   C99   A    
O19   Zn6   S    
C52   C77   A    
C86   O31   S    
C8    C50   A    
O20   Zn5   S    
C79   C85   A    
O1    Zn1   S    
C104  H20   S    
C14   C97   A    
C42   C66   A    
C21   C46   S    
C72   C100  A    
C75   C87   A    
O4    Zn4   S    
C5    C41   A    
C110  O50   D    
C7    C32   A    
O18   Zn6   S    
C8    C31   A    
C13   C31   A    
C11   C34   A    
C15   C102  A    
C85   O32   S    
C14   C32   A    
C112  H28   S    
C15   C33   A    
C82   C90   A    
C25   C42   S    
C15   C93   A    
C37   C61   A    
O28   H4    S    
C70   C102  A    
C22   O22   A    
C20   O2    A    
C69   C101  A    
C44   C61   A    
C56   C67   A    
C39   C63   A    
O27   H3    S    
C16   C94   A    
C40   C64   A    
C5    C57   A    
C88   O35   S    
O5    Zn5   S    
C1    C55   A    
C51   C78   A    
C109  H25   S    
C105  H21   S    
C2    C56   A    
O29   H5    S    
C76   C96   A    
C49   C103  S    
O12   Zn1   S    
C80   O37   S    
C60   C69   A    
C78   C94   A    
O24   Zn1   S    
C5    C35   A    
C77   C93   A    
C108  O48   D    
O22   Zn3   S    
C30   O12   A    
C87   O36   S    
C57   C72   A    
C41   C65   A    
C70   C82   A    
C17   C100  A    
C68   C98   A    
C109  O49   D    
O40   H16   S    
C11   C51   A    
C92   C98   A    
C59   C70   A    
C3    C39   A    
C54   C75   A    
C16   C101  A    
C89   O34   S    
C22   C45   S    
C94   C102  A    
C111  H27   S    
C6    C42   A    
C29   O11   A    
C45   C66   A    
C113  O53   D    
C24   C43   S    
C49   C74   A    
C28   O16   A    
C17   C35   A    
C38   C62   A    
C12   C33   A    
O33   H9    S    
C18   C36   A    
C82   O41   S    
C21   O3    A    
C84   O39   S    
C43   C62   A    
C106  H22   S    
O35   H11   S    
C103  O43   D    
C3    C59   A    
