data_mof_unit_35444.cif
_audit_creation_date              2012-12-10T19:07:06-0500
_audit_creation_method            fapswitch 2.2
_symmetry_space_group_name_H-M    P1
_symmetry_Int_Tables_number       1
_space_group_crystal_system       triclinic
_cell_length_a                    27.363774
_cell_length_b                    10.843337
_cell_length_c                    9.660497
_cell_angle_alpha                 89.696987
_cell_angle_beta                  90.722115
_cell_angle_gamma                 91.419853
_cell_volume                      2865.26754867

loop_
_atom_site_label
_atom_site_type_symbol
_atom_type_description
_atom_site_fract_x
_atom_site_fract_y
_atom_site_fract_z
_atom_type_partial_charge
C1    C     C_R   0.498367 0.262262 0.499824 0.917327
C2    C     C_R   0.278093 0.379026 0.448084 0.363765
C3    C     C_R   0.252717 0.491957 0.445104 -0.029266
C4    C     C_R   0.105025 0.521780 0.340020 -0.169436
C5    C     C_R   0.127633 0.411164 0.304525 -0.178787
C6    C     C_R   0.097812 0.312635 0.253647 0.361440
C7    C     C_R   0.133844 0.631091 0.350872 -0.183643
C8    C     C_R   0.353905 0.492235 0.497060 -0.332864
C9    C     C_R   0.646154 0.517311 0.504069 -0.284123
C10   C     C_R   0.973716 0.418598 0.360563 -0.020745
C11   C     C_R   0.982066 0.638628 0.423400 -0.028558
C12   C     C_R   0.407483 0.499126 0.499343 0.947993
C13   C     C_R   0.952555 0.530834 0.402969 -0.031531
C14   C     C_R   0.945072 0.307299 0.370327 0.407839
C15   C     C_R   0.893600 0.314265 0.383499 0.291465
C16   C     C_R   0.872082 0.430015 0.399293 -0.140841
C17   C     C_R   0.901920 0.533880 0.429781 -0.163358
C18   C     C_R   0.881086 0.638517 0.490770 -0.158395
C19   C     C_R   0.830398 0.632370 0.521412 0.716047
C20   C     C_R   0.821177 0.443104 0.400222 0.721065
C21   C     C_R   0.725982 0.433759 0.555092 0.381347
C22   C     C_R   0.674870 0.420570 0.553160 0.297445
C23   C     C_R   0.495978 0.736554 0.499430 0.903215
C24   C     C_R   0.668887 0.628558 0.460990 0.320159
C25   C     C_R   0.719753 0.634957 0.443541 0.392683
C26   C     C_R   0.748858 0.537158 0.490951 -0.008074
C27   C     C_R   0.024479 0.418757 0.327662 -0.033773
C28   C     C_R   0.053654 0.525371 0.353029 -0.056061
C29   C     C_R   0.031638 0.638017 0.381729 -0.047599
C30   C     C_R   0.046677 0.321749 0.254956 0.457261
C31   C     C_R   0.110157 0.745452 0.348217 0.359902
C32   C     C_R   0.962274 0.738518 0.497445 0.314572
C33   C     C_R   0.912044 0.740449 0.526578 0.335632
C34   C     C_R   0.592538 0.504093 0.501064 0.962746
C35   C     C_R   0.058956 0.747018 0.350774 0.464619
C36   C     C_R   0.488604 0.061214 0.620853 0.018582
C37   C     C_R   0.490789 0.128374 0.497884 -0.236898
C38   C     C_R   0.481067 0.063111 0.372920 0.438724
C39   C     C_R   0.474946 0.933715 0.375492 0.361502
C40   C     C_R   0.486294 0.868246 0.498286 -0.236459
C41   C     C_R   0.487149 0.935102 0.620895 -0.042099
C42   C     C_3   0.514083 0.926076 0.755039 0.121278
C43   C     C_3   0.515245 0.068323 0.756292 0.683605
C44   C     C_R   0.542321 0.519651 0.073244 0.016621
C45   C     C_R   0.179296 0.409174 0.313718 0.703912
C46   C     C_R   0.460585 0.456600 0.070575 0.488242
C47   C     C_R   0.460248 0.461095 0.923375 -0.020100
C48   C     C_R   0.542420 0.518022 0.927567 0.118259
C49   C     C_3   0.579122 0.621606 0.918194 0.127399
C50   C     C_3   0.580387 0.621662 0.076782 0.608551
C51   C     C_R   0.185058 0.619176 0.355806 0.709741
C52   C     C_R   0.275815 0.590846 0.520172 0.351679
C53   C     C_R   0.326751 0.592183 0.542534 0.326172
C54   C     C_R   0.329274 0.381611 0.461600 0.277843
Cu1   Cu    Cu3+1 0.500000 0.499980 0.640670 1.056787
Cu2   Cu    Cu3+1 0.500000 0.500020 0.359330 1.118181
H1    H     H_    0.550537 0.884816 0.742810 0.128503
H2    H     H_    0.428152 0.428479 0.866937 0.182371
H3    H     H_    0.563406 0.704984 0.870423 0.149604
N1    N     N_R   0.204532 0.505074 0.376869 -0.438277
N2    N     N_R   0.801152 0.539131 0.468724 -0.444807
N3    N     N_R   0.500300 0.500930 0.147930 -0.216667
N4    N     N_R   0.500310 0.500890 0.852020 -0.212083
O1    O     O_R   0.500000 0.319640 0.618810 -0.533524
O2    O     O_2   0.791803 0.360906 0.332862 -0.407271
O3    O     O_2   0.214968 0.717205 0.331519 -0.384283
O4    O     O_2   0.810392 0.716417 0.604248 -0.385791
O5    O     O_R   0.500010 0.319680 0.381230 -0.549656
O6    O     O_R   0.430260 0.500000 0.618780 -0.611588
O7    O     O_R   0.430270 0.500040 0.381190 -0.518271
O8    O     O_R   0.499990 0.680320 0.618770 -0.581400
O9    O     O_R   0.500000 0.680360 0.381190 -0.502893
O10   O     O_R   0.569730 0.499960 0.618810 -0.530478
O11   O     O_R   0.569740 0.500000 0.381220 -0.554053
O12   O     O_2   0.203823 0.320652 0.249390 -0.381598
Cl1   Cl    Cl    0.362002 0.243734 0.446897 -0.396724
Cl2   Cl    Cl    0.241617 0.700891 0.610140 -0.425783
Cl3   Cl    Cl    0.141717 0.889267 0.338948 -0.279029
Cl4   Cl    Cl    0.000801 0.849124 0.583035 -0.454964
Cl5   Cl    Cl    0.633757 0.760936 0.431102 -0.431211
Cl6   Cl    Cl    0.889674 0.874316 0.606736 -0.366458
Cl7   Cl    Cl    0.745989 0.762101 0.353717 -0.336786
O13   O     O_3   0.035757 0.851849 0.305256 -0.534893
C55   C     C_3   0.023586 0.835661 0.163669 -0.218347
H4    H     H_    0.993680 0.765154 0.150588 0.147678
H5    H     H_    0.055887 0.810297 0.101690 0.187462
H6    H     H_    0.010408 0.923667 0.120087 0.210001
O14   O     O_3   0.479532 0.124180 0.247337 -0.468345
C56   C     C_3   0.527042 0.125512 0.191570 -0.073209
H7    H     H_    0.556813 0.138619 0.270593 0.124297
H8    H     H_    0.530421 0.205040 0.119721 0.180828
H9    H     H_    0.532735 0.039114 0.133532 0.219000
Cl8   Cl    Cl    0.450602 0.860123 0.226547 -0.365569
Cl9   Cl    Cl    0.476648 0.853202 0.883060 -0.487934
Cl10  Cl    Cl    0.247448 0.237208 0.485973 -0.316772
Cl11  Cl    Cl    0.477615 0.144529 0.878712 -0.501757
O15   O     O_3   0.562683 0.120725 0.740077 -0.580079
C57   C     C_3   0.589337 0.115690 0.866006 -0.085191
H10   H     H_    0.628907 0.117264 0.842718 0.251310
H11   H     H_    0.581840 0.030114 0.927079 0.134295
H12   H     H_    0.582116 0.198632 0.928511 0.171991
Cl12  Cl    Cl    0.410616 0.377010 0.143593 -0.430400
Cl13  Cl    Cl    0.635082 0.578841 0.839368 -0.460686
Cl14  Cl    Cl    0.636534 0.571232 0.152086 -0.443010
Cl15  Cl    Cl    0.561340 0.764424 0.144926 -0.492389
Cl16  Cl    Cl    0.121651 0.178165 0.180334 -0.338568
Cl17  Cl    Cl    0.646943 0.281248 0.609114 -0.450401
Cl18  Cl    Cl    0.761277 0.320591 0.639185 -0.351962
Cl19  Cl    Cl    0.857391 0.179699 0.418053 -0.390086
O16   O     O_3   0.969180 0.199478 0.404965 -0.535496
C58   C     C_3   0.954127 0.097596 0.322861 0.041529
H13   H     H_    0.933905 0.122652 0.226197 0.132429
H14   H     H_    0.987219 0.049139 0.292712 0.230761
H15   H     H_    0.932511 0.030628 0.385499 0.221843
O17   O     O_3   0.019274 0.241492 0.173024 -0.573050
C59   C     C_3   0.007023 0.301950 0.048146 -0.258262
H16   H     H_    0.040301 0.334495 0.992200 0.190078
H17   H     H_    0.982432 0.380240 0.066453 0.148454
H18   H     H_    0.987022 0.235250 0.980163 0.224477
O18   O     O_3   0.350374 0.695276 0.598065 -0.530582
C60   C     C_3   0.354361 0.680765 0.743181 -0.053603
H19   H     H_    0.366283 0.587394 0.775302 0.121944
H20   H     H_    0.319279 0.700751 0.793740 0.211490
H21   H     H_    0.382078 0.748448 0.782690 0.232855

loop_
_geom_bond_atom_site_label_1
_geom_bond_atom_site_label_2
_ccdc_geom_bond_type
C10   C27   A    
C21   C26   A    
C45   N1    A    
C50   Cl14  S    
C41   C42   S    
C15   Cl19  S    
C58   H13   S    
C55   H6    S    
Cu1   Cu2   S    
O15   C57   S    
C53   O18   S    
O18   C60   S    
C46   Cl12  S    
C46   N3    A    
C16   C20   A    
C26   N2    S    
C55   H5    S    
C47   N4    A    
C5    C6    A    
C9    C22   A    
C15   C16   A    
C1    O5    A    
C59   H16   S    
C18   C19   A    
C20   N2    A    
O16   C58   S    
C39   Cl8   S    
C60   H21   S    
C24   Cl5   S    
C16   C17   A    
Cu2   O9    S    
Cu1   N4    S    
C23   C40   S    
C50   Cl15  S    
C19   O4    S    
C56   H8    S    
C1    C37   S    
C3    N1    S    
C21   C22   A    
C27   C30   A    
C36   C41   A    
C4    C7    A    
C42   H1    S    
C4    C28   A    
C17   C18   A    
C30   O17   S    
C38   C39   A    
Cu2   O11   S    
C23   O8    A    
C20   O2    S    
C7    C31   A    
C24   C25   A    
C2    C54   A    
C8    C54   A    
C39   C40   A    
C35   O13   S    
C48   N4    A    
C44   N3    A    
C25   C26   A    
Cu2   O5    S    
C5    C45   A    
C38   O14   S    
C51   O3    S    
C37   C38   A    
O13   C55   S    
C8    C12   S    
Cu1   O1    S    
C43   Cl11  S    
C6    Cl16  S    
C58   H14   S    
C55   H4    S    
C56   H9    S    
C60   H19   S    
Cu1   O6    S    
C34   O11   A    
C54   Cl1   S    
C48   C49   S    
C6    C30   A    
C12   O6    A    
C11   C32   A    
C57   H10   S    
C57   H11   S    
C10   C14   A    
C9    C34   S    
C31   C35   A    
C42   C43   S    
C52   Cl2   S    
C1    O1    A    
C52   C53   A    
C31   Cl3   S    
C44   C50   S    
C14   O16   S    
C12   O7    A    
C46   C47   A    
C28   C29   A    
C42   Cl9   S    
C23   O9    A    
C43   O15   S    
C4    C5    A    
C10   C13   A    
C2    Cl10  S    
C8    C53   A    
C49   Cl13  S    
C3    C52   A    
C9    C24   A    
C57   H12   S    
C29   C35   A    
Cu2   O7    S    
C49   H3    S    
C59   H18   S    
C13   C17   A    
C45   O12   S    
C32   C33   A    
C2    C3    A    
C7    C51   A    
C32   Cl4   S    
C11   C13   A    
O17   C59   S    
C25   Cl7   S    
C19   N2    A    
C59   H17   S    
C58   H15   S    
Cu2   N3    S    
C18   C33   A    
C60   H20   S    
C21   Cl18  S    
C34   O10   A    
Cu1   O10   S    
C44   C48   A    
O14   C56   S    
C11   C29   A    
C36   C37   A    
C49   C50   S    
C27   C28   A    
C14   C15   A    
C36   C43   S    
C40   C41   A    
C51   N1    A    
C56   H7    S    
C33   Cl6   S    
Cu1   O8    S    
C22   Cl17  S    
C47   H2    S    
