data_mof_unit_13762.cif
_audit_creation_date              2012-12-10T18:57:52-0500
_audit_creation_method            fapswitch 2.2
_symmetry_space_group_name_H-M    P1
_symmetry_Int_Tables_number       1
_space_group_crystal_system       triclinic
_cell_length_a                    10.62075
_cell_length_b                    10.092517
_cell_length_c                    8.835443
_cell_angle_alpha                 90.181474
_cell_angle_beta                  93.284467
_cell_angle_gamma                 90.265496
_cell_volume                      945.500603532

loop_
_atom_site_label
_atom_site_type_symbol
_atom_type_description
_atom_site_fract_x
_atom_site_fract_y
_atom_site_fract_z
_atom_type_partial_charge
C1    C     C_R   0.260858 0.499413 0.500297 0.833403
C2    C     C_R   0.070043 0.586178 0.597399 -0.212292
C3    C     C_R   0.872036 0.499131 0.502075 0.002854
C4    C     C_R   0.128277 0.497209 0.503364 0.003780
C5    C     C_R   0.563906 0.070467 0.613683 0.093367
C6    C     C_R   0.418377 0.929151 0.405660 0.140171
C7    C     C_R   0.438570 0.068510 0.385292 0.117372
C8    C     C_R   0.582113 0.930465 0.594955 0.095690
C9    C     C_3   0.592159 0.125389 0.773552 -0.349815
C10   C     C_3   0.715329 0.206089 0.800525 -0.285812
C11   C     C_3   0.742401 0.236366 0.968972 -0.950179
C12   C     C_R   0.739210 0.500080 0.500883 0.823255
C13   C     C_3   0.301751 0.864669 0.330167 -0.381346
C14   C     C_3   0.193120 0.860891 0.438654 -0.304293
C15   C     C_3   0.122557 0.991651 0.449858 -0.912801
C16   C     C_3   0.423313 0.118618 0.223119 -0.358156
C17   C     C_3   0.298753 0.191250 0.184338 -0.322537
C18   C     C_3   0.278246 0.213928 0.014078 -0.921001
C19   C     C_3   0.705731 0.873355 0.660693 -0.369008
C20   C     C_3   0.697125 0.794488 0.809010 -0.275031
C21   C     C_3   0.804011 0.828505 0.926034 -0.968839
C22   C     C_R   0.499467 0.500023 0.219578 0.929836
C23   C     C_R   0.499793 0.500261 0.780375 0.918435
C24   C     C_1   0.499360 0.500695 0.065707 -0.221125
C25   C     C_1   0.499506 0.501078 0.934221 -0.232354
C26   C     C_R   0.059599 0.405414 0.413200 -0.199648
C27   C     C_R   0.940917 0.588005 0.595497 -0.216050
C28   C     C_R   0.930407 0.406319 0.412571 -0.184220
H1    H     H_    0.105209 0.335241 0.341994 0.131751
H2    H     H_    0.508937 0.178093 0.811456 0.216789
H3    H     H_    0.597509 0.041830 0.854694 0.184246
H4    H     H_    0.188265 0.073662 0.484012 0.276662
H5    H     H_    0.071228 0.014498 0.340172 0.252737
H6    H     H_    0.051724 0.982666 0.537049 0.247159
H7    H     H_    0.123984 0.784300 0.397216 0.224153
H8    H     H_    0.229749 0.833840 0.554652 0.240510
H9    H     H_    0.268035 0.914331 0.224167 0.178673
H10   H     H_    0.324048 0.763800 0.292508 0.220337
H11   H     H_    0.357365 0.272012 0.971539 0.277643
H12   H     H_    0.895561 0.656485 0.668317 0.147410
H13   H     H_    0.271004 0.117673 0.952767 0.258522
H14   H     H_    0.189423 0.269666 0.990351 0.253844
H15   H     H_    0.218004 0.133095 0.220945 0.215437
H16   H     H_    0.296920 0.287734 0.242571 0.253672
H17   H     H_    0.507157 0.176241 0.194572 0.221550
H18   H     H_    0.429001 0.033175 0.143968 0.160041
H19   H     H_    0.897084 0.810034 0.878998 0.261075
H20   H     H_    0.799010 0.933750 0.960174 0.273280
H21   H     H_    0.795750 0.766064 0.028313 0.264898
H22   H     H_    0.605630 0.811774 0.860641 0.227721
H23   H     H_    0.876186 0.336766 0.341012 0.149782
H24   H     H_    0.706098 0.687555 0.784572 0.235101
H25   H     H_    0.752076 0.817587 0.572798 0.205684
H26   H     H_    0.774885 0.954446 0.679558 0.179638
H27   H     H_    0.124252 0.653455 0.671688 0.138870
H28   H     H_    0.662473 0.290397 0.015009 0.275824
H29   H     H_    0.757468 0.144085 0.034960 0.256302
H30   H     H_    0.828567 0.298850 0.984395 0.253776
H31   H     H_    0.797493 0.153719 0.758064 0.201034
H32   H     H_    0.709672 0.301545 0.742219 0.263386
N1    N     N_R   0.500000 0.857200 0.500000 -0.126313
N2    N     N_R   0.500000 0.142800 0.500000 -0.121509
O1    O     O_R   0.316770 0.614620 0.499990 -0.640240
O2    O     O_R   0.683230 0.385380 0.500010 -0.631059
O3    O     O_R   0.683230 0.614620 0.500010 -0.628635
O4    O     O_R   0.316770 0.385380 0.499990 -0.621852
O5    O     O_R   0.500010 0.614640 0.285340 -0.622289
O6    O     O_R   0.499990 0.385360 0.714660 -0.622788
O7    O     O_R   0.499990 0.614640 0.714660 -0.624179
O8    O     O_R   0.500010 0.385360 0.285340 -0.627646
Zn1   Zn    Zn3+2 0.500000 0.653120 0.500000 0.909434
Zn2   Zn    Zn3+2 0.500000 0.346880 0.500000 0.915913

loop_
_geom_bond_atom_site_label_1
_geom_bond_atom_site_label_2
_ccdc_geom_bond_type
C16   H17   S    
C23   O6    A    
C5    C8    A    
C2    C4    A    
C18   H11   S    
C17   H15   S    
C7    N2    A    
C5    C9    S    
C6    C7    A    
C26   C28   A    
C11   H30   S    
C9    C10   S    
C27   H12   S    
C15   H6    S    
C4    C26   A    
C19   C20   S    
C14   C15   S    
C8    N1    A    
O6    Zn2   S    
C1    C4    S    
C19   H25   S    
C21   H21   S    
C10   H31   S    
C17   H16   S    
N2    Zn2   S    
C15   H4    S    
C20   H24   S    
O3    Zn1   S    
C13   C14   S    
C24   C25   T    
C6    C13   S    
N1    Zn1   S    
C13   H10   S    
C2    C27   A    
C9    H2    S    
C20   H22   S    
C1    O1    A    
C19   H26   S    
C3    C27   A    
C7    C16   S    
O1    Zn1   S    
C5    N2    A    
C1    O4    A    
O5    Zn1   S    
C2    H27   S    
C18   H14   S    
C14   H8    S    
C12   O2    A    
C28   H23   S    
C22   C24   S    
C22   O5    A    
C8    C19   S    
C10   C11   S    
C9    H3    S    
C21   H20   S    
C23   C25   S    
C20   C21   S    
C6    N1    A    
C26   H1    S    
C17   C18   S    
C12   O3    A    
C18   H13   S    
C16   H18   S    
C14   H7    S    
O7    Zn1   S    
C23   O7    A    
C10   H32   S    
C3    C28   A    
O8    Zn2   S    
C3    C12   S    
C11   H29   S    
C13   H9    S    
C22   O8    A    
O4    Zn2   S    
C11   H28   S    
O2    Zn2   S    
C15   H5    S    
C16   C17   S    
C21   H19   S    
