data_mof_unit_50878.cif
_audit_creation_date              2012-12-10T18:43:40-0500
_audit_creation_method            fapswitch 2.2
_symmetry_space_group_name_H-M    P1
_symmetry_Int_Tables_number       1
_space_group_crystal_system       triclinic
_cell_length_a                    10.878214
_cell_length_b                    10.783251
_cell_length_c                    9.905966
_cell_angle_alpha                 88.729376
_cell_angle_beta                  102.998443
_cell_angle_gamma                 92.344591
_cell_volume                      1131.17167799

loop_
_atom_site_label
_atom_site_type_symbol
_atom_type_description
_atom_site_fract_x
_atom_site_fract_y
_atom_site_fract_z
_atom_type_partial_charge
C1    C     C_R   0.514037 0.261526 0.504541 0.931728
C2    C     C_R   0.495709 0.740424 0.498882 0.931763
C3    C     C_R   0.259661 0.498114 0.442894 0.818627
C4    C     C_R   0.739443 0.497899 0.557745 0.829413
C5    C     C_R   0.586197 0.573422 0.088404 -0.096534
C6    C     C_R   0.413094 0.426437 0.911138 -0.091302
C7    C     C_R   0.584040 0.573066 0.944455 0.613364
C8    C     C_R   0.412675 0.430582 0.054878 0.640329
C9    C     C_2   0.124438 0.479618 0.413615 0.358109
C10   C     C_2   0.873761 0.505478 0.592937 0.382592
C11   C     C_2   0.065796 0.500834 0.514958 0.366262
C12   C     C_2   0.936608 0.459721 0.506075 0.369723
C13   C     C_R   0.567822 0.066007 0.405146 -0.068315
C14   C     C_R   0.478415 0.937918 0.620065 -0.055664
C15   C     C_R   0.538843 0.939872 0.394898 0.561875
C16   C     C_R   0.501819 0.064820 0.625212 0.557680
C17   C     C_R   0.498677 0.874479 0.502462 -0.288841
C18   C     C_R   0.532800 0.129720 0.512795 -0.288661
N1    N     N_R   0.499970 0.499970 0.857200 -0.166477
N2    N     N_R   0.500030 0.500030 0.142800 -0.167564
O1    O     O_R   0.499990 0.316750 0.614620 -0.577342
O2    O     O_R   0.500010 0.683250 0.385380 -0.587732
O3    O     O_R   0.499990 0.316780 0.385290 -0.601220
O4    O     O_R   0.500010 0.683220 0.614710 -0.591938
O5    O     O_R   0.317810 0.500000 0.571850 -0.637421
O6    O     O_R   0.682190 0.500000 0.428150 -0.643506
O7    O     O_R   0.317810 0.500030 0.342520 -0.518596
O8    O     O_R   0.682190 0.499970 0.657480 -0.531361
Zn1   Zn    Zn3+2 0.500000 0.499980 0.653120 1.033111
Zn2   Zn    Zn3+2 0.500000 0.500020 0.346880 1.028980
F1    F     F_    0.878703 0.378298 0.406265 -0.696632
F2    F     F_    0.126072 0.566577 0.627989 -0.682997
C19   C     C_3   0.679562 0.664515 0.174522 -0.279159
C20   C     C_3   0.817353 0.631709 0.184161 -0.300514
C21   C     C_3   0.908277 0.723886 0.274802 -0.870984
H1    H     H_    0.895690 0.818941 0.229694 0.267648
H2    H     H_    0.891698 0.723287 0.381443 0.254727
H3    H     H_    0.007073 0.698454 0.280104 0.267336
H4    H     H_    0.832806 0.536871 0.227587 0.299283
H5    H     H_    0.839919 0.633037 0.080439 0.296523
H6    H     H_    0.664018 0.758419 0.126520 0.246482
H7    H     H_    0.665066 0.671500 0.279429 0.274818
C22   C     C_3   0.308169 0.350715 0.817358 -0.252920
C23   C     C_3   0.277936 0.220330 0.871161 -0.302027
C24   C     C_3   0.194148 0.143895 0.755465 -0.880487
H8    H     H_    0.105415 0.192372 0.711927 0.267884
H9    H     H_    0.243727 0.128978 0.671062 0.282836
H10   H     H_    0.169294 0.052526 0.797769 0.261129
H11   H     H_    0.366229 0.171179 0.914289 0.269986
H12   H     H_    0.223832 0.226043 0.952923 0.285828
H13   H     H_    0.220904 0.404303 0.797637 0.249556
H14   H     H_    0.333564 0.335666 0.718948 0.272386
F3    F     F_    0.930974 0.572288 0.706506 -0.610865
F4    F     F_    0.063329 0.428642 0.291109 -0.616717
F5    F     F_    0.663570 0.649221 0.890394 -0.650635
F6    F     F_    0.322999 0.368944 0.107758 -0.636463
C25   C     C_3   0.640636 0.125499 0.303692 -0.283057
C26   C     C_3   0.772104 0.071099 0.321790 -0.366931
C27   C     C_3   0.836404 0.116406 0.206790 -0.729468
H15   H     H_    0.781562 0.082962 0.104812 0.256157
H16   H     H_    0.844306 0.219341 0.203945 0.324323
H17   H     H_    0.932697 0.079556 0.225588 0.248825
H18   H     H_    0.831798 0.099701 0.423592 0.242997
H19   H     H_    0.766267 0.968226 0.320432 0.255747
H20   H     H_    0.584698 0.111112 0.196160 0.231052
H21   H     H_    0.658970 0.226299 0.317953 0.245744
C28   C     C_3   0.427980 0.877873 0.739788 -0.305447
C29   C     C_3   0.291226 0.827771 0.692667 -0.389770
C30   C     C_3   0.241175 0.776912 0.816084 -0.664256
H22   H     H_    0.292168 0.692672 0.859500 0.262899
H23   H     H_    0.253304 0.847479 0.898482 0.225422
H24   H     H_    0.138920 0.752493 0.782466 0.319797
H25   H     H_    0.230607 0.903458 0.641775 0.216589
H26   H     H_    0.283911 0.753373 0.615634 0.269983
H27   H     H_    0.491132 0.806515 0.795407 0.254849
H28   H     H_    0.428306 0.945310 0.822837 0.245446
F7    F     F_    0.552388 0.881293 0.279453 -0.699875
F8    F     F_    0.493577 0.125865 0.741187 -0.688130

loop_
_geom_bond_atom_site_label_1
_geom_bond_atom_site_label_2
_ccdc_geom_bond_type
C23   H11   S    
C2    O2    A    
C30   H24   S    
C4    O6    A    
C11   C12   S    
C1    O1    A    
C3    C9    S    
O2    Zn2   S    
C7    N1    A    
C21   H1    S    
C29   H25   S    
C7    F5    S    
C25   H21   S    
C22   C23   S    
C19   H6    S    
C8    F6    S    
C1    O3    A    
C3    O7    A    
C19   C20   S    
C1    C18   S    
C27   H15   S    
C5    N2    A    
N2    Zn2   S    
C24   H8    S    
O7    Zn2   S    
C2    O4    A    
C6    N1    A    
C9    C11   D    
C14   C17   A    
C22   H13   S    
C25   C26   S    
C15   F7    S    
C10   C12   D    
C13   C18   A    
C8    N2    A    
C20   H5    S    
C19   H7    S    
C16   C18   A    
O8    Zn1   S    
C21   H2    S    
C11   F2    S    
O6    Zn2   S    
C16   F8    S    
C6    C22   S    
C13   C15   A    
C12   F1    S    
O5    Zn1   S    
C30   H22   S    
C14   C16   A    
C22   H14   S    
C27   H16   S    
C13   C25   S    
C14   C28   S    
C29   H26   S    
C28   C29   S    
N1    Zn1   S    
O3    Zn2   S    
C3    O5    A    
C21   H3    S    
C28   H27   S    
C23   C24   S    
C9    F4    S    
C30   H23   S    
C20   C21   S    
C24   H9    S    
C23   H12   S    
C26   H18   S    
C5    C7    A    
C10   F3    S    
O4    Zn1   S    
C27   H17   S    
C6    C8    A    
C28   H28   S    
C24   H10   S    
C26   H19   S    
C4    O8    A    
C26   C27   S    
C15   C17   A    
C4    C10   S    
O1    Zn1   S    
C20   H4    S    
C25   H20   S    
C29   C30   S    
C2    C17   S    
C5    C19   S    
