data_mof_unit_11425.cif
_audit_creation_date              2012-12-10T16:48:44-0500
_audit_creation_method            fapswitch 2.2
_symmetry_space_group_name_H-M    P1
_symmetry_Int_Tables_number       1
_space_group_crystal_system       triclinic
_cell_length_a                    17.267223
_cell_length_b                    8.689188
_cell_length_c                    7.437318
_cell_angle_alpha                 102.934611
_cell_angle_beta                  90.133688
_cell_angle_gamma                 92.976704
_cell_volume                      1085.98811467

loop_
_atom_site_label
_atom_site_type_symbol
_atom_type_description
_atom_site_fract_x
_atom_site_fract_y
_atom_site_fract_z
_atom_type_partial_charge
C1    C     C_R   0.497622 0.199731 0.453645 0.880778
C2    C     C_R   0.502378 0.800269 0.546355 0.880785
C3    C     C_2   0.496481 0.031895 0.427481 -0.350917
C4    C     C_2   0.503519 0.968105 0.572519 -0.350923
C5    C     C_R   0.351347 0.507839 0.527029 0.826562
C6    C     C_R   0.648654 0.492163 0.472972 0.826556
C7    C     C_R   0.267748 0.523545 0.546621 -0.063892
C8    C     C_R   0.732254 0.476473 0.453383 -0.063900
C9    C     C_R   0.225328 0.581395 0.415615 0.399479
C10   C     C_R   0.774679 0.418655 0.584403 0.399479
C11   C     C_R   0.144710 0.584650 0.430125 -0.250038
C12   C     C_R   0.855298 0.415421 0.569900 -0.250035
C13   C     C_R   0.106577 0.529908 0.571660 0.142552
C14   C     C_R   0.893427 0.470148 0.428350 0.142551
C15   C     C_R   0.149492 0.482938 0.707854 -0.173483
C16   C     C_R   0.850507 0.517075 0.292136 -0.173481
C17   C     C_R   0.229758 0.479463 0.695353 -0.268000
C18   C     C_R   0.770240 0.520532 0.304634 -0.267999
C19   C     C_2   0.021788 0.518281 0.577506 -0.198894
C20   C     C_2   0.978216 0.481794 0.422504 -0.198892
Cu1   Cu    Cu3+1 0.508700 0.517250 0.683000 0.987073
Cu2   Cu    Cu3+1 0.491300 0.482750 0.317000 0.987071
H1    H     H_    0.738132 0.562520 0.201433 0.179153
H2    H     H_    0.261860 0.437441 0.798538 0.179127
H3    H     H_    0.004874 0.465079 0.287878 0.141506
H4    H     H_    0.995132 0.534997 0.712132 0.141508
H5    H     H_    0.120637 0.443503 0.820069 0.135715
H6    H     H_    0.879359 0.556489 0.179906 0.135721
H7    H     H_    0.888047 0.370176 0.669314 0.120223
H8    H     H_    0.111965 0.629925 0.330727 0.120235
H9    H     H_    0.489841 0.960453 0.287638 0.181920
H10   H     H_    0.510158 0.039547 0.712362 0.181917
H11   H     H_    0.439115 0.379328 0.958191 0.225235
H12   H     H_    0.560885 0.620672 0.041809 0.225237
N1    N     N_2   0.478180 0.456750 0.041980 -0.205342
N2    N     N_2   0.521820 0.543250 0.958020 -0.205340
O1    O     O_R   0.505650 0.286040 0.618880 -0.579481
O2    O     O_R   0.494350 0.713960 0.381120 -0.579476
O3    O     O_R   0.490960 0.256910 0.309800 -0.591097
O4    O     O_R   0.509040 0.743090 0.690200 -0.591099
O5    O     O_R   0.394600 0.516230 0.672450 -0.605390
O6    O     O_R   0.605400 0.483770 0.327550 -0.605394
O7    O     O_R   0.379910 0.487100 0.363380 -0.528999
O8    O     O_R   0.620090 0.512900 0.636620 -0.528986
O9    O     O_3   0.263523 0.635433 0.276588 -0.720977
H13   H     H_    0.225090 0.669935 0.196499 0.316320
O10   O     O_3   0.736488 0.364627 0.723440 -0.720987
H14   H     H_    0.774921 0.330052 0.803466 0.316320

loop_
_geom_bond_atom_site_label_1
_geom_bond_atom_site_label_2
_ccdc_geom_bond_type
C16   H6    S    
C2    C4    S    
C9    O9    S    
C2    O4    A    
C12   H7    S    
Cu1   O8    S    
C11   C13   A    
C2    O2    A    
C15   H5    S    
C19   C20   D    
C1    O1    A    
C5    O7    A    
Cu1   N2    S    
Cu2   O6    S    
Cu1   Cu2   S    
C3    H9    S    
Cu2   N1    S    
C9    C11   A    
C4    H10   S    
Cu1   O4    S    
C10   C12   A    
Cu1   O5    S    
Cu2   O3    S    
C6    C8    S    
C8    C10   A    
H11   N1    S    
C12   C14   A    
Cu2   O7    S    
H12   N2    S    
C13   C15   A    
C14   C16   A    
O9    H13   S    
C17   H2    S    
C20   H3    S    
C1    O3    A    
C18   H1    S    
Cu2   O2    S    
O10   H14   S    
C14   C20   S    
Cu1   O1    S    
C7    C9    A    
C6    O6    A    
C10   O10   S    
C5    C7    S    
C19   H4    S    
C5    O5    A    
C13   C19   S    
C6    O8    A    
C1    C3    S    
C15   C17   A    
C16   C18   A    
C8    C18   A    
C3    C4    D    
C11   H8    S    
C7    C17   A    
N1    N2    D    
