data_mof_unit_39934.cif
_audit_creation_date              2012-12-10T17:18:56-0500
_audit_creation_method            fapswitch 2.2
_symmetry_space_group_name_H-M    P1
_symmetry_Int_Tables_number       1
_space_group_crystal_system       triclinic
_cell_length_a                    9.702135
_cell_length_b                    10.820392
_cell_length_c                    13.614696
_cell_angle_alpha                 99.159288
_cell_angle_beta                  73.977434
_cell_angle_gamma                 93.058688
_cell_volume                      1356.17699204

loop_
_atom_site_label
_atom_site_type_symbol
_atom_type_description
_atom_site_fract_x
_atom_site_fract_y
_atom_site_fract_z
_atom_type_partial_charge
C1    C     C_R   0.503470 0.737780 0.496511 0.794422
C2    C     C_R   0.459366 0.452783 0.964329 0.047544
C3    C     C_R   0.476473 0.508230 0.873330 -0.079136
C4    C     C_R   0.552819 0.495556 0.029038 0.032477
C5    C     C_R   0.678768 0.564403 0.988392 -0.090156
C6    C     C_R   0.708153 0.585292 0.886803 -0.018830
C7    C     C_R   0.591137 0.591744 0.847160 0.450777
C8    C     C_R   0.521551 0.480137 0.133363 -0.290844
C9    C     C_R   0.736586 0.597682 0.153073 0.376501
C10   C     C_R   0.380059 0.479749 0.810709 -0.122792
C11   C     C_R   0.289322 0.866907 0.429298 -0.172882
C12   C     C_R   0.422947 0.499445 0.699730 0.879489
C13   C     C_R   0.152191 0.912165 0.446541 -0.246281
C14   C     C_R   0.110270 0.025272 0.512421 0.356924
C15   C     C_R   0.214737 0.101577 0.548266 0.420897
C16   C     C_R   0.358174 0.059078 0.521046 -0.067449
C17   C     C_R   0.385669 0.932298 0.480155 0.006371
C18   C     C_R   0.503249 0.874418 0.497464 -0.155411
C19   C     C_R   0.600573 0.949540 0.539975 -0.214526
C20   C     C_R   0.589541 0.079273 0.558294 0.403700
C21   C     C_R   0.475131 0.135685 0.536990 -0.180323
C22   C     C_R   0.898670 0.341368 0.352925 0.214055
C23   C     C_R   0.491469 0.265753 0.513579 0.800117
C24   C     C_R   0.928347 0.216358 0.338346 -0.249909
C25   C     C_R   0.063792 0.185776 0.342556 0.393116
C26   C     C_R   0.155337 0.282107 0.376673 0.131634
C27   C     C_R   0.090360 0.402344 0.436458 0.060649
C28   C     C_R   0.944770 0.414263 0.432148 0.117113
C29   C     C_R   0.911181 0.593643 0.555655 0.190485
C30   C     C_R   0.056998 0.591064 0.559823 0.272058
C31   C     C_R   0.575842 0.505609 0.302331 0.781637
C32   C     C_R   0.770063 0.615265 0.050253 0.429621
C33   C     C_R   0.614997 0.525209 0.193956 -0.244149
C34   C     C_R   0.254203 0.410882 0.848189 0.394953
C35   C     C_R   0.240949 0.351420 0.934612 -0.236963
C36   C     C_R   0.348497 0.361578 0.985974 0.154018
Cu1   Cu    Cu3+1 0.359340 0.500010 0.500010 0.973912
Cu2   Cu    Cu3+1 0.640660 0.499990 0.499990 0.953001
H1    H     H_    0.316756 0.778337 0.379431 0.191462
H2    H     H_    0.076651 0.856012 0.412394 0.160647
H3    H     H_    0.870926 0.150967 0.294488 0.143584
H4    H     H_    0.420787 0.438866 0.170447 0.201808
H5    H     H_    0.151568 0.287710 0.956737 0.150134
H6    H     H_    0.682100 0.908195 0.563490 0.171823
N1    N     N_R   0.852480 0.498790 0.499000 -0.198377
N2    N     N_R   0.148360 0.498710 0.498970 -0.185038
O1    O     O_R   0.381190 0.680360 0.500010 -0.592403
O2    O     O_R   0.618760 0.680340 0.500000 -0.598403
O3    O     O_R   0.323240 0.499990 0.650990 -0.522990
O4    O     O_R   0.560820 0.499960 0.650980 -0.588159
O5    O     O_R   0.381240 0.319660 0.500000 -0.534079
O6    O     O_R   0.618810 0.319640 0.499990 -0.568714
O7    O     O_R   0.439180 0.500040 0.349020 -0.598630
O8    O     O_R   0.676760 0.500010 0.349010 -0.566392
O9    O     O_3   0.817064 0.664176 0.213355 -0.696602
H7    H     H_    0.752961 0.692499 0.282891 0.321246
O10   O     O_3   0.970082 0.064396 0.539825 -0.708631
H8    H     H_    0.914013 0.002847 0.504003 0.338667
O11   O     O_3   0.177824 0.211284 0.616400 -0.675322
H9    H     H_    0.076217 0.231149 0.625564 0.373976
O12   O     O_3   0.686933 0.147145 0.602899 -0.680546
H10   H     H_    0.640681 0.225565 0.643672 0.333287
C37   C     C_3   0.826842 0.710344 0.602521 -0.787249
H11   H     H_    0.843305 0.769347 0.540945 0.215388
H12   H     H_    0.714377 0.686256 0.633324 0.310220
H13   H     H_    0.856812 0.767224 0.668385 0.201325
C38   C     C_3   0.930933 0.392440 0.251869 -0.792354
H14   H     H_    0.934026 0.496113 0.264863 0.284381
H15   H     H_    0.038693 0.362847 0.202044 0.202166
H16   H     H_    0.850989 0.357173 0.209072 0.231391
O13   O     O_3   0.117372 0.067580 0.298145 -0.735402
H17   H     H_    0.040152 0.012738 0.279824 0.333053
C39   C     C_3   0.309954 0.241548 0.328806 -0.665351
H18   H     H_    0.395791 0.305629 0.331695 0.234828
H19   H     H_    0.331557 0.158029 0.359252 0.226766
H20   H     H_    0.328658 0.210715 0.244984 0.204764
C40   C     C_3   0.843729 0.529474 0.814267 -0.801147
H21   H     H_    0.847495 0.536628 0.734154 0.245476
H22   H     H_    0.940303 0.573867 0.833355 0.271679
H23   H     H_    0.845242 0.428046 0.819011 0.243449
C41   C     C_3   0.106525 0.691068 0.634754 -0.728229
H24   H     H_    0.208422 0.674028 0.648642 0.275180
H25   H     H_    0.112611 0.783366 0.608556 0.217024
H26   H     H_    0.031637 0.698213 0.712817 0.187876
O14   O     O_3   0.884474 0.694218 0.016733 -0.682504
H27   H     H_    0.866033 0.738137 0.963199 0.318563
O15   O     O_3   0.151218 0.393336 0.794575 -0.684527
H28   H     H_    0.071816 0.341120 0.830284 0.323804
C42   C     C_3   0.349926 0.260079 0.049219 -0.866594
H29   H     H_    0.455193 0.252201 0.064707 0.236932
H30   H     H_    0.262371 0.277020 0.121491 0.227485
H31   H     H_    0.330045 0.167673 0.006216 0.252217
O16   O     O_3   0.572670 0.693801 0.803338 -0.759606
H32   H     H_    0.648419 0.756671 0.811864 0.320827

loop_
_geom_bond_atom_site_label_1
_geom_bond_atom_site_label_2
_ccdc_geom_bond_type
C36   C42   S    
O15   H28   S    
C37   H12   S    
C16   C21   A    
C39   H18   S    
C19   C20   A    
C4    C8    A    
C29   C37   S    
C12   O3    A    
C23   O6    A    
C40   H21   S    
C1    C18   S    
O16   H32   S    
Cu1   Cu2   S    
C8    H4    S    
C18   C19   A    
C3    C7    A    
C5    C6    A    
Cu1   O5    S    
Cu2   O6    S    
C15   C16   A    
C26   C39   S    
C34   C35   A    
C20   O12   S    
Cu2   N1    S    
C9    C32   A    
C35   C36   A    
C16   C17   A    
C13   H2    S    
C31   C33   S    
C9    O9    S    
Cu1   O1    S    
C35   H5    S    
Cu2   O2    S    
C8    C33   A    
C5    C32   A    
Cu1   O7    S    
C37   H13   S    
O11   H9    S    
C22   C28   A    
C13   C14   A    
C9    C33   A    
C24   H3    S    
C39   H19   S    
C41   H25   S    
C41   H24   S    
C40   H22   S    
C7    O16   S    
C28   N1    A    
C38   H14   S    
C24   C25   A    
C1    O1    A    
C6    C40   S    
C25   C26   A    
O14   H27   S    
C29   N1    A    
C38   H15   S    
C2    C4    A    
C29   C30   A    
Cu1   O3    S    
C23   O5    A    
Cu2   O8    S    
O9    H7    S    
C17   C18   A    
C26   C27   A    
C10   C34   A    
C31   O7    A    
C42   H31   S    
C11   H1    S    
C10   C12   S    
C25   O13   S    
C27   N2    A    
C21   C23   S    
C39   H20   S    
C22   C24   A    
C42   H30   S    
C41   H26   S    
C19   H6    S    
C40   H23   S    
C2    C36   A    
C14   O10   S    
C11   C17   A    
C15   O11   S    
C30   N2    A    
C4    C5    A    
C12   O4    A    
C1    O2    A    
C6    C7    A    
Cu2   O4    S    
C38   H16   S    
C30   C41   S    
C2    C3    A    
C42   H29   S    
O13   H17   S    
C3    C10   A    
C11   C13   A    
O10   H8    S    
C32   O14   S    
C34   O15   S    
C31   O8    A    
O12   H10   S    
C22   C38   S    
C37   H11   S    
C20   C21   A    
C27   C28   A    
C14   C15   A    
Cu1   N2    S    
