data_mof_unit_15124.cif
_audit_creation_date              2013-03-05T15:42:35-0500
_audit_creation_method            fapswitch 2.2
_symmetry_space_group_name_H-M    P1
_symmetry_Int_Tables_number       1
_space_group_crystal_system       triclinic
_cell_length_a                    18.662051
_cell_length_b                    18.672462
_cell_length_c                    18.944982
_cell_angle_alpha                 109.295423
_cell_angle_beta                  109.236219
_cell_angle_gamma                 108.27573
_cell_volume                      5179.88896914

loop_
_atom_site_label
_atom_site_type_symbol
_atom_site_description
_atom_site_fract_x
_atom_site_fract_y
_atom_site_fract_z
_atom_type_partial_charge
O1    O     O_R   0.590200 0.537990 0.447830 -0.549245
O2    O     O_R   0.409800 0.462010 0.552170 -0.582870
O3    O     O_R   0.590170 0.642360 0.552190 -0.615678
O4    O     O_R   0.409830 0.357640 0.447810 -0.563892
C1    C     C_R   0.623941 0.617111 0.504346 0.920197
C2    C     C_R   0.374637 0.381544 0.492928 0.907942
O5    O     O_R   0.409850 0.447820 0.357640 -0.565433
O6    O     O_R   0.590150 0.552180 0.642360 -0.592019
O7    O     O_R   0.409820 0.552200 0.462010 -0.640026
O8    O     O_R   0.590180 0.447800 0.537990 -0.561749
C3    C     C_R   0.386039 0.505139 0.381855 0.979143
C4    C     C_R   0.613874 0.494066 0.617394 0.988620
Cu1   Cu    Cu3+1 0.500020 0.438200 0.438210 0.977860
Cu2   Cu    Cu3+1 0.499980 0.561800 0.561790 0.936091
C5    C     C_R   0.418110 0.548372 0.251627 0.418938
C6    C     C_R   0.585590 0.331670 0.630623 0.392073
C7    C     C_R   0.433396 0.583882 0.199271 -0.249532
C8    C     C_R   0.571504 0.262692 0.649604 -0.237108
C9    C     C_R   0.362779 0.569905 0.129599 0.267476
C10   C     C_R   0.643349 0.262106 0.704341 0.323262
C11   C     C_R   0.279620 0.517402 0.112016 0.431453
C12   C     C_R   0.726102 0.329582 0.738441 0.426456
C13   C     C_R   0.266825 0.511573 0.180209 -0.153999
C14   C     C_R   0.736413 0.409338 0.741994 -0.181878
C15   C     C_R   0.336581 0.523150 0.250486 -0.170240
C16   C     C_R   0.666106 0.409949 0.683395 -0.141743
C17   C     C_R   0.321108 0.506815 0.314303 -0.184835
C18   C     C_R   0.679506 0.488334 0.680148 -0.159334
C19   C     C_R   0.237832 0.478109 0.306434 0.402177
C20   C     C_R   0.759582 0.563247 0.734738 0.397037
C21   C     C_R   0.169505 0.466391 0.236101 0.402052
C22   C     C_R   0.828676 0.561386 0.791099 0.426314
C23   C     C_R   0.185373 0.489218 0.176842 -0.161786
C24   C     C_R   0.815861 0.486811 0.799648 -0.178357
C25   C     C_R   0.797706 0.623765 0.545327 -0.129706
C26   C     C_R   0.206163 0.233306 0.324539 -0.158821
C27   C     C_R   0.885455 0.646890 0.590611 0.352978
C28   C     C_R   0.122450 0.171705 0.255816 0.306920
C29   C     C_R   0.948111 0.718976 0.599789 0.322697
C30   C     C_R   0.072288 0.103069 0.261189 0.362577
C31   C     C_R   0.920284 0.750915 0.544232 0.373617
C32   C     C_R   0.105588 0.098674 0.336366 0.364484
C33   C     C_R   0.837963 0.747579 0.520872 -0.156528
C34   C     C_R   0.173056 0.173767 0.413343 -0.144245
C35   C     C_R   0.774618 0.682856 0.522807 -0.175852
C36   C     C_R   0.230128 0.241321 0.408694 -0.155715
C37   C     C_R   0.691785 0.679225 0.500606 -0.173136
C38   C     C_R   0.304295 0.312498 0.488026 -0.169855
C39   C     C_R   0.668249 0.727979 0.463395 0.442292
C40   C     C_R   0.314671 0.316984 0.567036 0.430455
C41   C     C_R   0.728150 0.783884 0.451103 0.426678
C42   C     C_R   0.257067 0.249760 0.569470 0.362804
C43   C     C_R   0.815200 0.801167 0.489097 -0.165700
C44   C     C_R   0.185153 0.180039 0.493376 -0.202226
O9    O     O_R   0.947790 0.538000 0.090170 -0.614879
O10   O     O_R   0.052210 0.462000 0.909830 -0.532579
O11   O     O_R   0.052190 0.642370 0.090170 -0.535673
O12   O     O_R   0.947810 0.357630 0.909830 -0.595928
C45   C     C_R   0.995588 0.618687 0.114321 0.845374
C46   C     C_R   0.005009 0.381357 0.885747 0.878772
O13   O     O_R   0.037970 0.447810 0.090190 -0.525305
O14   O     O_R   0.962030 0.552190 0.909810 -0.557258
O15   O     O_R   0.142360 0.552180 0.090180 -0.583708
O16   O     O_R   0.857640 0.447820 0.909820 -0.565901
C47   C     C_R   0.118469 0.496189 0.115593 0.911524
C48   C     C_R   0.882156 0.494092 0.875202 0.958691
Cu3   Cu    Cu3+1 0.938190 0.438210 0.000010 0.984278
Cu4   Cu    Cu3+1 0.061810 0.561790 0.999990 1.027628
O17   O     O_R   0.947800 0.090190 0.538000 -0.569216
O18   O     O_R   0.052200 0.909810 0.462000 -0.558865
O19   O     O_R   0.052170 0.090160 0.642370 -0.596359
O20   O     O_R   0.947830 0.909840 0.357630 -0.556972
C49   C     C_R   0.000104 0.119761 0.617703 0.940864
C50   C     C_R   0.998559 0.878027 0.382583 0.932092
O21   O     O_R   0.857630 0.909850 0.447810 -0.521743
O22   O     O_R   0.142370 0.090150 0.552190 -0.590561
O23   O     O_R   0.962000 0.909820 0.552180 -0.569094
O24   O     O_R   0.038000 0.090180 0.447820 -0.568636
C51   C     C_R   0.881529 0.876392 0.495756 1.011323
C52   C     C_R   0.118676 0.117558 0.498605 0.953038
Cu5   Cu    Cu3+1 0.938200 0.000020 0.438210 1.041276
Cu6   Cu    Cu3+1 0.061800 0.999980 0.561790 1.015421
C53   C     C_R   0.853263 0.671969 0.086495 -0.185069
C54   C     C_R   0.971345 0.205558 0.873764 -0.183843
C55   C     C_R   0.781119 0.684812 0.080960 0.395505
C56   C     C_R   0.925409 0.117935 0.850171 0.353485
C57   C     C_R   0.771881 0.714733 0.154099 -0.216000
C58   C     C_R   0.895330 0.052977 0.767375 -0.139886
C59   C     C_R   0.838392 0.738578 0.232632 0.437292
C60   C     C_R   0.908896 0.076694 0.708100 0.382394
C61   C     C_R   0.918888 0.747428 0.240452 -0.033418
C62   C     C_R   0.963214 0.163571 0.734217 -0.055211
C63   C     C_R   0.922011 0.699867 0.167707 -0.190003
C64   C     C_R   0.983119 0.229347 0.812270 -0.131716
C65   C     C_R   0.995311 0.686543 0.180614 -0.165128
C66   C     C_R   0.011540 0.314860 0.823327 -0.191138
C67   C     C_R   0.069883 0.735797 0.261175 0.419088
C68   C     C_R   0.037752 0.334866 0.766812 0.419978
C69   C     C_R   0.071475 0.796411 0.330020 -0.182853
C70   C     C_R   0.036760 0.271536 0.700837 -0.164200
C71   C     C_R   0.995672 0.803870 0.318974 -0.211345
C72   C     C_R   0.996480 0.185381 0.682645 -0.204407
O25   O     O_3   0.219373 0.446082 0.358421 -0.565693
C73   C     C_3   0.238757 0.513461 0.435706 -0.338660
H1    H     H_    0.269259 0.579636 0.444006 0.135694
H2    H     H_    0.282361 0.510993 0.490137 0.204412
H3    H     H_    0.178952 0.502350 0.440356 0.162700
O26   O     O_3   0.771756 0.637646 0.728522 -0.597114
C74   C     C_3   0.769124 0.695785 0.796590 -0.218197
H4    H     H_    0.828825 0.725518 0.857937 0.216000
H5    H     H_    0.711662 0.664705 0.802878 0.158905
H6    H     H_    0.764976 0.748519 0.783644 0.187658
O27   O     O_3   0.034213 0.741911 0.645575 -0.582846
C75   C     C_3   0.082569 0.832050 0.698955 -0.266035
H7    H     H_    0.053404 0.856672 0.737640 0.159785
H8    H     H_    0.090522 0.865880 0.661422 0.201704
H9    H     H_    0.147900 0.847609 0.744189 0.177796
O28   O     O_3   0.001313 0.032540 0.186878 -0.528830
C76   C     C_3   0.927597 0.013399 0.197870 -0.257290
H10   H     H_    0.920751 0.071927 0.225958 0.118827
H11   H     H_    0.928040 0.980681 0.237322 0.212502
H12   H     H_    0.869725 0.968132 0.134227 0.165474
O29   O     O_3   0.966878 0.774229 0.504163 -0.548553
C77   C     C_3   0.986118 0.708905 0.465942 -0.232903
H13   H     H_    0.932213 0.642768 0.436346 0.098534
H14   H     H_    0.046284 0.716502 0.512887 0.213131
H15   H     H_    0.997748 0.715713 0.414354 0.189163
O30   O     O_3   0.080296 0.018447 0.331175 -0.593754
C78   C     C_3   0.132883 0.985964 0.308436 -0.242921
H16   H     H_    0.196928 0.015985 0.365278 0.191340
H17   H     H_    0.141280 0.995166 0.255892 0.175919
H18   H     H_    0.101469 0.915704 0.283738 0.186750
O31   O     O_3   0.702258 0.809277 0.389607 -0.531614
C79   C     C_3   0.644892 0.842818 0.393376 -0.178125
H19   H     H_    0.656535 0.891836 0.371911 0.148809
H20   H     H_    0.653964 0.874799 0.458631 0.122187
H21   H     H_    0.577324 0.791796 0.348066 0.197991
O32   O     O_3   0.265545 0.257036 0.647368 -0.584171
C80   C     C_3   0.328684 0.234332 0.682280 -0.188546
H22   H     H_    0.311553 0.167400 0.638940 0.164185
H23   H     H_    0.332095 0.236895 0.742690 0.167382
H24   H     H_    0.393678 0.280257 0.698121 0.203097
O33   O     O_3   0.144975 0.731475 0.270229 -0.539592
C81   C     C_3   0.149378 0.671089 0.298068 -0.327938
H25   H     H_    0.094884 0.605871 0.249564 0.140426
H26   H     H_    0.150441 0.689685 0.360737 0.157724
H27   H     H_    0.209921 0.668295 0.306192 0.178776
O34   O     O_3   0.068219 0.417920 0.778010 -0.523682
C82   C     C_3   0.999889 0.424460 0.724587 -0.269193
H28   H     H_    0.968872 0.375072 0.656411 0.137027
H29   H     H_    0.026240 0.488648 0.728570 0.187004
H30   H     H_    0.950998 0.420005 0.746414 0.151814
C83   C     C_2   0.860954 0.645165 0.008368 0.876792
O35   O     O_2   0.799650 0.582965 0.942391 -0.551465
O36   O     O_R   0.933853 0.694347 0.006933 -0.702095
H31   H     H_    0.976559 0.749819 0.062590 0.299056
C84   C     C_2   0.019718 0.267406 0.966622 0.971522
O37   O     O_2   0.098134 0.306923 0.002452 -0.565386
O38   O     O_R   0.977632 0.277411 0.015159 -0.697581
H32   H     H_    0.912960 0.249659 0.979100 0.290277
O39   O     O_3   0.719174 0.666984 0.003458 -0.511302
C85   C     C_3   0.741523 0.742997 0.996537 -0.256143
H33   H     H_    0.804287 0.765499 0.996637 0.148982
H34   H     H_    0.743577 0.795366 0.048338 0.137718
H35   H     H_    0.691501 0.728947 0.934889 0.181020
O40   O     O_3   0.914638 0.096561 0.910811 -0.530704
C86   C     C_3   0.828678 0.071962 0.894829 -0.283907
H36   H     H_    0.802438 0.111779 0.873964 0.114032
H37   H     H_    0.826960 0.080171 0.954879 0.182489
H38   H     H_    0.785731 0.002961 0.846430 0.180398
C87   C     C_2   0.697776 0.729605 0.151198 0.914757
O41   O     O_2   0.627312 0.684736 0.086836 -0.516254
O42   O     O_R   0.710179 0.798285 0.221615 -0.706474
H39   H     H_    0.658311 0.808545 0.209866 0.348926
C88   C     C_2   0.855312 0.960338 0.744367 0.886576
O43   O     O_2   0.879663 0.938587 0.798230 -0.562963
O44   O     O_R   0.790913 0.897575 0.661165 -0.778978
H40   H     H_    0.769381 0.837449 0.654444 0.313284
O45   O     O_3   0.822085 0.743873 0.299728 -0.546660
C89   C     C_3   0.798198 0.662146 0.295390 -0.299955
H41   H     H_    0.783767 0.663253 0.347714 0.210581
H42   H     H_    0.850862 0.644640 0.302570 0.151707
H43   H     H_    0.739121 0.610796 0.234139 0.155945
O46   O     O_3   0.865280 0.015257 0.623051 -0.574048
C90   C     C_3   0.797637 0.029117 0.579531 -0.284508
H44   H     H_    0.778880 0.998602 0.511013 0.198722
H45   H     H_    0.815863 0.098169 0.599067 0.133010
H46   H     H_    0.741664 0.000362 0.588545 0.174556
C91   C     C_2   0.154141 0.851905 0.411355 0.909674
O47   O     O_2   0.217646 0.899840 0.413166 -0.581729
O48   O     O_R   0.160630 0.845535 0.484446 -0.765662
H47   H     H_    0.220517 0.885567 0.535379 0.328377
C92   C     C_2   0.077438 0.297582 0.651422 0.872933
O49   O     O_2   0.042617 0.253905 0.573844 -0.622743
O50   O     O_R   0.154951 0.373977 0.693974 -0.712716
H48   H     H_    0.175052 0.385837 0.653493 0.313598
O51   O     O_3   0.480757 0.534082 0.298753 -0.503940
C93   C     C_3   0.474561 0.456830 0.243248 -0.146575
H49   H     H_    0.488496 0.462078 0.191937 0.137877
H50   H     H_    0.409780 0.400909 0.213619 0.137138
H51   H     H_    0.522827 0.442943 0.280669 0.196363
O52   O     O_3   0.522302 0.319612 0.557756 -0.525748
C94   C     C_3   0.526471 0.267837 0.486595 -0.157193
H52   H     H_    0.509319 0.201644 0.477524 0.133454
H53   H     H_    0.591417 0.297760 0.492327 0.135143
H54   H     H_    0.479277 0.261155 0.427747 0.210286
C95   C     C_2   0.522014 0.631010 0.213758 0.979001
O53   O     O_2   0.536153 0.679259 0.183806 -0.552291
O54   O     O_R   0.589986 0.622410 0.262625 -0.722968
H55   H     H_    0.645919 0.658196 0.266583 0.356031
C96   C     C_2   0.482504 0.189079 0.607183 0.891091
O55   O     O_2   0.471168 0.125703 0.617048 -0.551755
O56   O     O_R   0.410967 0.192215 0.556066 -0.741113
H56   H     H_    0.354976 0.137414 0.528457 0.320016
O57   O     O_3   0.375002 0.594128 0.071042 -0.539498
C97   C     C_3   0.342555 0.652331 0.067013 -0.178067
H57   H     H_    0.370571 0.707777 0.131501 0.137025
H58   H     H_    0.270998 0.619503 0.035793 0.181920
H59   H     H_    0.361235 0.678665 0.027531 0.180796
O58   O     O_3   0.634349 0.189398 0.712920 -0.532015
C98   C     C_3   0.656747 0.210276 0.798527 -0.211173
H60   H     H_    0.618413 0.238510 0.819964 0.140322
H61   H     H_    0.726877 0.254602 0.842010 0.179259
H62   H     H_    0.641941 0.150167 0.803163 0.165570
O59   O     O_3   0.211761 0.468767 0.028677 -0.562379
C99   C     C_3   0.233445 0.417414 0.974259 -0.119384
H63   H     H_    0.174187 0.358148 0.921534 0.175853
H64   H     H_    0.277149 0.395949 0.006898 0.126287
H65   H     H_    0.261806 0.451902 0.944634 0.205816
O60   O     O_3   0.796069 0.314420 0.761145 -0.562452
C100  C     C_3   0.795041 0.265651 0.685358 -0.353625
H66   H     H_    0.851935 0.255125 0.702160 0.180320
H67   H     H_    0.798306 0.300201 0.647606 0.142472
H68   H     H_    0.737525 0.200733 0.645319 0.197024
O61   O     O_3   0.084991 0.418731 0.216262 -0.526297
C101  C     C_3   0.063473 0.463372 0.275190 -0.285907
H69   H     H_    0.005715 0.467528 0.239577 0.174121
H70   H     H_    0.114913 0.529935 0.325024 0.105136
H71   H     H_    0.045858 0.425582 0.306866 0.184804
O62   O     O_3   0.905767 0.636843 0.846913 -0.542141
C102  C     C_3   0.954465 0.650740 0.805179 -0.114603
H72   H     H_    0.954300 0.590944 0.766229 0.147100
H73   H     H_    0.022382 0.697984 0.854333 0.166161
H74   H     H_    0.931488 0.679762 0.766034 0.219192
O63   O     O_3   0.582207 0.708322 0.424470 -0.558039
C103  C     C_3   0.561519 0.753969 0.484089 -0.349175
H75   H     H_    0.533848 0.791356 0.460762 0.159464
H76   H     H_    0.616660 0.799106 0.550047 0.172035
H77   H     H_    0.509749 0.707361 0.486703 0.213440
O64   O     O_3   0.386356 0.384960 0.642670 -0.560885
C104  C     C_3   0.361823 0.442869 0.684690 -0.216656
H78   H     H_    0.330651 0.418554 0.718609 0.213254
H79   H     H_    0.318926 0.456807 0.640470 0.120910
H80   H     H_    0.420817 0.504865 0.733606 0.191202
C105  C     C_2   0.738631 0.530177 0.499794 0.912269
O65   O     O_2   0.738401 0.489515 0.538789 -0.583543
O66   O     O_R   0.692367 0.486635 0.410495 -0.769768
H81   H     H_    0.657094 0.422232 0.385964 0.306077
C106  C     C_2   0.265845 0.271501 0.296794 0.984708
O67   O     O_2   0.253059 0.316044 0.264477 -0.564048
O68   O     O_R   0.325246 0.242232 0.291324 -0.753258
H82   H     H_    0.358651 0.268134 0.265561 0.312076
O69   O     O_3   0.909018 0.594316 0.619480 -0.565796
C107  C     C_3   0.931390 0.545441 0.564252 -0.268798
H83   H     H_    0.995866 0.585593 0.574472 0.192502
H84   H     H_    0.882500 0.513916 0.495771 0.140065
H85   H     H_    0.934865 0.493568 0.579174 0.171545
O70   O     O_3   0.097123 0.168024 0.176795 -0.524869
C108  C     C_3   0.042169 0.205415 0.166845 -0.087302
H86   H     H_    0.074676 0.273190 0.218694 0.197122
H87   H     H_    0.981232 0.166911 0.164121 0.121495
H88   H     H_    0.024973 0.206175 0.105418 0.244582

loop_
_geom_bond_atom_site_label_1
_geom_bond_atom_site_label_2
_geom_bond_distance
_ccdc_geom_bond_type
C30   O28   1.386611 S    
C87   O41   1.222822 D    
C105  O66   1.398859 S    
C84   O37   1.218187 D    
O9    C45   1.306740 A    
C17   C19   1.413107 A    
C55   O39   1.385714 S    
C100  H66   1.103100 S    
C73   H1    1.116721 S    
C40   C42   1.399279 A    
C56   O40   1.387218 S    
C97   H59   1.109135 S    
O7    Cu2   1.981824 S    
O30   C78   1.412740 S    
C24   C48   1.482232 S    
C79   H21   1.107863 S    
C73   H2    1.108895 S    
C75   H7    1.114368 S    
C23   C47   1.472883 S    
O29   C77   1.415411 S    
C88   O44   1.396418 S    
O42   H39   1.012784 S    
C101  H69   1.109471 S    
O5    C3    1.289015 A    
C94   H53   1.114187 S    
C85   H33   1.112594 S    
C58   C88   1.488920 S    
C2    C38   1.474158 S    
C4    C18   1.460117 S    
O1    C1    1.285483 A    
C77   H14   1.109292 S    
O17   C49   1.295171 A    
C9    C11   1.403511 A    
C97   H58   1.111504 S    
O66   H81   1.013925 S    
C98   H62   1.109248 S    
C74   H5    1.113773 S    
O68   H82   1.013994 S    
C5    O51   1.378566 S    
C80   H24   1.111014 S    
C56   C58   1.407870 A    
C5    C15   1.435079 A    
C81   H26   1.112768 S    
O12   C46   1.304538 A    
O33   C81   1.406714 S    
C53   C63   1.426543 A    
C59   O45   1.381621 S    
O26   C74   1.412044 S    
C19   O25   1.389215 S    
O54   H55   1.009730 S    
C102  H72   1.114920 S    
C26   C106  1.469950 S    
O4    Cu1   1.980749 S    
C91   O48   1.397709 S    
C28   O70   1.383718 S    
O28   C76   1.411808 S    
C67   O33   1.386186 S    
O15   Cu4   1.972494 S    
C82   H28   1.113158 S    
C33   C43   1.428359 A    
C96   O55   1.222818 D    
O24   Cu5   1.985861 S    
C42   C44   1.401154 A    
C107  H83   1.110032 S    
C39   C41   1.412049 A    
C66   C68   1.421261 A    
O18   C50   1.289513 A    
C42   O32   1.386217 S    
O61   C101  1.411650 S    
C21   C23   1.409202 A    
C93   H50   1.113874 S    
C26   C36   1.447331 A    
C93   H49   1.111635 S    
C99   H63   1.104269 S    
Cu1   Cu2   2.690552 S    
C83   O36   1.397215 S    
C74   H4    1.110267 S    
C8    C10   1.404894 A    
O20   Cu5   1.967220 S    
C40   O64   1.387052 S    
C89   H43   1.113588 S    
C62   C72   1.417711 A    
O7    C3    1.305585 A    
O19   Cu6   1.967219 S    
C20   O26   1.386793 S    
C38   C40   1.414572 A    
O2    Cu2   1.986001 S    
C37   C39   1.410501 A    
C63   C65   1.423448 A    
C28   C30   1.387706 A    
C108  H86   1.112987 S    
C25   C105  1.477204 S    
C31   C33   1.426067 A    
C103  H77   1.107206 S    
O2    C2    1.315164 A    
C68   O34   1.386882 S    
C32   C34   1.417590 A    
O48   H47   1.013729 S    
C61   C71   1.410365 A    
C81   H27   1.109374 S    
C6    O52   1.380134 S    
C29   O27   1.386451 S    
C70   C72   1.405786 A    
O58   C98   1.410760 S    
C67   C69   1.400278 A    
C34   C36   1.423352 A    
Cu5   Cu6   2.691778 S    
C86   H38   1.109287 S    
C44   C52   1.469565 S    
O23   C51   1.304181 A    
C11   C13   1.420500 A    
C6    C16   1.435512 A    
C10   O58   1.385139 S    
O11   C45   1.296108 A    
C94   H54   1.107413 S    
C103  H76   1.115094 S    
O52   C94   1.418847 S    
O14   C48   1.304003 A    
C55   C57   1.402857 A    
C95   O53   1.220941 D    
O16   Cu3   1.972494 S    
C7    C95   1.487725 S    
O34   C82   1.412177 S    
O20   C50   1.309971 A    
C35   C37   1.434596 A    
C74   H6    1.109348 S    
O22   Cu6   1.980786 S    
C86   H36   1.115263 S    
O19   C49   1.294734 A    
O21   Cu5   1.980788 S    
C90   H46   1.111280 S    
C79   H20   1.106507 S    
C22   O62   1.383753 S    
C92   O50   1.398096 S    
O64   C104  1.412197 S    
O56   H56   1.013921 S    
C21   O61   1.388839 S    
O60   C100  1.413470 S    
C14   C24   1.423894 A    
Cu3   Cu4   2.703587 S    
C86   H37   1.109344 S    
C41   C43   1.417242 A    
C22   C24   1.410021 A    
C59   C61   1.409756 A    
O57   C97   1.410912 S    
C27   O69   1.386830 S    
C98   H60   1.114061 S    
C88   O43   1.223459 D    
O13   C47   1.299866 A    
C61   C63   1.402810 A    
C85   H35   1.108968 S    
C1    C37   1.464824 S    
O13   Cu3   1.977469 S    
C60   C62   1.418331 A    
O38   H32   1.011125 S    
C12   O60   1.382888 S    
C107  H84   1.113817 S    
C3    C17   1.461350 S    
O6    C4    1.302813 A    
C57   C87   1.481067 S    
C93   H51   1.108315 S    
C62   C64   1.408800 A    
O59   C99   1.418102 S    
C104  H78   1.109489 S    
O24   C52   1.300587 A    
C100  H67   1.113744 S    
C54   C64   1.432581 A    
C97   H57   1.114239 S    
C76   H10   1.114393 S    
C64   C66   1.431567 A    
C33   C35   1.421698 A    
C76   H11   1.110317 S    
O8    C4    1.291527 A    
C45   C65   1.462693 S    
C50   C71   1.476512 S    
C46   C66   1.474608 S    
C6    C8    1.418935 A    
C49   C72   1.459494 S    
C96   O56   1.399343 S    
C104  H79   1.115025 S    
C58   C60   1.402495 A    
O44   H40   1.013412 S    
C68   C70   1.398274 A    
C108  H87   1.112140 S    
O31   C79   1.408829 S    
C12   C14   1.415951 A    
C82   H30   1.110912 S    
O4    C2    1.289500 A    
O1    Cu1   1.986001 S    
O11   Cu4   1.971709 S    
C105  O65   1.221875 D    
C25   C35   1.439876 A    
O36   H31   1.013206 S    
C41   O31   1.397645 S    
C89   H41   1.105182 S    
C25   C27   1.410702 A    
C54   C84   1.483385 S    
C69   C91   1.484548 S    
O27   C75   1.411058 S    
C76   H12   1.109284 S    
C91   O47   1.222487 D    
C5    C7    1.416784 A    
C103  H75   1.108569 S    
O6    Cu2   1.967770 S    
C89   H42   1.110874 S    
C43   C51   1.486837 S    
C104  H80   1.109224 S    
C19   C21   1.400728 A    
O22   C52   1.295182 A    
C10   C12   1.405028 A    
C81   H25   1.108860 S    
O3    C1    1.312011 A    
O8    Cu1   1.981824 S    
C13   C23   1.417551 A    
C75   H8    1.110978 S    
C80   H22   1.112026 S    
C65   C67   1.407829 A    
C79   H19   1.108973 S    
C53   C83   1.468783 S    
O3    Cu2   1.980748 S    
O45   C89   1.414442 S    
C87   O42   1.399138 S    
C99   H65   1.109354 S    
C11   O59   1.391008 S    
C16   C18   1.431296 A    
C101  H71   1.109269 S    
O14   Cu4   1.977467 S    
C53   C55   1.416773 A    
C98   H61   1.111816 S    
C102  H74   1.108735 S    
C78   H18   1.102244 S    
C82   H29   1.109121 S    
C8    C96   1.500808 S    
C78   H16   1.111376 S    
C60   O46   1.379611 S    
O9    Cu3   1.976671 S    
C27   C29   1.390503 A    
C85   H34   1.112767 S    
O10   Cu4   1.976670 S    
C90   H45   1.114357 S    
C26   C28   1.414850 A    
C20   C22   1.396194 A    
C80   H23   1.109056 S    
C14   C16   1.418463 A    
C31   O29   1.392035 S    
C90   H44   1.104033 S    
O40   C86   1.414916 S    
O39   C85   1.411894 S    
O23   Cu6   1.985862 S    
C32   O30   1.380283 S    
C107  H85   1.109331 S    
O69   C107  1.413386 S    
C18   C20   1.404982 A    
O62   C102  1.406969 S    
C7    C9    1.399113 A    
C101  H70   1.112055 S    
C100  H68   1.112068 S    
C9    O57   1.385981 S    
C106  O68   1.398760 S    
O51   C93   1.418701 S    
O18   Cu6   1.981163 S    
O15   C47   1.305901 A    
C75   H9    1.109096 S    
O17   Cu5   1.981166 S    
O32   C80   1.410905 S    
O50   H48   1.013714 S    
C36   C38   1.447896 A    
C34   C44   1.415662 A    
O12   Cu3   1.971708 S    
O5    Cu1   1.967769 S    
C13   C15   1.416071 A    
O10   C46   1.304139 A    
O70   C108  1.408332 S    
C29   C31   1.407862 A    
C70   C92   1.492272 S    
C84   O38   1.397018 S    
C92   O49   1.222137 D    
C108  H88   1.106865 S    
C77   H15   1.105906 S    
O25   C73   1.416216 S    
C95   O54   1.394326 S    
C57   C59   1.396856 A    
C30   C32   1.395490 A    
C54   C56   1.412853 A    
O46   C90   1.414365 S    
C94   H52   1.111265 S    
C102  H73   1.109049 S    
C83   O35   1.218644 D    
O63   C103  1.417310 S    
O21   C51   1.302738 A    
C69   C71   1.418512 A    
C73   H3    1.108202 S    
C39   O63   1.388561 S    
C99   H64   1.115679 S    
C106  O67   1.219942 D    
O16   C48   1.307760 A    
C77   H13   1.114908 S    
C78   H17   1.115314 S    
C15   C17   1.434082 A    
