data_mof_unit_28586.cif
_audit_creation_date              2012-12-10T17:43:40-0500
_audit_creation_method            fapswitch 2.2
_symmetry_space_group_name_H-M    P1
_symmetry_Int_Tables_number       1
_space_group_crystal_system       triclinic
_cell_length_a                    14.907829
_cell_length_b                    10.565921
_cell_length_c                    9.983768
_cell_angle_alpha                 90.890268
_cell_angle_beta                  89.085462
_cell_angle_gamma                 92.263006
_cell_volume                      1570.99111276

loop_
_atom_site_label
_atom_site_type_symbol
_atom_type_description
_atom_site_fract_x
_atom_site_fract_y
_atom_site_fract_z
_atom_type_partial_charge
C1    C     C_R   0.518737 0.265064 0.499000 0.931018
C2    C     C_R   0.183865 0.393891 0.524514 -0.156145
C3    C     C_R   0.231717 0.507506 0.503090 -0.216322
C4    C     C_R   0.327362 0.503187 0.501085 0.995656
C5    C     C_R   0.189002 0.621044 0.478035 0.285716
C6    C     C_R   0.591308 0.136731 0.735881 -0.173423
C7    C     C_R   0.586270 0.079186 0.859434 -0.172859
C8    C     C_R   0.538352 0.964354 0.873606 0.764486
C9    C     C_R   0.505009 0.900456 0.760493 -0.138043
C10   C     C_R   0.522823 0.948676 0.630241 0.024554
C11   C     C_R   0.554738 0.074811 0.622277 0.060659
C12   C     C_R   0.908579 0.605967 0.444653 0.034786
C13   C     C_R   0.549504 0.136177 0.499654 -0.171111
C14   C     C_R   0.555513 0.065296 0.381356 0.386242
C15   C     C_R   0.534325 0.937391 0.385210 -0.195210
C16   C     C_R   0.500703 0.741809 0.502050 1.019472
C17   C     C_R   0.512692 0.878716 0.507292 -0.091715
C18   C     C_R   0.385148 0.332104 0.144681 -0.083601
C19   C     C_R   0.332680 0.239902 0.080944 -0.297380
C20   C     C_R   0.332935 0.231944 0.943133 0.359393
C21   C     C_R   0.383014 0.321415 0.868094 0.591857
C22   C     C_R   0.442675 0.414278 0.929449 -0.173317
C23   C     C_R   0.948629 0.276381 0.554432 0.637087
C24   C     C_R   0.443011 0.416503 0.073711 -0.010886
C25   C     C_R   0.554692 0.579823 0.071119 0.638607
C26   C     C_R   0.554643 0.579856 0.928503 0.563085
C27   C     C_R   0.672591 0.499426 0.498778 1.009063
C28   C     C_R   0.815591 0.605279 0.449063 0.550272
C29   C     C_R   0.767877 0.498169 0.494437 -0.314163
C30   C     C_R   0.810154 0.388178 0.528705 0.614167
C31   C     C_R   0.903530 0.386029 0.522589 -0.254007
C32   C     C_R   0.952986 0.497153 0.484063 -0.154554
C33   C     C_R   0.041914 0.278106 0.552006 0.559364
C34   C     C_R   0.091043 0.390188 0.521818 -0.132083
C35   C     C_R   0.046778 0.500338 0.486893 0.012435
C36   C     C_R   0.096028 0.614325 0.456969 0.052993
C37   C     C_R   0.050694 0.716769 0.405842 -0.118358
C38   C     C_R   0.957810 0.713203 0.401296 -0.076162
F1    F     F_    0.771136 0.709254 0.412862 -0.626541
F2    F     F_    0.525355 0.913067 0.996346 -0.584021
F3    F     F_    0.611115 0.661732 0.137419 -0.559420
F4    F     F_    0.366332 0.315316 0.737596 -0.614331
F5    F     F_    0.759740 0.284159 0.565765 -0.623395
F6    F     F_    0.611361 0.661195 0.862043 -0.595002
F7    F     F_    0.903013 0.167292 0.587840 -0.536270
F8    F     F_    0.084156 0.170562 0.581215 -0.553088
H1    H     H_    0.625556 0.228720 0.728824 0.227831
H2    H     H_    0.218354 0.921606 0.913554 0.390851
H3    H     H_    0.279359 0.749870 0.703792 0.362458
H4    H     H_    0.714185 0.004247 0.225727 0.388193
H5    H     H_    0.617981 0.126676 0.943242 0.253086
H6    H     H_    0.464563 0.815873 0.779467 0.209340
H7    H     H_    0.537180 0.883620 0.292050 0.266166
H8    H     H_    0.380980 0.330230 0.250597 0.226909
H9    H     H_    0.291736 0.174087 0.140154 0.236140
H10   H     H_    0.219589 0.309010 0.545442 0.249312
H11   H     H_    0.086011 0.799004 0.365361 0.219116
H12   H     H_    0.924698 0.795066 0.364728 0.219907
N1    N     N_R   0.499150 0.498800 0.142780 -0.180957
N2    N     N_R   0.499120 0.498720 0.857170 -0.185624
O1    O     O_R   0.500000 0.316780 0.614690 -0.570870
O2    O     O_2   0.311515 0.068251 0.736349 -0.215195
O3    O     O_3   0.251903 0.986970 0.966975 -0.532150
O4    O     O_2   0.305450 0.791858 0.368459 -0.265989
O5    O     O_2   0.191398 0.879133 0.518945 -0.213240
O6    O     O_3   0.319544 0.762819 0.624815 -0.572263
O7    O     O_2   0.526439 0.155231 0.142030 -0.298334
O8    O     O_2   0.657310 0.247677 0.259166 -0.279724
O9    O     O_3   0.667698 0.020378 0.158961 -0.468051
O10   O     O_R   0.499990 0.316750 0.385360 -0.606532
O11   O     O_R   0.367850 0.499980 0.614680 -0.530490
O12   O     O_R   0.367840 0.499960 0.385350 -0.651412
O13   O     O_R   0.500010 0.683250 0.614640 -0.606663
O14   O     O_R   0.500000 0.683220 0.385310 -0.573972
O15   O     O_R   0.632160 0.500040 0.614650 -0.594460
O16   O     O_R   0.632150 0.500020 0.385320 -0.544675
O17   O     O_2   0.176846 0.162207 0.833190 -0.201474
S1    S     S_3+6 0.266636 0.111006 0.864268 0.107549
S2    S     S_3+6 0.250639 0.769074 0.493964 0.035439
S3    S     S_3+6 0.602145 0.128016 0.232717 0.060901
Zn1   Zn    Zn3+2 0.500010 0.500020 0.653130 1.073029
Zn2   Zn    Zn3+2 0.499990 0.499980 0.346870 1.096343

loop_
_geom_bond_atom_site_label_1
_geom_bond_atom_site_label_2
_ccdc_geom_bond_type
O8    S3    D    
C23   F7    S    
C27   C29   S    
C35   C36   A    
N1    Zn2   S    
C26   F6    S    
C7    C8    A    
O17   S1    D    
O6    S2    S    
C29   C30   A    
C12   C28   A    
C16   O14   A    
C15   H7    S    
C28   C29   A    
H4    O9    S    
C18   C19   A    
C22   N2    A    
C30   C31   A    
C10   C17   A    
C5    C36   A    
C34   C35   A    
C38   H12   S    
C19   C20   A    
C8    C9    A    
C23   C33   A    
C18   C24   A    
C14   S3    S    
C5    S2    S    
C9    C10   A    
C2    C34   A    
C21   C22   A    
C12   C32   A    
C33   F8    S    
C9    H6    S    
O14   Zn2   S    
C27   O15   A    
O13   Zn1   S    
H3    O6    S    
C16   O13   A    
C32   C35   A    
C6    H1    S    
C25   F3    S    
C6    C11   A    
O15   Zn1   S    
H2    O3    S    
C28   F1    S    
C25   C26   A    
C23   C31   A    
C37   C38   A    
N2    Zn1   S    
C31   C32   A    
O5    S2    D    
C33   C34   A    
O4    S2    D    
C22   C24   A    
C30   F5    S    
C1    C13   S    
O16   Zn2   S    
C3    C4    S    
C4    O12   A    
C19   H9    S    
C15   C17   A    
C36   C37   A    
O2    S1    D    
O7    S3    D    
C3    C5    A    
C1    O1    A    
C6    C7    A    
C25   N1    A    
C1    O10   A    
C20   S1    S    
C2    C3    A    
C7    H5    S    
O1    Zn1   S    
C11   C13   A    
C16   C17   S    
C24   N1    A    
C12   C38   A    
O10   Zn2   S    
O12   Zn2   S    
C10   C11   A    
C18   H8    S    
C21   F4    S    
C20   C21   A    
C14   C15   A    
O9    S3    S    
C2    H10   S    
C8    F2    S    
C13   C14   A    
C26   N2    A    
C4    O11   A    
C37   H11   S    
C27   O16   A    
O11   Zn1   S    
O3    S1    S    
