data_mof_unit_41340.cif
_audit_creation_date              2013-03-05T15:55:45-0500
_audit_creation_method            fapswitch 2.2
_symmetry_space_group_name_H-M    P1
_symmetry_Int_Tables_number       1
_space_group_crystal_system       triclinic
_cell_length_a                    10.676857
_cell_length_b                    12.368605
_cell_length_c                    13.166687
_cell_angle_alpha                 116.181984
_cell_angle_beta                  77.812848
_cell_angle_gamma                 101.056351
_cell_volume                      1515.52439455

loop_
_atom_site_label
_atom_site_type_symbol
_atom_site_description
_atom_site_fract_x
_atom_site_fract_y
_atom_site_fract_z
_atom_type_partial_charge
O1    O     O_R   0.537510 0.972500 0.318130 -0.566454
O2    O     O_R   0.487140 0.806530 0.359650 -0.632588
C1    C     C_R   0.506366 0.854687 0.287085 0.834986
O3    O     O_R   0.708330 0.082950 0.479220 -0.536504
O4    O     O_R   0.657960 0.916980 0.520740 -0.570050
C2    C     C_R   0.739684 0.999818 0.500928 0.873572
Cu1   Cu    Cu3+1 0.529830 0.098270 0.475420 1.035940
Cu2   Cu    Cu3+1 0.470170 0.901730 0.524580 1.039745
O5    O     O_R   0.512860 0.193470 0.640350 -0.610185
O6    O     O_R   0.462490 0.027500 0.681870 -0.531245
O7    O     O_R   0.342040 0.083020 0.479260 -0.583701
O8    O     O_R   0.291670 0.917050 0.520780 -0.563867
C3    C     C_R   0.486363 0.144510 0.713624 0.856830
C4    C     C_R   0.260007 0.001127 0.500506 0.935539
C5    C     C_3   0.979912 0.991181 0.399686 -0.191560
C6    C     C_3   0.039205 0.899648 0.419788 0.229725
C7    C     C_3   0.123837 0.002791 0.500752 -0.240929
C8    C     C_3   0.064994 0.096423 0.482073 -0.123834
C9    C     C_3   0.957626 0.105694 0.585305 -0.167819
C10   C     C_3   0.017444 0.011550 0.601847 0.238890
C11   C     C_3   0.934449 0.907111 0.520827 0.221653
C12   C     C_3   0.875169 0.999368 0.502601 -0.195787
H1    H     H_    0.119377 0.171833 0.461837 0.239205
C13   C     C_R   0.406412 0.266070 0.035884 -0.197240
C14   C     C_R   0.474638 0.226057 0.836434 -0.153191
C15   C     C_R   0.533535 0.816991 0.082892 -0.101357
C16   C     C_R   0.544559 0.740197 0.967402 -0.047796
C17   C     C_R   0.523191 0.615266 0.931949 -0.119881
C18   C     C_R   0.482047 0.563560 0.012200 0.110740
C19   C     C_R   0.457899 0.643065 0.130069 0.124228
C20   C     C_R   0.463694 0.435638 0.979740 0.111249
C21   C     C_R   0.416517 0.390127 0.063989 0.097771
C22   C     C_R   0.377899 0.468559 0.175836 -0.190107
C23   C     C_R   0.393804 0.591994 0.207385 -0.090458
C24   C     C_R   0.491504 0.351237 0.866398 -0.220646
C25   C     C_R   0.438841 0.183458 0.923312 0.366182
C26   C     C_R   0.496744 0.770529 0.165768 -0.078623
H2    H     H_    0.554658 0.913324 0.107185 0.216971
C27   C     C_R   0.672441 0.332888 0.307437 -0.244959
N1    N     N_R   0.575030 0.246270 0.438190 -0.263080
C28   C     C_R   0.328603 0.764906 0.648324 0.035225
C29   C     C_R   0.283296 0.669873 0.680922 0.187526
C30   C     C_R   0.343006 0.561628 0.624776 0.240525
C31   C     C_R   0.450177 0.550086 0.535535 -0.144175
C32   C     C_R   0.487373 0.650732 0.504724 0.166284
C33   C     C_R   0.521395 0.444671 0.473616 -0.017563
C34   C     C_R   0.612478 0.438326 0.375387 -0.038856
C35   C     C_R   0.645277 0.538157 0.347361 0.293199
C36   C     C_R   0.587736 0.643040 0.415274 -0.144957
C37   C     C_R   0.509443 0.345168 0.503937 0.028476
C38   C     C_R   0.656454 0.239702 0.341536 0.515492
N2    N     N_R   0.425760 0.754330 0.561190 -0.231933
N3    N     N_R   0.081064 0.789958 0.324201 0.174347
O9    O     O_R   0.000432 0.718983 0.254521 -0.215263
O10   O     O_R   0.203152 0.778547 0.292699 -0.399488
H3    H     H_    0.525759 0.380855 0.799061 0.174892
H4    H     H_    0.537392 0.562515 0.840858 0.150376
H5    H     H_    0.573470 0.777791 0.904543 0.205238
H6    H     H_    0.350095 0.643852 0.292962 0.214356
N4    N     N_R   0.733059 0.141636 0.277269 0.138293
O11   O     O_R   0.728510 0.082171 0.168125 -0.346916
O12   O     O_R   0.836965 0.143744 0.315051 -0.332577
N5    N     N_R   0.742506 0.537759 0.253038 0.138614
O13   O     O_R   0.724848 0.586445 0.188147 -0.339249
O14   O     O_R   0.856112 0.507533 0.243307 -0.241777
H7    H     H_    0.734925 0.321848 0.228238 0.228235
H8    H     H_    0.452525 0.344695 0.580882 0.199490
H9    H     H_    0.282578 0.847408 0.690355 0.221915
H10   H     H_    0.963717 0.980036 0.314928 0.237958
N6    N     N_R   0.287782 0.463745 0.655605 0.122746
O15   O     O_R   0.217242 0.373207 0.588394 -0.360770
O16   O     O_R   0.290176 0.473969 0.757900 -0.328190
N7    N     N_R   0.172870 0.682994 0.768320 0.172190
O17   O     O_R   0.152674 0.789489 0.849528 -0.245792
O18   O     O_R   0.083114 0.592924 0.758811 -0.227802
H11   H     H_    0.626376 0.718533 0.395616 0.220963
H12   H     H_    0.922253 0.190354 0.654374 0.206898
N8    N     N_R   0.033874 0.024696 0.714118 0.166862
O19   O     O_R   0.933582 0.031639 0.791553 -0.233399
O20   O     O_R   0.148410 0.041272 0.741327 -0.345627
N9    N     N_R   0.865358 0.804949 0.544330 0.146055
O21   O     O_R   0.897940 0.696235 0.481552 -0.286051
O22   O     O_R   0.778435 0.823580 0.634143 -0.276091
N10   N     N_R   0.438327 0.058592 0.900251 0.127331
O23   O     O_R   0.542432 0.005531 0.848986 -0.309450
O24   O     O_R   0.346218 0.007249 0.951931 -0.298847
H13   H     H_    0.334049 0.434311 0.239666 0.162164
H14   H     H_    0.375451 0.233424 0.102351 0.177756

loop_
_geom_bond_atom_site_label_1
_geom_bond_atom_site_label_2
_geom_bond_distance
_ccdc_geom_bond_type
C5    C8    1.553324 S    
C27   C38   1.381297 A    
N5    O14   1.301331 A    
C6    C11   1.527190 S    
C28   C29   1.392591 A    
C9    C10   1.542407 S    
N9    O21   1.299809 A    
Cu1   Cu2   2.711941 S    
C17   H4    1.076003 S    
Cu1   O7    1.969455 S    
C15   C16   1.386026 A    
C13   C25   1.394069 A    
C17   C18   1.418108 A    
N10   O24   1.301035 A    
O4    C2    1.294617 A    
O7    C4    1.295253 A    
N8    O20   1.299925 A    
C5    C6    1.537082 S    
C2    C12   1.452468 S    
C7    C10   1.534744 S    
N4    O12   1.299750 A    
C8    C9    1.558767 S    
N7    O17   1.301355 A    
C9    H12   1.110175 S    
O5    C3    1.308486 A    
C6    N3    1.453506 S    
C5    C12   1.542596 S    
C34   C35   1.401833 A    
C6    C7    1.531298 S    
Cu1   N1    2.043833 S    
N6    O15   1.299148 A    
C37   H8    1.067551 S    
Cu2   N2    2.031855 S    
C28   N2    1.351485 A    
C11   C12   1.530692 S    
N7    O18   1.301243 A    
C4    C7    1.457250 S    
C3    C14   1.473570 S    
O3    Cu1   1.964099 S    
N9    O22   1.300378 A    
C31   C33   1.457165 A    
C22   C23   1.379470 A    
C28   H9    1.080833 S    
N3    O10   1.296822 A    
C5    H10   1.109467 S    
C19   C23   1.418156 A    
C8    H1    1.106509 S    
C9    C12   1.545099 S    
N10   O23   1.301500 A    
O3    C2    1.297226 A    
N8    O19   1.300210 A    
C15   H2    1.078857 S    
C35   N5    1.439539 S    
C32   N2    1.379685 A    
N3    O9    1.298610 A    
C16   H5    1.083137 S    
C19   C26   1.433894 A    
N4    O11   1.300595 A    
O1    C1    1.321729 A    
C30   C31   1.434328 A    
C13   C21   1.398317 A    
C18   C19   1.422524 A    
C20   C21   1.416852 A    
C32   C36   1.397064 A    
Cu2   O8    1.964101 S    
C7    C8    1.546622 S    
C36   H11   1.062774 S    
C13   H14   1.084744 S    
C14   C24   1.403338 A    
C35   C36   1.382025 A    
C11   N9    1.458700 S    
C30   N6    1.427227 S    
C23   H6    1.074164 S    
C27   H7    1.080130 S    
C20   C24   1.400736 A    
C29   C30   1.414358 A    
C31   C32   1.435257 A    
C27   C34   1.399945 A    
Cu1   O5    1.947910 S    
C33   C34   1.425934 A    
C29   N7    1.440958 S    
C24   H3    1.073459 S    
O1    Cu1   1.962120 S    
O2    Cu2   1.947910 S    
O8    C4    1.298021 A    
O6    C3    1.305322 A    
O4    Cu2   1.969454 S    
C15   C26   1.400388 A    
N1    C38   1.360394 A    
C33   C37   1.429039 A    
C10   N8    1.459056 S    
C21   C22   1.384256 A    
O2    C1    1.297024 A    
C22   H13   1.084862 S    
C18   C20   1.429749 A    
C25   N10   1.435657 S    
N1    C37   1.369018 A    
C14   C25   1.414990 A    
N5    O13   1.301433 A    
C10   C11   1.528373 S    
C1    C26   1.485455 S    
Cu2   O6    1.962119 S    
C16   C17   1.389569 A    
N6    O16   1.301438 A    
C38   N4    1.427854 S    
