data_mof_unit_14785.cif
_audit_creation_date              2013-03-05T15:46:46-0500
_audit_creation_method            fapswitch 2.2
_symmetry_space_group_name_H-M    P1
_symmetry_Int_Tables_number       1
_space_group_crystal_system       triclinic
_cell_length_a                    10.227621
_cell_length_b                    10.800553
_cell_length_c                    12.194415
_cell_angle_alpha                 90.560487
_cell_angle_beta                  109.01742
_cell_angle_gamma                 95.760794
_cell_volume                      1265.79603505

loop_
_atom_site_label
_atom_site_type_symbol
_atom_site_description
_atom_site_fract_x
_atom_site_fract_y
_atom_site_fract_z
_atom_type_partial_charge
O1    O     O_R   0.936910 0.692950 0.509080 -0.567933
O2    O     O_R   0.138320 0.658600 0.480130 -0.626041
C1    C     C_R   0.049728 0.732253 0.489232 0.938950
O3    O     O_R   0.002900 0.525670 0.675280 -0.544091
O4    O     O_R   0.204310 0.491320 0.646330 -0.597886
C2    C     C_R   0.132900 0.508574 0.714945 0.967804
Zn1   Zn    Zn3+2 0.865520 0.522940 0.519330 1.038549
Zn2   Zn    Zn3+2 0.134480 0.477060 0.480670 0.972782
O5    O     O_R   0.861680 0.341400 0.519870 -0.629538
O6    O     O_R   0.063090 0.307050 0.490920 -0.578453
O7    O     O_R   0.795690 0.508680 0.353670 -0.634307
O8    O     O_R   0.997100 0.474330 0.324720 -0.626616
C3    C     C_R   0.945894 0.267351 0.503109 0.995638
C4    C     C_R   0.866317 0.487956 0.285626 0.839784
C5    C     C_R   0.724317 0.329712 0.991385 -0.178527
H1    H     H_    0.920004 0.334433 0.128530 0.160487
H2    H     H_    0.508658 0.233536 0.815796 0.188223
H3    H     H_    0.749105 0.257498 0.941445 0.156931
C6    C     C_R   0.789754 0.465338 0.163098 -0.057076
C7    C     C_R   0.160810 0.589188 0.914308 0.476528
C8    C     C_R   0.251415 0.621600 0.026207 -0.233518
C9    C     C_R   0.381940 0.580202 0.063969 -0.239896
C10   C     C_R   0.423614 0.499552 0.992294 0.059329
C11   C     C_R   0.324518 0.451118 0.886575 -0.093243
C12   C     C_R   0.559631 0.463662 0.023465 0.112694
C13   C     C_R   0.591061 0.370100 0.956599 0.113434
C14   C     C_R   0.486828 0.311569 0.861152 -0.274467
C15   C     C_R   0.352021 0.346376 0.828740 0.337376
C16   C     C_R   0.665244 0.516927 0.121111 -0.254010
C17   C     C_R   0.822612 0.374905 0.096476 -0.233816
C18   C     C_R   0.202568 0.511239 0.840984 -0.193271
H4    H     H_    0.651152 0.594290 0.171075 0.143875
H5    H     H_    0.446053 0.610703 0.150964 0.152116
H6    H     H_    0.222867 0.684236 0.082407 0.158033
H7    H     H_    0.075503 0.103080 0.432996 0.193166
H8    H     H_    0.866102 0.890251 0.465186 0.202013
C19   C     C_2   0.071335 0.863496 0.471544 -0.338785
C20   C     C_2   0.966249 0.931165 0.461664 -0.130408
H9    H     H_    0.821195 0.094484 0.518742 0.156941
C21   C     C_2   0.908867 0.134414 0.493992 -0.298704
C22   C     C_2   0.987456 0.063568 0.457596 -0.113752
H10   H     H_    0.171321 0.904913 0.468287 0.162591
H11   H     H_    0.561444 0.420703 0.425074 0.120156
H12   H     H_    0.423241 0.600686 0.552474 0.208513
N1    N     N_2   0.313640 0.446500 0.454900 -0.205580
C23   C     C_2   0.428134 0.518817 0.502518 -0.066719
N2    N     N_2   0.686360 0.553430 0.545150 0.007475
C24   C     C_2   0.565078 0.492787 0.488945 -0.077917
H13   H     H_    0.320543 0.368990 0.407959 0.164394
N3    N     N_R   0.694015 0.638462 0.634319 0.278211
O9    O     O_R   0.782441 0.737896 0.653418 -0.353270
O10   O     O_R   0.640787 0.605877 0.714697 -0.448773
O11   O     O_3   0.039190 0.645212 0.872432 -0.579194
C25   C     C_3   0.946141 0.605490 0.932709 0.164513
H14   H     H_    0.992554 0.554884 0.013187 0.097787
H15   H     H_    0.860052 0.540746 0.874144 0.211258
C26   C     C_3   0.886460 0.718001 0.966036 -0.719514
H16   H     H_    0.837740 0.770425 0.888069 0.307627
H17   H     H_    0.806418 0.687164 0.006196 0.208048
H18   H     H_    0.970628 0.780542 0.029348 0.219774
N4    N     N_R   0.241620 0.265050 0.748297 0.210561
O12   O     O_R   0.267530 0.195766 0.671463 -0.397879
O13   O     O_R   0.122746 0.242472 0.765935 -0.432377

loop_
_geom_bond_atom_site_label_1
_geom_bond_atom_site_label_2
_geom_bond_distance
_ccdc_geom_bond_type
O4    Zn2   1.909522 S    
N3    O10   1.302682 A    
C10   C11   1.411271 A    
Zn2   O6    1.927486 S    
Zn1   O5    1.957300 S    
C19   C20   1.333742 D    
C5    H3    1.083729 S    
H11   C24   1.085177 S    
N2    C24   1.308229 D    
N1    H13   1.030675 S    
Zn2   O8    1.959798 S    
C15   N4    1.439073 S    
H8    C20   1.088313 S    
N3    O9    1.299370 A    
C13   C14   1.390139 A    
C11   C18   1.415672 A    
C16   H4    1.077777 S    
C6    C16   1.384687 A    
O6    C3    1.287188 A    
O11   C25   1.417786 S    
Zn1   O7    1.909522 S    
C26   H16   1.109616 S    
N4    O12   1.302281 A    
C20   C22   1.428492 S    
O3    Zn1   1.959798 S    
C8    C9    1.384668 A    
C21   C22   1.333368 D    
H12   C23   1.083367 S    
O2    C1    1.294079 A    
N2    N3    1.393728 S    
C23   C24   1.515699 S    
C10   C12   1.412975 A    
C12   C16   1.392551 A    
O4    C2    1.300302 A    
H7    C22   1.088319 S    
O7    C4    1.296078 A    
C25   H15   1.109538 S    
C26   H17   1.109360 S    
Zn2   N1    2.014937 S    
C3    C21   1.441374 S    
H9    C21   1.087372 S    
H1    C17   1.083082 S    
H2    C14   1.084068 S    
N1    C23   1.297255 D    
C14   C15   1.396541 A    
C7    C8    1.394530 A    
C1    C19   1.441808 S    
C5    C17   1.393145 A    
O3    C2    1.291426 A    
C19   H10   1.087382 S    
N4    O13   1.302243 A    
C9    H5    1.077201 S    
O5    C3    1.293478 A    
C25   H14   1.116319 S    
C5    C13   1.404959 A    
C2    C18   1.467007 S    
C8    H6    1.083312 S    
O1    C1    1.286801 A    
C12   C13   1.417486 A    
O1    Zn1   1.927484 S    
C6    C17   1.398308 A    
C4    C6    1.448209 S    
C25   C26   1.521622 S    
C9    C10   1.416615 A    
O2    Zn2   1.957298 S    
C11   C15   1.426138 A    
O8    C4    1.289729 A    
C7    O11   1.384671 S    
C26   H18   1.110540 S    
C7    C18   1.413154 A    
Zn1   N2    2.015021 S    
