data_mof_unit_26225.cif
_audit_creation_date              2013-03-05T16:38:12-0500
_audit_creation_method            fapswitch 2.2
_symmetry_space_group_name_H-M    P1
_symmetry_Int_Tables_number       1
_space_group_crystal_system       triclinic
_cell_length_a                    16.024572
_cell_length_b                    14.771232
_cell_length_c                    10.769282
_cell_angle_alpha                 90.426856
_cell_angle_beta                  89.771692
_cell_angle_gamma                 90.253436
_cell_volume                      2549.00222782

loop_
_atom_site_label
_atom_site_type_symbol
_atom_site_description
_atom_site_fract_x
_atom_site_fract_y
_atom_site_fract_z
_atom_type_partial_charge
O1    O     O_R   0.380310 0.575320 0.500060 -0.567511
O2    O     O_R   0.380310 0.424680 0.500060 -0.534021
C1    C     C_R   0.340869 0.499895 0.498344 0.863879
O3    O     O_R   0.499990 0.575340 0.317720 -0.595443
O4    O     O_R   0.499990 0.424660 0.317720 -0.585916
C2    C     C_R   0.502327 0.499647 0.259601 0.799147
Cu1   Cu    Cu3+1 0.500000 0.589220 0.500040 1.056203
Cu2   Cu    Cu3+1 0.500000 0.410780 0.500040 1.040122
O5    O     O_R   0.619690 0.575360 0.500000 -0.551941
O6    O     O_R   0.619690 0.424640 0.500000 -0.588902
O7    O     O_R   0.500010 0.575340 0.682340 -0.504235
O8    O     O_R   0.500010 0.424660 0.682340 -0.589064
C3    C     C_R   0.659017 0.500150 0.498851 0.839878
C4    C     C_R   0.501128 0.500357 0.740883 0.914267
C5    C     C_3   0.570384 0.566341 0.074810 -0.478495
C6    C     C_3   0.417119 0.531116 0.075669 -0.483446
H1    H     H_    0.632562 0.544756 0.108526 0.195993
H2    H     H_    0.366229 0.493520 0.123429 0.181136
H3    H     H_    0.559551 0.633568 0.118674 0.177751
H4    H     H_    0.409319 0.602892 0.105266 0.170019
C7    C     C_3   0.567153 0.574159 0.929754 0.676270
C8    C     C_3   0.410744 0.522842 0.930567 0.672867
H5    H     H_    0.583823 0.379875 0.106881 0.198515
H6    H     H_    0.474172 0.354924 0.099512 0.233063
H7    H     H_    0.591189 0.388380 0.895904 0.224401
H8    H     H_    0.486070 0.351974 0.890266 0.241565
C9    C     C_3   0.523122 0.404024 0.069969 -0.356371
C10   C     C_3   0.503221 0.499512 0.122366 -0.003707
C11   C     C_3   0.501614 0.501544 0.879324 -0.105154
C12   C     C_3   0.527385 0.406199 0.927915 -0.502768
C13   C     C_R   0.956323 0.578583 0.449831 0.222999
C14   C     C_R   0.955617 0.420977 0.519109 0.228288
C15   C     C_R   0.912337 0.500170 0.486648 -0.231967
C16   C     C_R   0.043337 0.420666 0.515671 0.331757
C17   C     C_R   0.044240 0.578605 0.451780 0.312631
C18   C     C_R   0.087271 0.499928 0.485446 -0.177931
C19   C     C_1   0.822698 0.500495 0.491075 0.203741
C20   C     C_1   0.176931 0.500165 0.489483 0.112851
C21   C     C_1   0.251847 0.499883 0.493774 -0.124402
C22   C     C_1   0.747846 0.500453 0.495050 -0.057137
C23   C     C_R   0.575714 0.953091 0.514727 0.344655
C24   C     C_R   0.574503 0.049124 0.517020 0.365440
C25   C     C_R   0.500423 0.902789 0.504777 -0.307329
C26   C     C_R   0.499053 0.097096 0.503324 -0.307219
C27   C     C_R   0.424313 0.950685 0.495094 0.234794
C28   C     C_R   0.423653 0.047246 0.494812 0.232382
C29   C     C_1   0.500855 0.802585 0.501351 0.323894
C30   C     C_1   0.499621 0.197409 0.501379 0.348241
N1    N     N_1   0.499980 0.276710 0.500040 -0.154532
N2    N     N_1   0.499980 0.723290 0.500040 -0.152003
N3    N     N_R   0.347521 0.901620 0.477791 0.158177
O9    O     O_R   0.297032 0.923822 0.388839 -0.352011
O10   O     O_R   0.329069 0.832852 0.547702 -0.399487
N4    N     N_R   0.345454 0.094209 0.491770 0.159918
O11   O     O_R   0.285417 0.070861 0.566833 -0.350635
O12   O     O_R   0.334548 0.161569 0.416462 -0.373004
O13   O     O_3   0.537913 0.662007 0.896738 -0.579809
C31   C     C_3   0.594281 0.733590 0.924813 0.100381
H9    H     H_    0.622257 0.757580 0.836687 0.173891
H10   H     H_    0.646348 0.713860 0.987201 0.150266
C32   C     C_3   0.545602 0.811531 0.984360 -0.368745
H11   H     H_    0.496848 0.834843 0.918902 0.241463
H12   H     H_    0.514097 0.787408 0.070155 0.229066
C33   C     C_3   0.602578 0.891086 0.017465 -0.885551
H13   H     H_    0.651937 0.869319 0.082793 0.275997
H14   H     H_    0.565334 0.945358 0.062762 0.272844
H15   H     H_    0.632084 0.919043 0.932508 0.238499
O14   O     O_3   0.382506 0.605872 0.878260 -0.583468
C34   C     C_3   0.303460 0.633699 0.924653 0.085298
H16   H     H_    0.313472 0.688196 0.994826 0.150495
H17   H     H_    0.267112 0.578379 0.969765 0.162828
C35   C     C_3   0.251401 0.671943 0.818952 -0.301167
H18   H     H_    0.285521 0.729132 0.775077 0.254262
H19   H     H_    0.241044 0.618436 0.747499 0.236789
C36   C     C_3   0.167115 0.705416 0.867106 -0.897313
H20   H     H_    0.131135 0.648609 0.908447 0.276510
H21   H     H_    0.130278 0.733816 0.789893 0.244980
H22   H     H_    0.176191 0.759321 0.938313 0.272724
N5    N     N_R   0.650363 0.557417 0.873133 0.064238
O15   O     O_R   0.703536 0.502526 0.923643 -0.391742
O16   O     O_R   0.669552 0.592999 0.766549 -0.395350
N6    N     N_R   0.353013 0.448945 0.892705 0.086283
O17   O     O_R   0.330965 0.385041 0.968928 -0.377479
O18   O     O_R   0.323814 0.446515 0.780176 -0.363086
O19   O     O_3   0.088098 0.655062 0.416160 -0.553762
C37   C     C_3   0.096986 0.713456 0.519846 0.067494
H23   H     H_    0.151173 0.691046 0.575714 0.152626
H24   H     H_    0.040140 0.714984 0.580267 0.142665
C38   C     C_3   0.113275 0.809495 0.473891 -0.264933
H25   H     H_    0.171187 0.810137 0.417007 0.277327
H26   H     H_    0.060634 0.831071 0.414251 0.246920
C39   C     C_3   0.122117 0.876484 0.581725 -0.795069
H27   H     H_    0.063637 0.878508 0.637399 0.234018
H28   H     H_    0.134670 0.945252 0.545051 0.285882
H29   H     H_    0.174675 0.856956 0.642617 0.287066
O20   O     O_3   0.086259 0.342367 0.543100 -0.535169
C40   C     C_3   0.093603 0.289873 0.433355 0.072369
H30   H     H_    0.140834 0.321063 0.370480 0.149811
H31   H     H_    0.033001 0.283654 0.383101 0.157946
C41   C     C_3   0.121941 0.194865 0.467570 -0.254859
H32   H     H_    0.182054 0.199880 0.517971 0.290972
H33   H     H_    0.074979 0.163334 0.530259 0.240928
C42   C     C_3   0.132733 0.135144 0.352360 -0.777438
H34   H     H_    0.072358 0.127596 0.302895 0.240760
H35   H     H_    0.154428 0.066992 0.380162 0.290297
H36   H     H_    0.179714 0.165144 0.288451 0.282937
N7    N     N_R   0.912624 0.658414 0.410872 0.144783
O21   O     O_R   0.848591 0.688029 0.473424 -0.386108
O22   O     O_R   0.939021 0.704281 0.315685 -0.312750
N8    N     N_R   0.911127 0.339827 0.552269 0.135044
O23   O     O_R   0.850809 0.309876 0.482439 -0.399483
O24   O     O_R   0.936499 0.290515 0.644224 -0.327618
O25   O     O_3   0.648890 0.096249 0.528497 -0.552285
C43   C     C_3   0.659679 0.121092 0.654614 0.000956
H37   H     H_    0.677488 0.060853 0.709600 0.143225
H38   H     H_    0.601935 0.150796 0.696072 0.128430
C44   C     C_3   0.729019 0.191946 0.664036 -0.242850
H39   H     H_    0.787950 0.163208 0.626241 0.266412
H40   H     H_    0.711768 0.251882 0.607998 0.257490
C45   C     C_3   0.742866 0.222053 0.798286 -0.826951
H41   H     H_    0.684805 0.251680 0.837564 0.241934
H42   H     H_    0.792842 0.274290 0.801718 0.304228
H43   H     H_    0.762068 0.163607 0.855689 0.250117
O26   O     O_3   0.652425 0.910486 0.508517 -0.556212
C46   C     C_3   0.671260 0.869031 0.622872 0.062709
H44   H     H_    0.652513 0.796590 0.617879 0.179135
H45   H     H_    0.639301 0.901247 0.704113 0.089677
C47   C     C_3   0.765545 0.874691 0.643305 -0.287951
H46   H     H_    0.798448 0.847218 0.560372 0.282728
H47   H     H_    0.784463 0.946704 0.655003 0.215854
C48   C     C_3   0.792360 0.821690 0.757369 -0.858741
H48   H     H_    0.762056 0.849502 0.842216 0.242471
H49   H     H_    0.861075 0.827100 0.768352 0.264462
H50   H     H_    0.775488 0.749060 0.746573 0.299185

loop_
_geom_bond_atom_site_label_1
_geom_bond_atom_site_label_2
_geom_bond_distance
_ccdc_geom_bond_type
C6    C10   1.545713 S    
C8    C11   1.587121 S    
C32   C33   1.525922 S    
N7    O22   1.301195 A    
C23   C24   1.418763 A    
C17   C18   1.404594 A    
H6    C9    1.113078 S    
C48   H50   1.110596 S    
C47   H46   1.110452 S    
C40   H30   1.114030 S    
O13   C31   1.419251 S    
Cu1   Cu2   2.635777 S    
O19   C37   1.413142 S    
Cu1   O7    1.975436 S    
C14   N8    1.438551 S    
C8    N6    1.483596 S    
C23   O26   1.384620 S    
C16   O20   1.382655 S    
C19   C22   1.200052 T    
C44   H40   1.111707 S    
C20   C21   1.201601 T    
Cu2   O6    1.927975 S    
O7    C4    1.278770 A    
C37   H24   1.117555 S    
C27   N3    1.437428 S    
C31   H10   1.114466 S    
C5    H1    1.110709 S    
C34   H17   1.114655 S    
O5    C3    1.279626 A    
N8    O23   1.300992 A    
C41   H32   1.109481 S    
C3    C22   1.423862 S    
C2    C10   1.477915 S    
C26   C28   1.415096 A    
O14   C34   1.421109 S    
C46   C47   1.529522 S    
N7    O21   1.300813 A    
C13   C15   1.411725 A    
H5    C9    1.113405 S    
C38   H26   1.111490 S    
C45   H43   1.110844 S    
C6    H4    1.112254 S    
C31   C32   1.529104 S    
C1    C21   1.427592 S    
C9    C12   1.531641 S    
C23   C25   1.418145 A    
C28   N4    1.435589 S    
C32   H11   1.111879 S    
C24   C26   1.412895 A    
C35   C36   1.527795 S    
C41   H33   1.112025 S    
C40   H31   1.116725 S    
C45   H42   1.110146 S    
C43   H37   1.111441 S    
C29   N2    1.171290 T    
N4    O12   1.301142 A    
N3    O9    1.301166 A    
C33   H15   1.109793 S    
C35   H19   1.111380 S    
C44   C45   1.526235 S    
N5    O16   1.301185 A    
C37   H23   1.111421 S    
O3    Cu1   1.972612 S    
C31   H9    1.107911 S    
C27   C28   1.426425 A    
C7    C11   1.591963 S    
O6    C3    1.278787 A    
C39   H29   1.109924 S    
C15   C19   1.437054 S    
O1    C1    1.278523 A    
C14   C16   1.406054 A    
C34   C35   1.527138 S    
C5    H3    1.110525 S    
C36   H20   1.110857 S    
C7    O13   1.429473 S    
C11   C12   1.563891 S    
C36   H21   1.107777 S    
C24   O25   1.383207 S    
Cu2   O8    1.972397 S    
O20   C40   1.413496 S    
C7    N5    1.484963 S    
C39   H28   1.109874 S    
C42   H35   1.110103 S    
C38   C39   1.526680 S    
C25   C27   1.417264 A    
C8    O14   1.429505 S    
O3    C2    1.277893 A    
C30   N1    1.171551 T    
O8    C4    1.279628 A    
H8    C12   1.112138 S    
N6    O18   1.300975 A    
C46   H44   1.111101 S    
C13   C17   1.409072 A    
C4    C11   1.490924 S    
C48   H48   1.110019 S    
C47   C48   1.525777 S    
C42   H34   1.111082 S    
C40   C41   1.525172 S    
C45   H41   1.110775 S    
O25   C43   1.415311 S    
H7    C12   1.109814 S    
Cu1   O5    1.929775 S    
N4    O11   1.301168 A    
C6    C8    1.570204 S    
O1    Cu1   1.928036 S    
C13   N7    1.440116 S    
C32   H12   1.111360 S    
O2    Cu2   1.929841 S    
Cu1   N2    1.980382 S    
C35   H18   1.111578 S    
C48   H49   1.110393 S    
C37   C38   1.526984 S    
C47   H47   1.111178 S    
O4    Cu2   1.975650 S    
C43   H38   1.115994 S    
C14   C15   1.409532 A    
C18   C20   1.437585 S    
O2    C1    1.280915 A    
C44   H39   1.111554 S    
C33   H13   1.110864 S    
C17   O19   1.383421 S    
C5    C10   1.545589 S    
O4    C2    1.276647 A    
C39   H27   1.110885 S    
C42   H36   1.110992 S    
C16   C18   1.403175 A    
C41   C42   1.526707 S    
C34   H16   1.111586 S    
C36   H22   1.110843 S    
N8    O24   1.301206 A    
C43   C44   1.526215 S    
N5    O15   1.302195 A    
C5    C7    1.568342 S    
C6    H2    1.111260 S    
N6    O17   1.302285 A    
C9    C10   1.549279 S    
C46   H45   1.116509 S    
N3    O10   1.301179 A    
C38   H25   1.109977 S    
C25   C29   1.480368 S    
Cu2   N1    1.980379 S    
C26   C30   1.482044 S    
C33   H14   1.110376 S    
O26   C46   1.413698 S    
