data_mof_unit_44609.cif
_audit_creation_date              2013-03-05T15:41:24-0500
_audit_creation_method            fapswitch 2.2
_symmetry_space_group_name_H-M    P1
_symmetry_Int_Tables_number       1
_space_group_crystal_system       triclinic
_cell_length_a                    18.446619
_cell_length_b                    18.613779
_cell_length_c                    34.441948
_cell_angle_alpha                 89.98568
_cell_angle_beta                  90.022687
_cell_angle_gamma                 89.99694
_cell_volume                      11826.0303601

loop_
_atom_site_label
_atom_site_type_symbol
_atom_site_description
_atom_site_fract_x
_atom_site_fract_y
_atom_site_fract_z
_atom_type_partial_charge
Zn1   Zn    Zn3+2 0.414160 0.000000 0.467250 1.068752
Zn2   Zn    Zn3+2 0.000000 0.414160 0.467250 1.085260
Zn3   Zn    Zn3+2 0.585840 0.000000 0.467250 1.069069
Zn4   Zn    Zn3+2 0.000000 0.585840 0.467250 1.091628
Zn5   Zn    Zn3+2 0.914160 0.500000 0.967250 1.068857
Zn6   Zn    Zn3+2 0.500000 0.914160 0.967250 1.084070
Zn7   Zn    Zn3+2 0.085840 0.500000 0.967250 1.069097
Zn8   Zn    Zn3+2 0.500000 0.085840 0.967250 1.084066
Zn9   Zn    Zn3+2 0.500000 0.085780 0.532750 0.962782
Zn10  Zn    Zn3+2 0.914220 0.500000 0.532750 0.960776
Zn11  Zn    Zn3+2 0.500000 0.914220 0.532750 0.982266
Zn12  Zn    Zn3+2 0.085780 0.500000 0.532750 0.958144
Zn13  Zn    Zn3+2 0.000000 0.585780 0.032750 0.967223
Zn14  Zn    Zn3+2 0.414220 1.000000 0.032750 0.956572
Zn15  Zn    Zn3+2 0.000000 0.414220 0.032750 0.967026
Zn16  Zn    Zn3+2 0.585780 1.000000 0.032750 0.956553
O1    O     O_3   0.500000 0.000000 0.500000 -0.511352
O2    O     O_3   0.000000 0.500000 0.500000 -0.510029
O3    O     O_3   0.000000 0.500000 0.000000 -0.506265
O4    O     O_3   0.500000 0.000000 0.000000 -0.509281
O5    O     O_R   0.500000 0.939870 0.587440 -0.644847
O6    O     O_R   0.060130 0.500000 0.587440 -0.654046
O7    O     O_R   0.500000 0.060130 0.587440 -0.644833
O8    O     O_R   0.939870 0.500000 0.587440 -0.656686
O9    O     O_R   0.000000 0.439870 0.087440 -0.645483
O10   O     O_R   0.560130 1.000000 0.087440 -0.656402
O11   O     O_R   0.000000 0.560130 0.087440 -0.645310
O12   O     O_R   0.439870 1.000000 0.087440 -0.656413
O13   O     O_R   0.439940 1.000000 0.412560 -0.619619
O14   O     O_R   0.000000 0.439940 0.412560 -0.621625
O15   O     O_R   0.560060 1.000000 0.412560 -0.630456
O16   O     O_R   0.000000 0.560060 0.412560 -0.617048
O17   O     O_R   0.939940 0.500000 0.912560 -0.632461
O18   O     O_R   0.500000 0.939940 0.912560 -0.620538
O19   O     O_R   0.060060 0.500000 0.912560 -0.632384
O20   O     O_R   0.500000 0.060060 0.912560 -0.620791
O21   O     O_R   0.415450 0.144560 0.522930 -0.676930
O22   O     O_R   0.855440 0.415450 0.522930 -0.673624
O23   O     O_R   0.584550 0.855440 0.522930 -0.671414
O24   O     O_R   0.144560 0.584550 0.522930 -0.680502
O25   O     O_R   0.584550 0.144560 0.522930 -0.663861
O26   O     O_R   0.144560 0.415450 0.522930 -0.648662
O27   O     O_R   0.415450 0.855440 0.522930 -0.617868
O28   O     O_R   0.855440 0.584550 0.522930 -0.645184
O29   O     O_R   0.915450 0.644560 0.022930 -0.675461
O30   O     O_R   0.355440 0.915450 0.022930 -0.674040
O31   O     O_R   0.084550 0.355440 0.022930 -0.675677
O32   O     O_R   0.644560 0.084550 0.022930 -0.674008
O33   O     O_R   0.084550 0.644560 0.022930 -0.663649
O34   O     O_R   0.644560 0.915450 0.022930 -0.645859
O35   O     O_R   0.915450 0.355440 0.022930 -0.663761
O36   O     O_R   0.355440 0.084550 0.022930 -0.645906
O37   O     O_R   0.644640 0.915430 0.477080 -0.597141
O38   O     O_R   0.084570 0.644640 0.477080 -0.583681
O39   O     O_R   0.355360 0.084570 0.477080 -0.595290
O40   O     O_R   0.915430 0.355360 0.477080 -0.594473
O41   O     O_R   0.355360 0.915430 0.477080 -0.614694
O42   O     O_R   0.915430 0.644640 0.477080 -0.598874
O43   O     O_R   0.644640 0.084570 0.477080 -0.607075
O44   O     O_R   0.084570 0.355360 0.477080 -0.597902
O45   O     O_R   0.144640 0.415430 0.977080 -0.599574
O46   O     O_R   0.584570 0.144640 0.977080 -0.594760
O47   O     O_R   0.855360 0.584570 0.977080 -0.599942
O48   O     O_R   0.415430 0.855360 0.977080 -0.594910
O49   O     O_R   0.855360 0.415430 0.977080 -0.608560
O50   O     O_R   0.415430 0.144640 0.977080 -0.597402
O51   O     O_R   0.144640 0.584570 0.977080 -0.608426
O52   O     O_R   0.584570 0.855360 0.977080 -0.597277
C1    C     C_R   0.500037 0.999995 0.605809 0.804679
C2    C     C_R   0.000003 0.499971 0.605880 0.806889
C3    C     C_R   0.000034 0.499979 0.105801 0.802914
C4    C     C_R   0.500006 0.999950 0.105877 0.804748
C5    C     C_R   0.499974 0.999981 0.394087 0.820380
C6    C     C_R   0.000087 0.499981 0.394166 0.823104
C7    C     C_R   0.999986 0.500027 0.894068 0.830818
C8    C     C_R   0.500011 0.000007 0.894169 0.824957
C9    C     C_R   0.360210 0.136924 0.500796 0.816005
C10   C     C_R   0.862358 0.360630 0.500919 0.830926
C11   C     C_R   0.639841 0.863174 0.500826 0.820408
C12   C     C_R   0.138240 0.638902 0.500520 0.810417
C13   C     C_R   0.637229 0.139568 0.499013 0.829202
C14   C     C_R   0.140140 0.362854 0.499285 0.783404
C15   C     C_R   0.362561 0.860436 0.498901 0.762846
C16   C     C_R   0.859845 0.637095 0.499211 0.784121
C17   C     C_R   0.860228 0.636797 0.000765 0.820777
C18   C     C_R   0.362425 0.860540 0.000987 0.827083
C19   C     C_R   0.139772 0.363202 0.000784 0.820834
C20   C     C_R   0.637579 0.139470 0.000994 0.827121
C21   C     C_R   0.137317 0.639528 0.999086 0.828455
C22   C     C_R   0.640200 0.862906 0.999331 0.782586
C23   C     C_R   0.862655 0.360483 0.999092 0.828823
C24   C     C_R   0.359826 0.137113 0.999330 0.782707
C25   C     C_2   0.209110 0.734555 0.470843 0.212743
C26   C     C_2   0.274104 0.217444 0.470681 0.242702
C27   C     C_2   0.801266 0.252170 0.478129 0.257497
C28   C     C_2   0.725658 0.782337 0.470875 0.248333
C29   C     C_2   0.793759 0.741816 0.472801 0.218991
C30   C     C_2   0.757140 0.189238 0.487707 0.224527
C31   C     C_2   0.206196 0.258366 0.472633 0.219721
C32   C     C_2   0.252202 0.800470 0.474824 0.177057
C33   C     C_2   0.699301 0.247042 0.977605 0.257409
C34   C     C_2   0.776743 0.719712 0.970728 0.236574
C35   C     C_2   0.300565 0.753079 0.977551 0.257002
C36   C     C_2   0.223464 0.280529 0.970782 0.236967
C37   C     C_2   0.291697 0.239998 0.972041 0.224200
C38   C     C_2   0.256776 0.689681 0.986668 0.224965
C39   C     C_2   0.708519 0.760282 0.971915 0.224232
C40   C     C_2   0.743123 0.310410 0.986740 0.225166
C41   C     C_2   0.190240 0.698099 0.503289 0.246925
C42   C     C_2   0.298278 0.185570 0.503579 0.215513
C43   C     C_2   0.815948 0.298062 0.507424 0.195862
C44   C     C_2   0.702050 0.814912 0.503657 0.214619
C45   C     C_2   0.794062 0.680012 0.493254 0.196054
C46   C     C_2   0.685602 0.200742 0.493096 0.196201
C47   C     C_2   0.205756 0.319382 0.493781 0.202411
C48   C     C_2   0.318950 0.796349 0.491019 0.225288
C49   C     C_2   0.684282 0.202024 0.007276 0.197099
C50   C     C_2   0.798124 0.685046 0.003360 0.221996
C51   C     C_2   0.315701 0.797998 0.007245 0.197240
C52   C     C_2   0.201876 0.314949 0.003429 0.221449
C53   C     C_2   0.294109 0.180758 0.994553 0.204354
C54   C     C_2   0.185526 0.700873 0.993238 0.200736
C55   C     C_2   0.705934 0.819257 0.994613 0.204531
C56   C     C_2   0.814396 0.299179 0.993245 0.200555
C57   C     C_R   0.935294 0.510950 0.668481 -0.168083
C58   C     C_R   0.498123 0.935004 0.668580 -0.158594
C59   C     C_R   0.064616 0.488953 0.668527 -0.169739
C60   C     C_R   0.502458 0.064968 0.668564 -0.158204
C61   C     C_R   0.438397 0.022297 0.168457 -0.170357
C62   C     C_R   0.992613 0.435289 0.168525 -0.153376
C63   C     C_R   0.561333 0.976709 0.168516 -0.169519
C64   C     C_R   0.009101 0.564303 0.168555 -0.151703
C65   C     C_R   0.999975 0.499951 0.648304 -0.074508
C66   C     C_R   0.500201 0.999988 0.648318 -0.094196
C67   C     C_R   0.499956 0.999709 0.148296 -0.071622
C68   C     C_R   0.000461 0.499879 0.148295 -0.099843
C69   C     C_R   0.065278 0.486466 0.709108 -0.037366
C70   C     C_R   0.504849 0.065992 0.709157 -0.032473
C71   C     C_R   0.934621 0.513759 0.709064 -0.036814
C72   C     C_R   0.495762 0.933985 0.709175 -0.033246
C73   C     C_R   0.561242 0.973556 0.209134 -0.036161
C74   C     C_R   0.012565 0.564896 0.209136 -0.034207
C75   C     C_R   0.438188 0.024942 0.209075 -0.036085
C76   C     C_R   0.990495 0.434403 0.209131 -0.034163
C77   C     C_R   0.999955 0.500157 0.729496 -0.013410
C78   C     C_R   0.500287 0.999993 0.729574 -0.014271
C79   C     C_R   0.499704 0.999277 0.229523 -0.015787
C80   C     C_R   0.001586 0.499616 0.229545 -0.015273
C81   C     C_R   0.129826 0.471180 0.729645 0.177797
C82   C     C_R   0.510731 0.131527 0.729686 0.177083
C83   C     C_R   0.870092 0.529267 0.729569 0.175869
C84   C     C_R   0.489869 0.868456 0.729724 0.175773
C85   C     C_R   0.621393 0.945786 0.229723 0.181964
C86   C     C_R   0.026064 0.629320 0.229674 0.177876
C87   C     C_R   0.377704 0.052061 0.229598 0.181593
C88   C     C_R   0.978570 0.369681 0.229675 0.179268
C89   C     C_R   0.619539 0.942863 0.270570 0.387795
C90   C     C_R   0.029847 0.628113 0.270491 0.388479
C91   C     C_R   0.379455 0.055054 0.270448 0.388893
C92   C     C_R   0.975514 0.370565 0.270521 0.385636
C93   C     C_R   0.128397 0.466804 0.770447 0.387150
C94   C     C_R   0.514144 0.130872 0.770521 0.383770
C95   C     C_R   0.871579 0.533707 0.770381 0.388226
C96   C     C_R   0.486339 0.869129 0.770554 0.383885
C97   C     C_R   0.560486 0.972783 0.290787 -0.016451
C98   C     C_R   0.014118 0.564269 0.290741 -0.020109
C99   C     C_R   0.438848 0.025856 0.290735 -0.017807
C100  C     C_R   0.989311 0.434837 0.290772 -0.014155
C101  C     C_R   0.064538 0.484503 0.790702 -0.016628
C102  C     C_R   0.506142 0.065631 0.790770 -0.015743
C103  C     C_R   0.935414 0.515926 0.790670 -0.016817
C104  C     C_R   0.494264 0.934380 0.790786 -0.015535
C105  C     C_R   0.499682 0.999318 0.270296 -0.068076
C106  C     C_R   0.001611 0.499577 0.270303 -0.065277
C107  C     C_R   0.999969 0.500204 0.770243 -0.067068
C108  C     C_R   0.500237 0.000001 0.770327 -0.064479
C109  C     C_R   0.560702 0.975506 0.331394 -0.170846
C110  C     C_R   0.011717 0.563872 0.331327 -0.157885
C111  C     C_R   0.438875 0.023678 0.331359 -0.162245
C112  C     C_R   0.990507 0.435567 0.331376 -0.160728
C113  C     C_R   0.063967 0.485805 0.831308 -0.167380
C114  C     C_R   0.504572 0.064880 0.831356 -0.161308
C115  C     C_R   0.935980 0.514544 0.831283 -0.167363
C116  C     C_R   0.495679 0.935147 0.831371 -0.161124
C117  C     C_R   0.499876 0.999783 0.351636 -0.092670
C118  C     C_R   0.000641 0.499840 0.351655 -0.094199
C119  C     C_R   0.999968 0.500118 0.851580 -0.090519
C120  C     C_R   0.500078 0.000016 0.851665 -0.092818
H1    H     H_    0.885844 0.518344 0.652137 0.204999
H2    H     H_    0.497946 0.885329 0.652342 0.210374
H3    H     H_    0.114065 0.481293 0.652230 0.203881
H4    H     H_    0.502658 0.114644 0.652313 0.208018
H5    H     H_    0.391286 0.038941 0.152062 0.200802
H6    H     H_    0.987442 0.385909 0.152254 0.209797
H7    H     H_    0.608530 0.960182 0.152175 0.200026
H8    H     H_    0.013854 0.613767 0.152313 0.209750
H9    H     H_    0.607672 0.957350 0.347520 0.211704
H10   H     H_    0.019235 0.613389 0.347316 0.220294
H11   H     H_    0.391955 0.041924 0.347469 0.214448
H12   H     H_    0.982678 0.386150 0.347422 0.217065
H13   H     H_    0.113246 0.474873 0.847364 0.212358
H14   H     H_    0.507441 0.114869 0.847352 0.218620
H15   H     H_    0.886706 0.525467 0.847323 0.212309
H16   H     H_    0.492761 0.885160 0.847380 0.218750
N1    N     N_R   0.191733 0.709599 0.432294 0.182058
O53   O     O_R   0.183698 0.755756 0.404266 -0.336839
O54   O     O_R   0.196598 0.641657 0.423718 -0.462363
N2    N     N_R   0.313182 0.216111 0.434360 0.194836
O55   O     O_R   0.278499 0.228394 0.402144 -0.352919
O56   O     O_R   0.383733 0.215414 0.433704 -0.459184
N3    N     N_R   0.814036 0.268754 0.437819 0.208497
O57   O     O_R   0.819899 0.216619 0.412867 -0.337458
O58   O     O_R   0.805362 0.333948 0.424939 -0.426693
N4    N     N_R   0.685672 0.782283 0.434815 0.194590
O59   O     O_R   0.719637 0.769110 0.402498 -0.357675
O60   O     O_R   0.615100 0.782607 0.434632 -0.462052
N5    N     N_R   0.858012 0.773369 0.456646 0.215558
O61   O     O_R   0.876294 0.838099 0.466957 -0.284367
O62   O     O_R   0.885484 0.746607 0.425010 -0.290435
N6    N     N_R   0.792821 0.122062 0.496292 0.219258
O63   O     O_R   0.769441 0.080636 0.524052 -0.404787
O64   O     O_R   0.855816 0.108529 0.480973 -0.265562
N7    N     N_R   0.142355 0.228326 0.455194 0.217289
O65   O     O_R   0.122979 0.163305 0.464336 -0.285556
O66   O     O_R   0.116578 0.256916 0.423594 -0.293395
N8    N     N_R   0.220651 0.866977 0.462121 0.223626
O67   O     O_R   0.158319 0.886540 0.476236 -0.293039
O68   O     O_R   0.243274 0.896506 0.430090 -0.291645
N9    N     N_R   0.686211 0.229686 0.937419 0.206967
O69   O     O_R   0.679719 0.281360 0.912220 -0.344140
O70   O     O_R   0.695015 0.164313 0.924856 -0.419168
N10   N     N_R   0.819220 0.721978 0.935510 0.193346
O71   O     O_R   0.787980 0.739626 0.903028 -0.364615
O72   O     O_R   0.889705 0.719387 0.936606 -0.449315
N11   N     N_R   0.313557 0.770551 0.937369 0.206988
O73   O     O_R   0.319902 0.718955 0.912130 -0.344242
O74   O     O_R   0.304825 0.835981 0.924857 -0.419057
N12   N     N_R   0.181164 0.278421 0.935486 0.193450
O75   O     O_R   0.212601 0.261040 0.903035 -0.364952
O76   O     O_R   0.110668 0.280846 0.936462 -0.449095
N13   N     N_R   0.353313 0.267588 0.951421 0.216460
O77   O     O_R   0.372393 0.334152 0.956665 -0.287911
O78   O     O_R   0.376440 0.234017 0.920692 -0.308328
N14   N     N_R   0.292795 0.622145 0.993864 0.218776
O79   O     O_R   0.271450 0.580137 0.021836 -0.407193
O80   O     O_R   0.354587 0.608909 0.977131 -0.268461
N15   N     N_R   0.647127 0.733077 0.950936 0.216744
O81   O     O_R   0.628048 0.666395 0.955733 -0.288036
O82   O     O_R   0.624276 0.767263 0.920327 -0.309042
N16   N     N_R   0.707133 0.377916 0.994031 0.218773
O83   O     O_R   0.728740 0.419906 0.021949 -0.408498
O84   O     O_R   0.645111 0.391080 0.977497 -0.268610
O85   O     O_3   0.205386 0.728671 0.539404 -0.648230
C121  C     C_3   0.239151 0.679524 0.565084 0.174165
H17   H     H_    0.289291 0.705332 0.576270 0.191191
H18   H     H_    0.257393 0.628537 0.551145 0.146114
C122  C     C_3   0.189175 0.664908 0.599727 -0.374981
H19   H     H_    0.182250 0.715293 0.616643 0.235626
H20   H     H_    0.134810 0.647755 0.589433 0.240947
C123  C     C_3   0.220034 0.606786 0.626230 -0.850238
H21   H     H_    0.221737 0.554601 0.610661 0.269352
H22   H     H_    0.184896 0.600852 0.652195 0.273535
H23   H     H_    0.275527 0.621375 0.635965 0.279112
O86   O     O_3   0.251795 0.185566 0.535840 -0.669951
C124  C     C_3   0.285417 0.168927 0.571676 0.056199
H24   H     H_    0.254879 0.198161 0.594548 0.174507
H25   H     H_    0.341799 0.189388 0.573992 0.148526
C125  C     C_3   0.280210 0.088345 0.580642 -0.299022
H26   H     H_    0.222624 0.071067 0.578919 0.254203
H27   H     H_    0.311602 0.056733 0.559144 0.198434
C126  C     C_3   0.309306 0.071763 0.621147 -0.916499
H28   H     H_    0.366071 0.090792 0.623939 0.267845
H29   H     H_    0.308067 0.012871 0.626262 0.268087
H30   H     H_    0.275491 0.098540 0.643555 0.272267
O87   O     O_3   0.802939 0.274858 0.545333 -0.650514
C127  C     C_3   0.761081 0.324377 0.566966 0.113560
H31   H     H_    0.711308 0.296216 0.576793 0.150511
H32   H     H_    0.742179 0.372147 0.550239 0.133675
C128  C     C_3   0.803801 0.347017 0.603084 -0.322635
H33   H     H_    0.812523 0.299256 0.621901 0.235181
H34   H     H_    0.857814 0.368071 0.594518 0.242747
C129  C     C_3   0.763919 0.404529 0.626221 -0.858469
H35   H     H_    0.761092 0.454945 0.609125 0.267151
H36   H     H_    0.793755 0.415479 0.653578 0.282295
H37   H     H_    0.708243 0.386360 0.633595 0.276713
O88   O     O_3   0.749143 0.815706 0.535692 -0.668405
C130  C     C_3   0.716555 0.834715 0.571439 0.030886
H38   H     H_    0.747471 0.806645 0.594608 0.178484
H39   H     H_    0.660117 0.814767 0.574479 0.152525
C131  C     C_3   0.722521 0.915774 0.578930 -0.261069
H40   H     H_    0.780180 0.932533 0.576543 0.268300
H41   H     H_    0.690860 0.946318 0.557080 0.213086
C132  C     C_3   0.694467 0.935041 0.619281 -0.917740
H42   H     H_    0.637546 0.916844 0.622723 0.264190
H43   H     H_    0.696479 0.994188 0.623347 0.276532
H44   H     H_    0.728468 0.909228 0.641959 0.270636
O89   O     O_3   0.727798 0.648998 0.503087 -0.645403
C133  C     C_3   0.716092 0.650331 0.543700 0.158341
H45   H     H_    0.674657 0.691930 0.549934 0.152948
H46   H     H_    0.765318 0.663225 0.561251 0.145678
C134  C     C_3   0.685650 0.577772 0.556617 -0.380445
H47   H     H_    0.636519 0.564957 0.539241 0.234620
H48   H     H_    0.726569 0.535038 0.551419 0.243734
C135  C     C_3   0.665370 0.578627 0.599568 -0.873111
H49   H     H_    0.714092 0.589305 0.617602 0.303954
H50   H     H_    0.642466 0.525679 0.607931 0.273102
H51   H     H_    0.624006 0.620679 0.605307 0.276099
O90   O     O_3   0.657656 0.267535 0.481978 -0.659712
C136  C     C_3   0.605289 0.294870 0.508032 0.061567
H52   H     H_    0.618869 0.352131 0.513503 0.149195
H53   H     H_    0.605641 0.268784 0.537116 0.151155
C137  C     C_3   0.530160 0.292142 0.489155 -0.249235
H54   H     H_    0.530333 0.325781 0.462482 0.233715
H55   H     H_    0.516812 0.236274 0.480460 0.242569
C138  C     C_3   0.471676 0.319687 0.516620 -0.914582
H56   H     H_    0.468923 0.285583 0.543049 0.269961
H57   H     H_    0.418440 0.317750 0.501664 0.298031
H58   H     H_    0.483084 0.376094 0.525175 0.250444
O91   O     O_3   0.272182 0.349008 0.504647 -0.658020
C139  C     C_3   0.280249 0.352051 0.545516 0.148062
H59   H     H_    0.322083 0.312288 0.553990 0.148879
H60   H     H_    0.230165 0.338888 0.562246 0.149098
C140  C     C_3   0.307686 0.426642 0.557050 -0.376816
H61   H     H_    0.357976 0.439090 0.540609 0.233178
H62   H     H_    0.266422 0.467872 0.549605 0.250572
C141  C     C_3   0.324003 0.430640 0.600411 -0.866221
H63   H     H_    0.273964 0.420276 0.617391 0.302919
H64   H     H_    0.344488 0.485049 0.607772 0.272269
H65   H     H_    0.365982 0.390503 0.608453 0.275855
O92   O     O_3   0.346252 0.729594 0.501947 -0.664700
C142  C     C_3   0.406169 0.710459 0.478351 0.084575
H66   H     H_    0.438956 0.670674 0.494790 0.181940
H67   H     H_    0.443125 0.756293 0.471928 0.151504
C143  C     C_3   0.380714 0.675408 0.440450 -0.384473
H68   H     H_    0.345350 0.628746 0.447276 0.256689
H69   H     H_    0.348939 0.714759 0.423159 0.241707
C144  C     C_3   0.444831 0.649940 0.416088 -0.873181
H70   H     H_    0.480261 0.696057 0.408386 0.284456
H71   H     H_    0.424623 0.624978 0.388879 0.265167
H72   H     H_    0.477009 0.609422 0.432342 0.269701
O93   O     O_3   0.697272 0.226643 0.044991 -0.653938
C145  C     C_3   0.733928 0.175873 0.068435 0.109501
H73   H     H_    0.782944 0.202466 0.080426 0.151779
H74   H     H_    0.754210 0.127822 0.052483 0.135936
C146  C     C_3   0.685274 0.154759 0.102647 -0.300041
H75   H     H_    0.677211 0.202330 0.121669 0.230268
H76   H     H_    0.631193 0.137573 0.091947 0.239098
C147  C     C_3   0.718329 0.093993 0.126481 -0.883080
H77   H     H_    0.720661 0.044258 0.108804 0.269704
H78   H     H_    0.684120 0.083526 0.152388 0.272501
H79   H     H_    0.773768 0.108542 0.136322 0.274488
O94   O     O_3   0.748952 0.681886 0.034419 -0.667082
C148  C     C_3   0.779108 0.658881 0.070143 0.022972
H80   H     H_    0.747289 0.685123 0.093566 0.180674
H81   H     H_    0.835684 0.677504 0.074670 0.149334
C149  C     C_3   0.771595 0.577314 0.075216 -0.258112
H82   H     H_    0.713702 0.561862 0.072007 0.270670
H83   H     H_    0.803167 0.548471 0.052694 0.217486
C150  C     C_3   0.798538 0.553470 0.115090 -0.916855
H84   H     H_    0.855972 0.569553 0.119226 0.261071
H85   H     H_    0.794670 0.494104 0.117519 0.279938
H86   H     H_    0.765018 0.578110 0.138326 0.270933
O95   O     O_3   0.302811 0.773293 0.044953 -0.653717
C151  C     C_3   0.266104 0.823982 0.068400 0.109630
H87   H     H_    0.217117 0.797316 0.080360 0.152261
H88   H     H_    0.245794 0.872060 0.052459 0.135696
C152  C     C_3   0.314720 0.845074 0.102646 -0.301532
H89   H     H_    0.322897 0.797448 0.121630 0.230833
H90   H     H_    0.368755 0.862427 0.091979 0.239072
C153  C     C_3   0.281518 0.905668 0.126521 -0.879081
H91   H     H_    0.279100 0.955485 0.108896 0.269168
H92   H     H_    0.315674 0.916075 0.152466 0.272918
H93   H     H_    0.226099 0.890966 0.136308 0.275197
O96   O     O_3   0.250871 0.317898 0.034594 -0.667058
C154  C     C_3   0.220474 0.340454 0.070322 0.024363
H94   H     H_    0.252225 0.314018 0.093729 0.180527
H95   H     H_    0.163917 0.321661 0.074686 0.149431
C155  C     C_3   0.227796 0.421981 0.075648 -0.259138
H96   H     H_    0.285656 0.437603 0.072530 0.270322
H97   H     H_    0.196185 0.451011 0.053189 0.216802
C156  C     C_3   0.200758 0.445304 0.115576 -0.916599
H98   H     H_    0.143399 0.428928 0.119646 0.261728
H99   H     H_    0.204365 0.504660 0.118171 0.279717
H100  H     H_    0.234385 0.420565 0.138757 0.270835
O97   O     O_3   0.228757 0.152595 0.008124 -0.653858
C157  C     C_3   0.224723 0.154082 0.049193 0.153319
H101  H     H_    0.185096 0.196041 0.057590 0.151379
H102  H     H_    0.276936 0.166920 0.064050 0.149454
C158  C     C_3   0.195999 0.081880 0.063783 -0.388633
H103  H     H_    0.143401 0.069885 0.049435 0.233551
H104  H     H_    0.234749 0.038472 0.056134 0.248353
C159  C     C_3   0.184817 0.082709 0.107672 -0.856365
H105  H     H_    0.237306 0.091741 0.122676 0.301794
H106  H     H_    0.162342 0.030282 0.117236 0.272350
H107  H     H_    0.146107 0.125783 0.115949 0.277858
O98   O     O_3   0.156937 0.768214 0.983696 -0.657053
C160  C     C_3   0.108194 0.794990 0.011876 0.067231
H108  H     H_    0.123762 0.851489 0.018062 0.146862
H109  H     H_    0.110898 0.766802 0.040366 0.151911
C161  C     C_3   0.031122 0.795375 0.995303 -0.242975
H110  H     H_    0.028848 0.832518 0.970054 0.236261
H111  H     H_    0.016269 0.740950 0.984831 0.250097
C162  C     C_3   0.975873 0.819424 0.025529 -0.914859
H112  H     H_    0.975490 0.781756 0.050551 0.273722
H113  H     H_    0.921129 0.819845 0.012184 0.293565
H114  H     H_    0.988755 0.874421 0.035962 0.250589
O99   O     O_3   0.771193 0.847210 0.008462 -0.654023
C163  C     C_3   0.774811 0.845393 0.049541 0.153671
H115  H     H_    0.814319 0.803336 0.057982 0.151474
H116  H     H_    0.722431 0.832498 0.064195 0.149443
C164  C     C_3   0.803487 0.917432 0.064379 -0.388626
H117  H     H_    0.856373 0.929341 0.050336 0.233320
H118  H     H_    0.765007 0.960993 0.056568 0.248384
C165  C     C_3   0.813880 0.916337 0.108328 -0.856258
H119  H     H_    0.761081 0.907494 0.123033 0.301166
H120  H     H_    0.836448 0.968604 0.118078 0.272380
H121  H     H_    0.852225 0.873034 0.116771 0.277771
O100  O     O_3   0.842921 0.231870 0.983622 -0.657143
C166  C     C_3   0.891791 0.204986 0.011734 0.067342
H122  H     H_    0.876247 0.148461 0.017882 0.147094
H123  H     H_    0.889219 0.233062 0.040252 0.151723
C167  C     C_3   0.968777 0.204672 0.995083 -0.243208
H124  H     H_    0.970907 0.167686 0.969773 0.236306
H125  H     H_    0.983606 0.259156 0.984681 0.249696
C168  C     C_3   0.024161 0.180406 0.025212 -0.915382
H126  H     H_    0.024722 0.217940 0.050282 0.273653
H127  H     H_    0.078823 0.180001 0.011795 0.293611
H128  H     H_    0.011281 0.125366 0.035589 0.250747
N17   N     N_R   0.197025 0.459447 0.709532 0.195964
O101  O     O_R   0.254758 0.494868 0.719747 -0.321501
O102  O     O_R   0.203336 0.405729 0.685601 -0.444805
N18   N     N_R   0.513743 0.199107 0.709554 0.200252
O103  O     O_R   0.470284 0.251001 0.719473 -0.317523
O104  O     O_R   0.566742 0.212449 0.685688 -0.420040
N19   N     N_R   0.802858 0.541124 0.709445 0.192784
O105  O     O_R   0.744784 0.506738 0.720119 -0.324055
O106  O     O_R   0.796936 0.594095 0.684983 -0.442656
N20   N     N_R   0.486916 0.800867 0.709618 0.201174
O107  O     O_R   0.530373 0.748993 0.719603 -0.315456
O108  O     O_R   0.433934 0.787479 0.685731 -0.415850
N21   N     N_R   0.684184 0.919355 0.209606 0.195028
O109  O     O_R   0.748475 0.941430 0.219554 -0.314860
O110  O     O_R   0.678138 0.865460 0.185764 -0.445999
N22   N     N_R   0.036709 0.696180 0.209570 0.200198
O111  O     O_R   0.000567 0.752959 0.220079 -0.304653
O112  O     O_R   0.089986 0.703110 0.185094 -0.424787
N23   N     N_R   0.314541 0.077496 0.209406 0.194547
O113  O     O_R   0.250630 0.054128 0.219170 -0.312715
O114  O     O_R   0.319688 0.131741 0.185723 -0.446805
N24   N     N_R   0.968944 0.302741 0.209538 0.199913
O115  O     O_R   0.007573 0.247065 0.219227 -0.308722
O116  O     O_R   0.914533 0.294404 0.185902 -0.424772
O117  O     O_3   0.676623 0.912485 0.291059 -0.592152
C169  C     C_3   0.672221 0.836431 0.289448 0.158455
H129  H     H_    0.727308 0.815033 0.295481 0.217833
H130  H     H_    0.656693 0.815843 0.260237 0.152577
C170  C     C_3   0.619930 0.806931 0.320220 -0.419039
H131  H     H_    0.634639 0.828826 0.349142 0.292177
H132  H     H_    0.563634 0.823801 0.313290 0.210085
C171  C     C_3   0.622247 0.725043 0.321854 -0.797771
H133  H     H_    0.605823 0.701972 0.293440 0.242930
H134  H     H_    0.584205 0.705565 0.344518 0.276320
H135  H     H_    0.677723 0.706231 0.329209 0.291684
O118  O     O_3   0.046464 0.690198 0.290940 -0.588496
C172  C     C_3   0.121973 0.704210 0.288821 0.147115
H136  H     H_    0.129847 0.762330 0.294811 0.220203
H137  H     H_    0.145245 0.694239 0.259473 0.151571
C173  C     C_3   0.164029 0.660908 0.319317 -0.396461
H138  H     H_    0.139216 0.669387 0.348294 0.300423
H139  H     H_    0.161194 0.602753 0.312247 0.210323
C174  C     C_3   0.243583 0.683288 0.320793 -0.799401
H140  H     H_    0.269885 0.673575 0.292266 0.241791
H141  H     H_    0.272286 0.651295 0.343267 0.281784
H142  H     H_    0.248400 0.741106 0.328337 0.289934
O119  O     O_3   0.321791 0.084385 0.290887 -0.589131
C175  C     C_3   0.324305 0.160490 0.288964 0.157063
H143  H     H_    0.268768 0.180629 0.295052 0.219449
H144  H     H_    0.339060 0.181114 0.259657 0.153767
C176  C     C_3   0.376160 0.191602 0.319473 -0.416704
H145  H     H_    0.362275 0.169733 0.348513 0.294037
H146  H     H_    0.432773 0.175953 0.312468 0.210203
C177  C     C_3   0.371810 0.273429 0.320755 -0.790476
H147  H     H_    0.387427 0.296496 0.292209 0.241699
H148  H     H_    0.409521 0.294150 0.343258 0.281374
H149  H     H_    0.315940 0.290986 0.328133 0.290086
O120  O     O_3   0.962569 0.307571 0.290926 -0.590699
C178  C     C_3   0.888110 0.288945 0.288779 0.139737
H150  H     H_    0.884624 0.229359 0.288918 0.218467
H151  H     H_    0.860764 0.307235 0.261621 0.142779
C179  C     C_3   0.847011 0.317916 0.324081 -0.388936
H152  H     H_    0.874693 0.300216 0.351092 0.298281
H153  H     H_    0.846737 0.377577 0.323284 0.214149
C180  C     C_3   0.768775 0.291263 0.324609 -0.779105
H154  H     H_    0.739951 0.308725 0.297901 0.237981
H155  H     H_    0.740181 0.313888 0.350191 0.299824
H156  H     H_    0.767348 0.231710 0.326572 0.282278
O121  O     O_3   0.190287 0.447683 0.790932 -0.598905
C181  C     C_3   0.202846 0.372740 0.787517 0.148329
H157  H     H_    0.260767 0.362937 0.794597 0.217737
H158  H     H_    0.194536 0.352165 0.757509 0.165433
C182  C     C_3   0.155951 0.329741 0.816012 -0.427903
H159  H     H_    0.166108 0.348940 0.846054 0.287127
H160  H     H_    0.097665 0.337717 0.809160 0.216250
C183  C     C_3   0.172694 0.249575 0.813536 -0.756674
H161  H     H_    0.161620 0.229287 0.783789 0.238104
H162  H     H_    0.137838 0.219779 0.834306 0.291428
H163  H     H_    0.230398 0.239355 0.820942 0.290980
O122  O     O_3   0.521934 0.194680 0.790940 -0.594963
C184  C     C_3   0.594608 0.219247 0.788673 0.141370
H164  H     H_    0.593427 0.278821 0.790513 0.218291
H165  H     H_    0.621928 0.205888 0.760714 0.149272
C185  C     C_3   0.639605 0.190251 0.822636 -0.401404
H166  H     H_    0.612580 0.204092 0.850475 0.294143
H167  H     H_    0.643679 0.130850 0.820477 0.217318
C186  C     C_3   0.716008 0.221708 0.822487 -0.758921
H168  H     H_    0.744210 0.207994 0.794978 0.238218
H169  H     H_    0.747531 0.199096 0.847087 0.301288
H170  H     H_    0.713828 0.281050 0.825694 0.285184
O123  O     O_3   0.809756 0.552992 0.790847 -0.598464
C187  C     C_3   0.797345 0.627950 0.787361 0.149578
H171  H     H_    0.739428 0.637869 0.794377 0.217923
H172  H     H_    0.805751 0.648463 0.757341 0.164616
C188  C     C_3   0.844266 0.670884 0.815880 -0.428438
H173  H     H_    0.834072 0.651675 0.845918 0.287129
H174  H     H_    0.902547 0.662844 0.809062 0.216214
C189  C     C_3   0.827604 0.751068 0.813394 -0.756859
H175  H     H_    0.838677 0.771365 0.783647 0.238131
H176  H     H_    0.862503 0.780814 0.834170 0.291385
H177  H     H_    0.769916 0.761339 0.820788 0.291027
O124  O     O_3   0.478478 0.805329 0.790988 -0.594883
C190  C     C_3   0.405804 0.780776 0.788641 0.141461
H178  H     H_    0.406967 0.721202 0.790504 0.218464
H179  H     H_    0.378567 0.794130 0.760642 0.148817
C191  C     C_3   0.360713 0.809793 0.822536 -0.401697
H180  H     H_    0.387644 0.795946 0.850416 0.294059
H181  H     H_    0.356664 0.869195 0.820352 0.217155
C192  C     C_3   0.284298 0.778366 0.822296 -0.759085
H182  H     H_    0.256185 0.792088 0.794746 0.237933
H183  H     H_    0.252709 0.800994 0.846849 0.301268
H184  H     H_    0.286444 0.719023 0.825523 0.285352

loop_
_geom_bond_atom_site_label_1
_geom_bond_atom_site_label_2
_geom_bond_distance
_ccdc_geom_bond_type
C116  H16   1.082772 S    
C30   N6    1.443510 S    
C164  H118  1.110556 S    
C131  C132  1.526018 S    
C170  H131  1.109951 S    
C99   C111  1.399767 A    
C190  H178  1.110957 S    
C175  H144  1.113741 S    
C144  H70   1.111077 S    
C113  C119  1.397470 A    
C102  C108  1.414338 A    
C134  H47   1.111812 S    
C192  H184  1.110853 S    
C36   N12   1.444831 S    
C129  H35   1.108961 S    
C103  C115  1.399056 A    
C162  H113  1.109378 S    
C86   C90   1.407718 A    
C160  H109  1.113680 S    
C30   C46   1.349795 D    
N16   O84   1.301024 A    
C126  H28   1.109570 S    
C172  C173  1.534140 S    
C28   N4    1.444220 S    
N14   O79   1.301753 A    
O124  C190  1.418653 S    
C168  H126  1.110875 S    
Zn12  O26   1.940948 S    
C165  H121  1.110939 S    
O34   C22   1.274362 A    
C135  H51   1.110897 S    
Zn14  O36   1.940660 S    
N7    O65   1.300638 A    
O118  C172  1.418996 S    
C78   C108  1.403610 A    
O52   C22   1.288241 A    
C130  H39   1.110329 S    
C141  H63   1.109795 S    
Zn15  O35   1.934935 S    
C72   C84   1.414271 A    
C8    C120  1.463942 S    
C83   C95   1.408336 A    
Zn4   O2    1.955610 S    
N1    O54   1.301867 A    
C54   O98   1.398898 S    
O47   C17   1.272364 A    
C34   N10   1.444928 S    
C40   C56   1.349883 D    
C37   N13   1.435451 S    
C36   C37   1.468028 S    
C148  H81   1.110674 S    
C89   O117  1.387691 S    
N12   O76   1.301645 A    
C98   C106  1.413872 A    
O92   C142  1.417660 S    
C140  H61   1.111422 S    
C139  C140  1.530326 S    
C59   C65   1.395744 A    
C166  C167  1.531777 S    
C26   N2    1.444258 S    
C159  H106  1.110263 S    
C184  H165  1.115165 S    
C145  H73   1.110386 S    
O22   C10   1.277764 A    
O28   C16   1.276814 A    
C100  C112  1.398705 A    
C87   C91   1.408435 A    
C149  C150  1.526161 S    
C80   C106  1.403778 A    
C40   N16   1.443231 S    
Zn1   O41   1.941477 S    
Zn12  O24   1.940904 S    
C157  H102  1.116382 S    
N23   O114  1.301351 A    
N9    O69   1.300852 A    
Zn16  O4    1.942869 S    
O94   C148  1.416303 S    
C141  H65   1.110944 S    
Zn1   O13   1.942920 S    
C181  H157  1.110905 S    
C178  H151  1.115675 S    
C146  C147  1.524483 S    
Zn3   O15   1.942554 S    
C25   C32   1.468383 S    
Zn4   O16   1.943913 S    
Zn5   O3    1.943773 S    
C123  H22   1.110191 S    
N18   O103  1.301056 A    
C125  H27   1.109178 S    
Zn7   O3    1.944499 S    
C180  H155  1.110178 S    
C156  H98   1.110057 S    
C168  H128  1.110732 S    
C157  C158  1.529516 S    
C133  H45   1.109057 S    
C89   C97   1.407973 A    
C144  H72   1.110848 S    
O11   C3    1.285755 A    
C183  H161  1.110889 S    
C134  C135  1.526114 S    
O49   C23   1.280021 A    
C111  H11   1.082940 S    
C63   H7    1.081578 S    
C145  C146  1.532689 S    
C154  H94   1.111062 S    
C177  H149  1.110755 S    
Zn9   O25   1.935054 S    
Zn10  O22   1.940893 S    
C170  C171  1.525855 S    
Zn13  O29   1.934745 S    
C143  C144  1.525963 S    
Zn10  O2    1.943597 S    
C147  H77   1.108995 S    
C91   C99   1.408221 A    
Zn3   O1    1.944499 S    
C152  C153  1.524534 S    
C56   O100  1.398816 S    
C128  H34   1.110658 S    
O120  C178  1.418510 S    
C55   O99   1.395395 S    
C73   C79   1.418337 A    
C110  C118  1.397223 A    
C58   C66   1.396860 A    
C187  H172  1.113006 S    
Zn4   O42   1.935628 S    
C150  H84   1.110105 S    
C191  H180  1.111202 S    
C140  H62   1.110769 S    
C155  H96   1.111472 S    
C171  H134  1.110642 S    
Zn8   O46   1.935505 S    
N19   O106  1.301328 A    
N24   O116  1.301395 A    
C97   C109  1.399543 A    
C22   C55   1.468668 S    
C82   N18   1.437297 S    
C166  H122  1.110863 S    
C186  H170  1.110851 S    
C153  H91   1.109050 S    
O8    C2    1.277977 A    
N17   O101  1.300988 A    
C100  C106  1.414354 A    
C87   N23   1.436842 S    
C190  H179  1.115170 S    
C14   C47   1.468298 S    
C91   O119  1.387749 S    
C174  H141  1.110647 S    
O16   C6    1.285418 A    
O85   C121  1.416390 S    
O14   C6    1.284532 A    
C188  C189  1.526201 S    
N4    O60   1.301845 A    
Zn15  O9    1.943316 S    
C21   C54   1.461304 S    
C84   N20   1.437267 S    
C185  C186  1.526202 S    
Zn12  O6    1.942333 S    
O40   C10   1.281749 A    
C151  H87   1.110351 S    
C122  H19   1.111605 S    
C58   H2    1.080746 S    
C60   C70   1.398898 A    
O96   C154  1.416233 S    
O45   C19   1.272545 A    
C61   C67   1.396106 A    
O17   C7    1.277923 A    
C137  H55   1.109884 S    
O86   C124  1.415345 S    
C191  C192  1.526201 S    
Zn5   O17   1.942920 S    
C13   C46   1.460981 S    
C158  C159  1.525814 S    
C121  H18   1.115672 S    
C181  H158  1.112845 S    
C163  C164  1.529452 S    
C10   C43   1.462733 S    
O9    C3    1.285352 A    
C62   C76   1.399200 A    
C63   C73   1.400194 A    
C183  H163  1.110872 S    
C93   C101  1.408400 A    
C46   O90   1.399153 S    
C92   C100  1.408120 A    
C109  H9    1.082992 S    
C182  H159  1.110620 S    
C102  C114  1.398235 A    
C51   O95   1.398093 S    
N6    O63   1.301813 A    
C81   N17   1.436962 S    
C136  H53   1.113085 S    
C31   N7    1.435263 S    
Zn10  O28   1.940660 S    
C77   C107  1.403431 A    
C88   C92   1.408071 A    
C95   O123  1.388155 S    
C3    C68   1.463592 S    
C143  H68   1.111449 S    
Zn9   O7    1.943085 S    
C4    C67   1.461024 S    
O50   C24   1.288233 A    
C121  C122  1.532419 S    
Zn10  O8    1.941970 S    
N5    O61   1.300670 A    
Zn11  O5    1.943316 S    
C147  H79   1.110782 S    
C59   H3    1.080681 S    
O5    C1    1.285743 A    
N22   O111  1.301066 A    
C60   H4    1.080767 S    
O31   C19   1.280968 A    
C76   C88   1.414257 A    
C48   O92   1.392397 S    
C132  H42   1.109694 S    
C112  H12   1.082699 S    
C60   C66   1.396915 A    
C75   C87   1.414226 A    
C64   C68   1.396664 A    
C38   C54   1.349904 D    
C169  C170  1.534884 S    
O41   C15   1.276668 A    
C34   C39   1.468220 S    
C114  C120  1.397679 A    
C125  H26   1.111463 S    
C32   N8    1.436001 S    
C124  H25   1.110456 S    
C18   C51   1.464482 S    
C112  C118  1.397997 A    
C96   O124  1.387916 S    
C167  H124  1.111638 S    
C189  H176  1.110373 S    
C96   C104  1.408006 A    
C186  H168  1.110865 S    
C131  H41   1.109091 S    
C156  H99   1.110472 S    
C154  C155  1.534568 S    
C138  H58   1.110680 S    
C45   O89   1.393687 S    
C38   N14   1.443202 S    
C123  H21   1.110110 S    
C5    C117  1.462108 S    
C188  H173  1.110635 S    
N7    O66   1.301172 A    
C192  H183  1.110227 S    
Zn1   O1    1.943773 S    
C137  C138  1.523998 S    
Zn2   O14   1.943680 S    
C122  C123  1.525359 S    
C27   N3    1.441662 S    
Zn1   O39   1.941518 S    
C133  H46   1.116799 S    
Zn2   O40   1.935627 S    
C160  H108  1.110824 S    
Zn3   O37   1.941233 S    
C73   C85   1.414356 A    
C70   C78   1.417895 A    
Zn12  O2    1.942869 S    
C71   C83   1.414120 A    
C172  H137  1.113964 S    
N14   O80   1.301016 A    
C150  H86   1.110725 S    
C142  C143  1.533020 S    
Zn7   O51   1.941462 S    
C173  H138  1.109453 S    
C129  H37   1.110796 S    
N8    O67   1.300570 A    
C182  C183  1.526215 S    
C178  H150  1.110995 S    
C141  H64   1.110350 S    
C74   C86   1.414463 A    
C36   C52   1.354291 D    
O6    C2    1.278323 A    
C104  C108  1.414304 A    
O18   C8    1.284896 A    
O122  C184  1.418633 S    
C126  H30   1.110729 S    
C165  H120  1.110253 S    
C1    C66   1.464074 S    
C170  H132  1.110729 S    
C176  H145  1.109833 S    
C32   C48   1.353690 D    
C39   C55   1.348681 D    
C47   O91   1.394782 S    
C148  H80   1.111058 S    
C176  C177  1.525870 S    
Zn14  O30   1.940893 S    
Zn15  O3    1.954697 S    
C171  H133  1.110822 S    
C52   O96   1.404000 S    
C11   C44   1.460518 S    
C69   C77   1.418003 A    
C166  H123  1.113713 S    
Zn16  O34   1.940948 S    
C132  H44   1.110723 S    
C113  H13   1.083097 S    
C123  H23   1.110784 S    
C31   C47   1.349423 D    
C184  H164  1.110953 S    
Zn2   O44   1.935315 S    
N21   O110  1.301331 A    
O27   C15   1.282458 A    
C109  C117  1.396410 A    
Zn5   O47   1.941518 S    
C131  H40   1.111492 S    
Zn8   O20   1.943913 S    
Zn6   O48   1.935627 S    
N20   O107  1.301054 A    
Zn7   O45   1.941233 S    
O35   C23   1.276985 A    
C162  H112  1.110875 S    
N2    O55   1.300807 A    
C185  H167  1.110755 S    
C12   C41   1.464048 S    
C35   N11   1.441703 S    
O95   C151  1.414766 S    
O32   C20   1.277483 A    
O24   C12   1.277651 A    
C98   C110  1.398604 A    
Zn15  O31   1.935055 S    
C146  H76   1.110474 S    
C95   C103  1.408442 A    
C99   C105  1.414059 A    
C33   C40   1.464176 S    
N18   O104  1.301410 A    
C138  H56   1.110822 S    
C180  H154  1.110855 S    
C164  C165  1.525870 S    
C168  H127  1.109376 S    
O12   C4    1.277984 A    
C85   N21   1.436834 S    
C161  C162  1.524420 S    
O48   C18   1.282168 A    
C175  H143  1.110936 S    
C144  H71   1.110441 S    
C183  H162  1.110376 S    
O38   C12   1.281651 A    
N15   O82   1.301272 A    
Zn16  O10   1.942333 S    
C82   C94   1.407870 A    
C62   C68   1.396973 A    
C181  C182  1.533787 S    
Zn13  O3    1.955156 S    
N23   O113  1.300955 A    
Zn14  O4    1.943597 S    
C162  H114  1.110718 S    
O98   C160  1.414145 S    
C160  C161  1.531840 S    
C72   C78   1.417943 A    
C161  H110  1.111626 S    
N16   O83   1.301711 A    
N1    O53   1.300569 A    
O21   C9    1.280289 A    
C26   C42   1.354219 D    
C70   C82   1.414269 A    
Zn6   O18   1.943680 S    
C179  C180  1.526213 S    
C139  H60   1.116243 S    
C174  H140  1.110789 S    
C121  H17   1.111098 S    
C115  C119  1.397609 A    
N3    O57   1.300940 A    
C94   C102  1.408038 A    
C127  C128  1.531530 S    
O25   C13   1.277556 A    
Zn5   O49   1.941477 S    
C147  H78   1.110281 S    
C137  H54   1.111650 S    
C101  C107  1.414137 A    
C130  C131  1.534722 S    
C152  H90   1.110463 S    
O10   C4    1.278214 A    
C101  C113  1.398813 A    
C134  H48   1.111148 S    
C165  H119  1.110212 S    
C191  H181  1.110748 S    
O36   C24   1.274436 A    
C81   C93   1.407900 A    
C155  H97   1.108934 S    
C148  C149  1.534518 S    
C90   C98   1.408060 A    
O97   C157  1.416759 S    
N12   O75   1.300313 A    
Zn11  O1    1.954697 S    
C114  H14   1.082775 S    
C129  H36   1.109925 S    
C7    C119  1.463349 S    
O43   C13   1.279770 A    
C159  H105  1.110157 S    
C62   H6    1.080842 S    
C184  C185  1.532129 S    
C153  H92   1.110256 S    
C79   C105  1.404302 A    
C61   C75   1.399876 A    
Zn6   O4    1.956072 S    
C171  H135  1.110715 S    
C93   O121  1.388180 S    
C33   C49   1.350236 D    
C155  C156  1.526175 S    
C157  H101  1.108234 S    
C173  H139  1.110826 S    
C128  H33   1.111691 S    
N9    O70   1.301772 A    
C142  H66   1.110961 S    
C49   O93   1.398132 S    
C188  H174  1.110643 S    
O46   C20   1.281842 A    
C41   O85   1.396160 S    
N10   O71   1.300330 A    
C151  H88   1.114555 S    
C178  C179  1.531301 S    
C92   O120  1.387659 S    
C85   C89   1.408286 A    
C17   C50   1.458422 S    
C153  H93   1.110780 S    
O91   C139  1.416556 S    
C163  H115  1.108230 S    
C177  H147  1.110849 S    
C180  H156  1.110851 S    
C164  H117  1.111362 S    
C158  H104  1.110592 S    
C169  H130  1.114036 S    
C86   N22   1.437521 S    
C133  C134  1.528837 S    
C175  C176  1.534295 S    
O23   C11   1.281091 A    
C6    C118  1.464201 S    
C88   N24   1.437166 S    
Zn8   O50   1.935628 S    
C16   C45   1.467106 S    
Zn2   O2    1.956072 S    
O89   C133  1.415680 S    
O7    C1    1.285635 A    
C83   N19   1.437541 S    
C152  H89   1.111653 S    
O26   C14   1.276201 A    
C186  H169  1.110220 S    
C76   C80   1.417746 A    
C25   N1    1.442661 S    
Zn16  O32   1.940904 S    
N6    O64   1.301047 A    
C27   C30   1.464127 S    
O123  C187  1.418954 S    
C179  H153  1.110845 S    
C136  H52   1.111007 S    
C57   C71   1.398794 A    
C75   C79   1.418107 A    
C28   C44   1.353822 D    
C58   C72   1.398983 A    
Zn8   O4    1.955610 S    
C39   N15   1.435488 S    
O37   C11   1.273767 A    
N13   O77   1.300674 A    
C63   C67   1.396168 A    
O88   C130  1.415342 S    
O39   C9    1.274840 A    
C143  H69   1.110941 S    
O15   C5    1.277793 A    
O13   C5    1.277394 A    
C97   C105  1.413933 A    
O51   C21   1.280476 A    
N22   O112  1.301454 A    
O121  C181  1.418985 S    
C128  C129  1.524153 S    
O20   C8    1.284930 A    
C145  H74   1.114538 S    
O44   C14   1.286302 A    
C130  H38   1.111051 S    
C187  H171  1.110911 S    
C2    C65   1.461190 S    
O99   C163  1.416763 S    
C173  C174  1.526343 S    
Zn11  O27   1.934935 S    
C43   O87   1.396006 S    
C124  H24   1.111074 S    
C42   O86   1.403784 S    
C34   C50   1.354390 D    
C90   O118  1.387713 S    
Zn6   O52   1.935315 S    
N24   O115  1.301031 A    
C110  H10   1.082719 S    
C185  H166  1.111197 S    
C167  H125  1.109783 S    
N11   O74   1.301780 A    
C189  H177  1.110877 S    
C69   C81   1.413591 A    
C9    C42   1.460917 S    
C44   O88   1.404100 S    
C159  H107  1.110942 S    
N10   O72   1.301632 A    
C154  H95   1.110662 S    
C64   C74   1.399186 A    
C138  H57   1.109342 S    
N17   O102  1.301207 A    
C74   C80   1.418205 A    
C190  C191  1.532147 S    
C161  H111  1.109762 S    
C174  H142  1.110755 S    
C53   O97   1.395323 S    
O119  C175  1.418877 S    
N4    O59   1.300871 A    
C192  H182  1.110864 S    
C103  C107  1.413986 A    
C151  C152  1.532663 S    
C116  C120  1.397660 A    
N13   O78   1.301263 A    
C149  H83   1.108899 S    
O29   C17   1.280938 A    
O42   C16   1.285548 A    
C156  H100  1.110721 S    
C104  C116  1.398150 A    
C125  C126  1.526038 S    
C28   C29   1.466719 S    
Zn9   O21   1.934745 S    
C172  H136  1.110917 S    
C37   C53   1.348557 D    
C150  H85   1.110471 S    
C127  H31   1.110199 S    
Zn11  O23   1.935055 S    
C142  H67   1.114281 S    
C169  H129  1.110917 S    
C94   O122  1.387905 S    
C167  C168  1.524307 S    
Zn13  O33   1.935054 S    
Zn9   O1    1.955156 S    
C135  H49   1.110253 S    
N3    O58   1.301764 A    
O87   C127  1.414796 S    
C127  H32   1.115208 S    
N8    O68   1.301333 A    
C23   C56   1.461230 S    
C182  H160  1.110631 S    
C29   C45   1.348823 D    
O90   C136  1.413561 S    
O100  C166  1.414068 S    
C136  C137  1.531434 S    
C57   C65   1.396116 A    
C126  H29   1.110451 S    
C71   C77   1.418104 A    
O33   C21   1.277239 A    
Zn4   O38   1.935505 S    
Zn7   O19   1.942554 S    
C15   C48   1.464247 S    
C35   C51   1.350276 D    
O19   C7    1.277929 A    
C163  H116  1.116388 S    
C84   C96   1.407839 A    
C61   H5    1.081462 S    
N15   O81   1.300673 A    
C176  H146  1.110799 S    
N5    O62   1.301109 A    
C177  H148  1.110465 S    
C140  C141  1.525185 S    
C115  H15   1.083105 S    
C139  H59   1.108222 S    
C146  H75   1.111651 S    
C19   C52   1.458492 S    
C132  H43   1.110464 S    
C27   C43   1.349576 D    
C24   C53   1.468433 S    
N21   O109  1.300981 A    
C158  H103  1.111356 S    
C26   C31   1.467621 S    
C187  C188  1.533767 S    
C135  H50   1.110313 S    
C149  H82   1.111469 S    
C33   N9    1.441641 S    
C111  C117  1.396752 A    
C35   C38   1.464160 S    
C29   N5    1.435185 S    
O117  C169  1.419092 S    
C124  C125  1.534354 S    
N20   O108  1.301400 A    
N11   O73   1.300863 A    
N19   O105  1.301031 A    
N2    O56   1.301704 A    
C179  H152  1.110987 S    
C25   C41   1.352922 D    
C64   H8    1.080802 S    
O93   C145  1.414717 S    
C189  H175  1.110893 S    
Zn13  O11   1.943085 S    
C57   H1    1.080476 S    
C59   C69   1.398509 A    
Zn14  O12   1.941970 S    
C20   C49   1.464527 S    
C122  H20   1.110483 S    
C50   O94   1.404018 S    
O30   C18   1.277848 A    
Zn3   O43   1.941462 S    
