data_mof_unit_56994.cif
_audit_creation_date              2012-12-10T20:34:48-0500
_audit_creation_method            fapswitch 2.2
_symmetry_space_group_name_H-M    P1
_symmetry_Int_Tables_number       1
_space_group_crystal_system       triclinic
_cell_length_a                    10.647248
_cell_length_b                    10.693365
_cell_length_c                    9.867653
_cell_angle_alpha                 88.529619
_cell_angle_beta                  90.638649
_cell_angle_gamma                 90.608963
_cell_volume                      1122.98092049

loop_
_atom_site_label
_atom_site_type_symbol
_atom_type_description
_atom_site_fract_x
_atom_site_fract_y
_atom_site_fract_z
_atom_type_partial_charge
C1    C     C_R   0.506024 0.259750 0.501326 0.923380
C2    C     C_3   0.878120 0.501213 0.502609 0.166562
C3    C     C_3   0.927907 0.608487 0.407726 -0.476719
C4    C     C_3   0.923295 0.372850 0.450848 -0.082331
C5    C     C_R   0.539866 0.059234 0.622935 0.131345
C6    C     C_R   0.532972 0.128933 0.502213 -0.126526
C7    C     C_R   0.559081 0.070589 0.379664 -0.266470
C8    C     C_R   0.561630 0.940308 0.375413 0.092870
C9    C     C_R   0.535687 0.871271 0.496222 -0.141037
C10   C     C_R   0.539554 0.931825 0.619277 0.088568
C11   C     C_3   0.458205 0.916374 0.740752 -0.443638
C12   C     C_R   0.257654 0.501598 0.499856 0.880484
C13   C     C_3   0.459717 0.057387 0.746273 -0.504969
C14   C     C_R   0.400848 0.449977 0.071520 0.168974
C15   C     C_R   0.592959 0.558265 0.071416 -0.125980
C16   C     C_R   0.593276 0.557779 0.927496 -0.138422
C17   C     C_R   0.399146 0.453413 0.928428 0.171860
C18   C     C_3   0.351753 0.323269 0.920275 -0.506155
C19   C     C_3   0.361440 0.314868 0.073351 -0.126100
C20   C     C_R   0.507964 0.740031 0.498275 0.877326
C21   C     C_R   0.742078 0.502643 0.500823 0.864683
C22   C     C_3   0.072640 0.517758 0.648011 -0.398119
C23   C     C_3   0.930089 0.523933 0.647865 -0.409413
C24   C     C_3   0.072059 0.611510 0.411585 -0.463971
C25   C     C_3   0.069447 0.375690 0.442970 -0.095010
C26   C     C_3   0.120967 0.500654 0.501083 0.150960
H1    H     H_    0.111681 0.605806 0.690306 0.173510
H2    H     H_    0.886377 0.362576 0.345391 0.136960
H3    H     H_    0.107848 0.606343 0.306300 0.182186
H4    H     H_    0.895258 0.594583 0.301526 0.177254
H5    H     H_    0.569215 0.124981 0.286237 0.161389
H6    H     H_    0.365761 0.099391 0.727568 0.206120
H7    H     H_    0.513137 0.089669 0.836386 0.196025
H8    H     H_    0.103605 0.439823 0.716775 0.172006
H9    H     H_    0.254535 0.318678 0.878221 0.193856
H10   H     H_    0.420564 0.265377 0.869813 0.202762
H11   H     H_    0.435780 0.250131 0.111575 0.169864
H12   H     H_    0.900842 0.617758 0.681724 0.166463
H13   H     H_    0.105780 0.701880 0.453079 0.175475
H14   H     H_    0.891413 0.700248 0.439750 0.167996
N1    N     N_R   0.499150 0.499140 0.142800 -0.114287
N2    N     N_R   0.499150 0.499180 0.857150 -0.102868
O1    O     O_R   0.500020 0.316790 0.614690 -0.612616
O2    O     O_R   0.500000 0.316760 0.385350 -0.630136
O3    O     O_R   0.314800 0.500000 0.614670 -0.625167
O4    O     O_R   0.314790 0.499960 0.385330 -0.631611
O5    O     O_R   0.500000 0.683240 0.614650 -0.625012
O6    O     O_R   0.499980 0.683210 0.385310 -0.592914
O7    O     O_R   0.685210 0.500040 0.614670 -0.630803
O8    O     O_R   0.685200 0.500000 0.385330 -0.642690
Zn1   Zn    Zn3+2 0.500010 0.500020 0.653130 0.934758
Zn2   Zn    Zn3+2 0.499990 0.499980 0.346870 0.937790
N3    N     N_3   0.581893 0.879691 0.249177 -0.421948
H15   H     H_    0.668416 0.834590 0.257259 0.170810
H16   H     H_    0.590025 0.945551 0.169486 0.166160
H17   H     H_    0.363814 0.876732 0.716514 0.200678
H18   H     H_    0.508205 0.870180 0.827678 0.205143
H19   H     H_    0.669110 0.603573 0.125284 0.137984
H20   H     H_    0.669849 0.602356 0.872936 0.138804
N4    N     N_3   0.239961 0.291112 0.136535 -0.447678
H21   H     H_    0.256448 0.282794 0.240875 0.218206
H22   H     H_    0.180577 0.367246 0.118284 0.178576
H23   H     H_    0.892604 0.454276 0.723075 0.181909
H24   H     H_    0.091897 0.377576 0.333588 0.131637
N5    N     N_3   0.132337 0.265698 0.503942 -0.487868
H25   H     H_    0.101789 0.185088 0.455170 0.183141
H26   H     H_    0.114031 0.255827 0.607300 0.185830
N6    N     N_3   0.870595 0.267996 0.532151 -0.472943
H27   H     H_    0.887988 0.183853 0.484474 0.180783
H28   H     H_    0.909911 0.263770 0.629437 0.192314

loop_
_geom_bond_atom_site_label_1
_geom_bond_atom_site_label_2
_ccdc_geom_bond_type
C8    N3    S    
C8    C9    A    
C3    H4    S    
C2    C4    S    
C13   H7    S    
C6    C7    A    
C12   O3    A    
O4    Zn2   S    
C19   N4    S    
C23   H12   S    
C15   H19   S    
C18   H9    S    
C13   H6    S    
C5    C13   S    
C18   C19   S    
N1    Zn2   S    
N2    Zn1   S    
C1    O2    A    
N6    H28   S    
O2    Zn2   S    
C2    C21   S    
C21   O7    A    
C4    C25   S    
C25   H24   S    
C5    C10   A    
C11   H18   S    
N3    H15   S    
N4    H22   S    
C11   C13   S    
C14   C17   A    
O1    Zn1   S    
C3    C24   S    
C20   O6    A    
C14   N1    A    
C9    C10   A    
C23   H23   S    
C21   O8    A    
C4    H2    S    
C24   C26   S    
C3    H14   S    
C17   C18   S    
C2    C3    S    
C22   H1    S    
N3    H16   S    
C5    C6    A    
C22   H8    S    
C9    C20   S    
C20   O5    A    
C7    H5    S    
C10   C11   S    
O3    Zn1   S    
C15   C16   A    
C16   N2    A    
O6    Zn2   S    
C24   H13   S    
C25   N5    S    
C15   N1    A    
C2    C23   S    
C12   O4    A    
N5    H25   S    
C22   C26   S    
O8    Zn2   S    
C4    N6    S    
C7    C8    A    
C24   H3    S    
N4    H21   S    
O5    Zn1   S    
C19   H11   S    
N5    H26   S    
C25   C26   S    
C17   N2    A    
C18   H10   S    
C14   C19   S    
C1    O1    A    
C22   C23   S    
C11   H17   S    
C1    C6    S    
C12   C26   S    
N6    H27   S    
O7    Zn1   S    
C16   H20   S    
