data_mof_unit_14623.cif
_audit_creation_date              2013-03-05T15:54:52-0500
_audit_creation_method            fapswitch 2.2
_symmetry_space_group_name_H-M    P1
_symmetry_Int_Tables_number       1
_space_group_crystal_system       triclinic
_cell_length_a                    13.54977
_cell_length_b                    14.024149
_cell_length_c                    30.073021
_cell_angle_alpha                 97.853555
_cell_angle_beta                  89.647429
_cell_angle_gamma                 119.063581
_cell_volume                      4936.18687428

loop_
_atom_site_label
_atom_site_type_symbol
_atom_site_description
_atom_site_fract_x
_atom_site_fract_y
_atom_site_fract_z
_atom_type_partial_charge
O1    O     O_R   0.494060 0.188820 0.559230 -0.502672
O2    O     O_R   0.678470 0.153390 0.554100 -0.524726
C1    C     C_R   0.720800 0.099134 0.568789 0.831030
O3    O     O_R   0.697870 0.003940 0.549410 -0.504193
O4    O     O_R   0.480980 0.827230 0.535590 -0.496189
C2    C     C_R   0.382432 0.786980 0.550835 0.866793
O5    O     O_R   0.309390 0.811640 0.537920 -0.543210
O6    O     O_R   0.341810 0.023400 0.546180 -0.533654
C3    C     C_R   0.396271 0.119630 0.568680 0.840533
O7    O     O_R   0.493150 0.185870 0.461540 -0.523363
O8    O     O_R   0.677630 0.150660 0.463530 -0.526848
C4    C     C_R   0.720554 0.095429 0.442732 0.830656
O9    O     O_R   0.696960 0.000990 0.451710 -0.545118
O10   O     O_R   0.480140 0.824500 0.445020 -0.528116
C5    C     C_R   0.382677 0.784708 0.424866 0.798565
O11   O     O_R   0.308480 0.808690 0.440220 -0.545805
O12   O     O_R   0.340970 0.020670 0.455610 -0.534331
C6    C     C_R   0.426545 0.092850 0.436666 0.807475
Cr1   Cr    Cr6+3 0.583400 0.162540 0.509180 1.082537
Cr2   Cr    Cr6+3 0.584070 0.916690 0.495550 1.075407
Cr3   Cr    Cr6+3 0.332550 0.920810 0.495240 1.009829
O13   O     O_3   0.500010 0.000010 0.499990 -0.391413
H1    H     H_    0.188975 0.688749 0.677420 0.215351
C7    C     C_R   0.358412 0.726904 0.589850 -0.187710
C8    C     C_R   0.433841 0.695221 0.607001 0.402205
C9    C     C_R   0.423406 0.668601 0.650762 -0.056796
C10   C     C_R   0.337350 0.669378 0.676338 -0.006885
C11   C     C_R   0.256654 0.689422 0.657813 -0.006861
C12   C     C_R   0.266747 0.717655 0.614920 -0.146638
C13   C     C_R   0.256299 0.671516 0.835818 0.364141
C14   C     C_R   0.248473 0.655132 0.881275 0.266969
C15   C     C_R   0.391212 0.595966 0.873050 0.334467
C16   C     C_R   0.396231 0.610354 0.828015 -0.207307
C17   C     C_R   0.326576 0.643242 0.809018 -0.114188
C18   C     C_1   0.332086 0.651112 0.762072 0.217409
C19   C     C_1   0.335330 0.657612 0.722734 0.142410
C20   C     C_R   0.308616 0.607793 0.898926 -0.323417
H2    H     H_    0.483414 0.649146 0.665150 0.210584
C21   C     C_3   0.420857 0.139921 0.722557 0.154339
C22   C     C_3   0.207712 0.077411 0.709514 0.082408
C23   C     C_3   0.194094 0.088368 0.761474 0.186281
H3    H     H_    0.151238 0.104065 0.695003 0.147519
H4    H     H_    0.142916 0.130863 0.767460 0.059341
C24   C     C_1   0.294515 0.199600 0.876479 -0.023041
C25   C     C_3   0.331660 0.162575 0.699615 -0.204701
C26   C     C_3   0.404264 0.138027 0.774508 0.177867
C27   C     C_3   0.311001 0.169732 0.787718 -0.159808
C28   C     C_3   0.350668 0.285677 0.773527 -0.503206
C29   C     C_3   0.350822 0.279528 0.721075 0.220612
C30   C     C_1   0.301296 0.181416 0.836683 0.145050
C31   C     C_1   0.342171 0.152409 0.650763 0.185157
C32   C     C_1   0.361110 0.139496 0.612025 -0.005926
H5    H     H_    0.435651 0.344052 0.790445 0.278238
H6    H     H_    0.482988 0.202587 0.794146 0.186482
C33   C     C_3   0.851776 0.277158 0.724330 -0.446152
C34   C     C_3   0.923110 0.137673 0.712513 0.609089
C35   C     C_3   0.950353 0.165096 0.765590 -0.510548
C36   C     C_1   0.902073 0.205420 0.878491 -0.047605
C37   C     C_3   0.820943 0.158280 0.701943 -0.172108
C38   C     C_3   0.857002 0.285456 0.776377 0.275955
C39   C     C_3   0.856976 0.181548 0.790237 -0.133085
C40   C     C_3   0.742681 0.074754 0.773537 0.111757
C41   C     C_3   0.710956 0.076586 0.723926 0.125920
C42   C     C_1   0.877826 0.194190 0.839109 0.137822
C43   C     C_1   0.797383 0.148191 0.653278 0.217119
C44   C     C_1   0.769218 0.131614 0.613933 0.018756
H7    H     H_    0.787236 0.298152 0.713609 0.237472
H8    H     H_    0.778873 0.285419 0.787500 0.186493
H9    H     H_    0.757875 0.003922 0.774644 0.204745
C45   C     C_3   0.358769 0.790037 0.270283 0.235221
C46   C     C_3   0.237836 0.583870 0.270980 0.155552
C47   C     C_3   0.234892 0.557521 0.218507 0.206419
H10   H     H_    0.290121 0.804754 0.284170 0.063866
H11   H     H_    0.170927 0.606954 0.278771 0.039252
C48   C     C_1   0.308604 0.607195 0.110812 -0.082467
C49   C     C_3   0.353520 0.688537 0.289167 -0.032022
C50   C     C_3   0.335692 0.762745 0.217946 -0.435378
C51   C     C_3   0.337731 0.654628 0.200202 0.017463
C52   C     C_3   0.450687 0.666510 0.218633 -0.289495
C53   C     C_3   0.453230 0.673083 0.270653 -0.268782
C54   C     C_1   0.327017 0.634540 0.150830 0.027448
C55   C     C_1   0.361222 0.710269 0.338645 0.094410
C56   C     C_1   0.368412 0.737259 0.378691 -0.058100
H12   H     H_    0.535700 0.742895 0.285872 0.184040
H13   H     H_    0.448717 0.597155 0.279805 0.238184
H14   H     H_    0.522891 0.742849 0.209513 0.197992
H15   H     H_    0.396473 0.831230 0.200650 0.234330
C57   C     C_R   0.409219 0.099222 0.389031 -0.096875
C58   C     C_R   0.493518 0.186021 0.369301 -0.176258
C59   C     C_R   0.482676 0.192487 0.323667 0.427102
C60   C     C_R   0.386830 0.107296 0.297105 0.010201
C61   C     C_R   0.302785 0.020617 0.316588 -0.137095
C62   C     C_R   0.313806 0.016326 0.362234 -0.106377
C63   C     C_R   0.252854 0.062267 0.138027 0.404902
C64   C     C_R   0.236546 0.097475 0.098564 -0.177057
C65   C     C_R   0.420544 0.261859 0.113011 -0.121940
C66   C     C_R   0.437519 0.228264 0.152362 -0.124704
C67   C     C_R   0.353119 0.131035 0.165752 -0.027100
C68   C     C_1   0.363956 0.114271 0.210991 0.131122
C69   C     C_1   0.373461 0.107632 0.249931 0.107694
C70   C     C_R   0.318308 0.198720 0.086585 -0.108006
H16   H     H_    0.514387 0.281473 0.173681 0.179518
H17   H     H_    0.485181 0.339914 0.104515 0.163705
H18   H     H_    0.911616 0.378367 0.190127 0.143249
H19   H     H_    0.871710 0.340461 0.339049 0.202703
C71   C     C_R   0.776960 0.129457 0.401179 -0.167938
C72   C     C_R   0.765564 0.045417 0.366672 -0.154641
C73   C     C_R   0.786168 0.066201 0.322832 -0.046814
C74   C     C_R   0.819221 0.171175 0.312856 0.042291
C75   C     C_R   0.841151 0.258189 0.347179 -0.092988
C76   C     C_R   0.821577 0.238861 0.391821 0.347002
C77   C     C_R   0.886500 0.303690 0.166378 -0.046932
C78   C     C_R   0.913475 0.311420 0.121887 -0.163167
C79   C     C_R   0.828234 0.111072 0.104860 0.378927
C80   C     C_R   0.803277 0.104913 0.150048 -0.172086
C81   C     C_R   0.836172 0.201082 0.180776 0.040767
C82   C     C_1   0.828771 0.194948 0.227701 0.066965
C83   C     C_1   0.825321 0.186889 0.266875 0.109119
C84   C     C_R   0.891138 0.216434 0.091374 -0.167684
H20   H     H_    0.732087 0.961113 0.372724 0.170722
H21   H     H_    0.770788 0.998889 0.296327 0.155009
O14   O     O_R   0.969690 0.151000 0.934080 -0.517487
O15   O     O_R   0.187530 0.180840 0.938210 -0.528647
C85   C     C_R   0.283389 0.232805 0.922365 0.802652
O16   O     O_R   0.358160 0.327300 0.941250 -0.511247
O17   O     O_R   0.323950 0.507710 0.953980 -0.510105
C86   C     C_R   0.268410 0.549840 0.938689 0.883312
O18   O     O_R   0.170530 0.527770 0.952070 -0.503323
O19   O     O_R   0.987720 0.318450 0.945940 -0.528641
C87   C     C_R   0.946347 0.222237 0.923394 0.813601
O20   O     O_R   0.976400 0.159230 0.032040 -0.501997
O21   O     O_R   0.193740 0.188470 0.029020 -0.535079
C88   C     C_R   0.292313 0.242170 0.049009 0.815039
O22   O     O_R   0.364860 0.335530 0.039220 -0.539811
O23   O     O_R   0.330170 0.515340 0.044800 -0.527014
C89   C     C_R   0.274934 0.558472 0.064853 0.827011
O24   O     O_R   0.177230 0.536000 0.050040 -0.533187
O25   O     O_R   0.993930 0.326080 0.036750 -0.547516
C90   C     C_R   0.951712 0.232080 0.049749 0.857597
Cr4   Cr    Cr6+3 0.086700 0.177000 0.983690 1.073623
Cr5   Cr    Cr6+3 0.336880 0.419130 0.994740 1.071768
Cr6   Cr    Cr6+3 0.084850 0.422220 0.995960 1.047895
O26   O     O_3   0.169480 0.339450 0.991460 -0.377239
N1    N     N_R   0.177874 0.684360 0.909183 0.181171
O27   O     O_R   0.218354 0.745761 0.948223 -0.326269
O28   O     O_R   0.072161 0.646649 0.896495 -0.250620
H22   H     H_    0.408245 0.059286 0.705991 0.193439
N2    N     N_R   0.167613 0.963607 0.686796 0.179015
O29   O     O_R   0.225243 0.912664 0.689783 -0.340591
O30   O     O_R   0.074848 0.914387 0.660702 -0.269167
N3    N     N_R   0.130060 0.983072 0.778838 0.221114
O31   O     O_R   0.041961 0.965512 0.801332 -0.307344
O32   O     O_R   0.158344 0.906362 0.772397 -0.206611
N4    N     N_R   0.451525 0.372209 0.706187 0.195643
O33   O     O_R   0.525836 0.453741 0.735035 -0.291319
O34   O     O_R   0.454527 0.385255 0.664095 -0.329402
H23   H     H_    0.277248 0.287041 0.709809 0.145832
N5    N     N_R   0.537287 0.220004 0.713567 0.095135
O35   O     O_R   0.575427 0.206740 0.674702 -0.382173
O36   O     O_R   0.604234 0.303377 0.743548 -0.333874
N6    N     N_R   0.194248 0.717815 0.817395 0.216677
O37   O     O_R   0.192431 0.802874 0.839991 -0.228759
O38   O     O_R   0.137376 0.674029 0.778515 -0.284694
H24   H     H_    0.293915 0.318595 0.786143 0.174514
N7    N     N_R   0.952722 0.390339 0.797873 0.139566
O39   O     O_R   0.933575 0.456999 0.826421 -0.278985
O40   O     O_R   0.056053 0.420794 0.787444 -0.366260
H25   H     H_    0.932440 0.339273 0.712692 0.266741
N8    N     N_R   0.891138 0.020952 0.695568 0.143435
O41   O     O_R   0.898858 0.957085 0.721310 -0.297161
O42   O     O_R   0.859488 0.980991 0.653255 -0.266317
N9    N     N_R   0.023673 0.210102 0.689523 0.047626
O43   O     O_R   0.034692 0.180060 0.647710 -0.338318
O44   O     O_R   0.097048 0.309147 0.708595 -0.389911
H26   H     H_    0.034134 0.238301 0.775671 0.233263
H27   H     H_    0.958456 0.099810 0.779423 0.211098
H28   H     H_    0.651793 0.110546 0.725365 0.172382
N10   N     N_R   0.649454 0.965406 0.697193 0.156882
O45   O     O_R   0.645375 0.879750 0.711132 -0.304548
O46   O     O_R   0.582998 0.949132 0.662581 -0.376242
N11   N     N_R   0.650211 0.058884 0.802703 0.142834
O47   O     O_R   0.624884 0.136729 0.814157 -0.362514
O48   O     O_R   0.595854 0.967250 0.819278 -0.290333
H29   H     H_    0.250961 0.752199 0.209041 0.167780
N12   N     N_R   0.208055 0.486229 0.292781 0.170644
O49   O     O_R   0.280917 0.480195 0.318613 -0.337599
O50   O     O_R   0.104944 0.404142 0.286813 -0.352297
H30   H     H_    0.156148 0.552802 0.204657 0.058902
N13   N     N_R   0.229046 0.450431 0.202930 0.143487
O51   O     O_R   0.148049 0.377672 0.173831 -0.381156
O52   O     O_R   0.302193 0.425745 0.218147 -0.336268
H31   H     H_    0.206456 0.739535 0.602769 0.205658
N14   N     N_R   0.467397 0.891610 0.284418 0.089752
O53   O     O_R   0.546792 0.932022 0.256776 -0.406925
O54   O     O_R   0.486968 0.940504 0.325915 -0.421312
H32   H     H_    0.463738 0.597456 0.202918 0.205589
H33   H     H_    0.158307 0.047070 0.077807 0.197637
N15   N     N_R   0.165773 0.959801 0.150134 0.100630
O55   O     O_R   0.062164 0.916436 0.133219 -0.327722
O56   O     O_R   0.190764 0.904398 0.174972 -0.393124
H34   H     H_    0.229007 0.955465 0.296286 0.148178
H35   H     H_    0.248616 0.947335 0.376308 0.152133
H36   H     H_    0.568151 0.249589 0.389609 0.196658
N16   N     N_R   0.521031 0.690487 0.580974 0.137306
O57   O     O_R   0.617646 0.715700 0.600716 -0.267494
O58   O     O_R   0.497980 0.644477 0.539002 -0.343853
N17   N     N_R   0.568924 0.285621 0.305295 0.090419
O59   O     O_R   0.670479 0.341709 0.324936 -0.361493
O60   O     O_R   0.543677 0.323614 0.272590 -0.366706
H37   H     H_    0.960416 0.393045 0.112497 0.167932
N18   N     N_R   0.846508 0.329895 0.426801 0.114681
O61   O     O_R   0.842390 0.416019 0.417665 -0.325549
O62   O     O_R   0.887743 0.333565 0.466363 -0.349336
H38   H     H_    0.760688 0.025360 0.161560 0.173482
N19   N     N_R   0.790427 0.010855 0.073559 0.123697
O63   O     O_R   0.777355 0.921685 0.087378 -0.327289
O64   O     O_R   0.753660 0.004065 0.032736 -0.334814
H39   H     H_    0.455387 0.595986 0.807604 0.219838
N20   N     N_R   0.470347 0.569164 0.891695 0.149515
O65   O     O_R   0.532199 0.628661 0.928341 -0.300646
O66   O     O_R   0.495829 0.500150 0.868103 -0.350170
N21   N     N_R   0.382803 0.033642 0.789113 0.208427
O67   O     O_R   0.387928 0.955900 0.761826 -0.296501
O68   O     O_R   0.378967 0.026442 0.831840 -0.278690

loop_
_geom_bond_atom_site_label_1
_geom_bond_atom_site_label_2
_geom_bond_distance
_ccdc_geom_bond_type
O6    C3    1.269920 A    
H19   C75   1.083590 S    
O17   C86   1.279588 A    
C33   C37   1.557970 S    
C34   N8    1.487482 S    
C82   C83   1.197277 T    
N8    O42   1.302113 A    
N8    O41   1.301547 A    
C72   H20   1.083265 S    
C18   C19   1.197798 T    
Cr4   O26   1.969278 S    
C77   C81   1.391562 A    
C73   H21   1.084052 S    
C53   H12   1.112491 S    
C8    N16   1.436444 S    
N10   O45   1.301758 A    
N12   O49   1.301512 A    
O23   C89   1.274492 A    
O4    Cr2   1.914321 S    
C50   C51   1.550461 S    
C73   C74   1.391526 A    
O8    Cr1   1.914477 S    
C9    C10   1.396553 A    
C53   H13   1.109040 S    
C41   N10   1.474847 S    
Cr3   O13   1.978561 S    
C11   C12   1.387156 A    
N2    O30   1.301290 A    
C78   H37   1.083250 S    
N19   O64   1.301508 A    
C13   C14   1.411786 A    
N17   O59   1.300987 A    
N12   O50   1.301316 A    
C71   C72   1.407388 A    
C25   C31   1.469302 S    
C5    O11   1.271771 A    
C67   C68   1.432175 S    
N11   O47   1.299228 A    
C50   H29   1.113404 S    
C81   C82   1.425457 S    
C17   C18   1.429768 S    
C14   N1    1.436855 S    
N13   O52   1.301475 A    
C7    C12   1.409467 A    
C47   H30   1.116067 S    
C47   C51   1.565605 S    
O20   Cr4   2.029874 S    
C35   H26   1.105203 S    
C27   C28   1.566101 S    
O16   Cr5   2.029336 S    
O21   C88   1.273326 A    
N14   O54   1.300527 A    
N3    O31   1.301236 A    
N15   O55   1.301635 A    
C60   C69   1.432225 S    
N4    O34   1.301128 A    
C66   H16   1.083990 S    
C21   C25   1.575089 S    
C22   H3    1.114580 S    
N7    O40   1.300508 A    
C78   C84   1.409182 A    
C33   C38   1.553065 S    
C34   N9    1.483939 S    
C45   C50   1.564207 S    
N5    O36   1.301702 A    
N16   O57   1.301444 A    
C23   H4    1.113148 S    
C29   H23   1.111605 S    
N21   O67   1.302030 A    
C3    C32   1.423323 S    
C33   H25   1.108842 S    
C46   N12   1.474091 S    
C77   C78   1.389475 A    
N6    O38   1.301219 A    
N9    O44   1.301681 A    
C74   C83   1.425339 S    
C66   C67   1.399505 A    
C27   C30   1.471430 S    
C71   C76   1.418967 A    
N11   O48   1.301266 A    
C36   C42   1.199583 T    
C22   C25   1.574122 S    
O7    C6    1.293690 A    
C41   H28   1.111840 S    
O1    Cr1   2.031294 S    
O24   Cr6   2.033054 S    
C15   C20   1.421233 A    
C22   N2    1.474204 S    
C31   C32   1.199841 T    
O10   Cr2   1.919462 S    
C29   N4    1.476521 S    
O15   C85   1.269984 A    
Cr1   O13   1.969257 S    
O1    C3    1.264736 A    
C7    C8    1.420706 A    
N1    O28   1.301001 A    
O25   Cr6   1.913089 S    
C79   C80   1.402346 A    
C49   C55   1.471329 S    
C60   C61   1.399754 A    
H18   C77   1.083962 S    
O20   C90   1.272975 A    
C13   C17   1.408410 A    
C48   C89   1.425508 S    
C9    H2    1.083931 S    
C5    C56   1.426264 S    
O19   Cr6   1.917815 S    
C8    C9    1.404269 A    
C16   H39   1.084845 S    
O15   Cr4   1.914619 S    
C24   C85   1.426105 S    
O12   Cr3   1.921941 S    
C52   H32   1.110283 S    
C14   C20   1.419110 A    
C40   H9    1.112678 S    
C38   C39   1.569294 S    
C63   N15   1.442258 S    
O22   Cr5   2.043108 S    
N5    O35   1.301625 A    
C39   C42   1.468522 S    
N19   O63   1.301481 A    
N18   O61   1.301441 A    
C40   C41   1.562204 S    
N20   O66   1.301287 A    
C35   H27   1.107117 S    
N10   O46   1.301268 A    
C68   C69   1.199975 T    
O10   C5    1.274433 A    
C25   C29   1.572613 S    
O7    Cr1   2.047778 S    
C64   H33   1.082898 S    
C2    C7    1.480329 S    
C65   C66   1.391524 A    
C26   H6    1.108910 S    
C45   H10   1.113725 S    
O12   C6    1.304926 A    
C23   C27   1.564401 S    
C12   H31   1.083014 S    
C63   C64   1.403725 A    
C75   C76   1.404079 A    
H1    C11   1.084053 S    
C4    O9    1.270625 A    
N21   O68   1.301325 A    
C62   H35   1.082810 S    
C38   H8    1.108031 S    
N4    O33   1.301902 A    
C21   C26   1.578998 S    
C23   N3    1.471892 S    
C28   C29   1.567989 S    
C58   H36   1.083196 S    
Cr2   O13   1.982183 S    
C55   C56   1.201753 T    
C21   N5    1.476352 S    
C45   C49   1.573480 S    
C88   O22   1.272227 A    
C10   C19   1.425776 S    
C52   C53   1.554081 S    
C1    C44   1.425705 S    
C34   C35   1.591705 S    
C72   C73   1.386545 A    
C86   O18   1.282703 A    
C47   N13   1.474399 S    
N20   O65   1.301457 A    
N9    O43   1.301916 A    
O19   C87   1.270572 A    
C24   C30   1.201585 T    
N13   O51   1.300482 A    
C26   C27   1.563300 S    
C22   C23   1.567717 S    
O9    Cr2   2.029732 S    
N18   O62   1.301484 A    
O2    Cr1   1.931354 S    
C51   C52   1.554004 S    
C79   N19   1.438301 S    
C48   C54   1.200947 T    
C49   C53   1.557101 S    
N16   O58   1.301390 A    
N1    O27   1.301331 A    
O6    Cr3   1.912364 S    
C46   C49   1.570517 S    
C46   H11   1.115099 S    
C33   H7    1.111289 S    
O8    C4    1.276808 A    
O11   Cr3   2.028281 S    
C35   C39   1.558461 S    
C2    O5    1.274339 A    
C28   H24   1.114384 S    
C70   C88   1.474412 S    
C28   H5    1.110191 S    
O21   Cr4   1.930163 S    
O17   Cr5   1.925270 S    
C37   C41   1.583238 S    
C38   N7    1.469894 S    
C26   N21   1.476843 S    
C34   C37   1.587495 S    
C84   C90   1.475197 S    
C15   C16   1.392778 A    
Cr5   O26   1.978228 S    
O2    C1    1.273602 A    
O14   Cr4   2.047255 S    
C46   C47   1.566952 S    
C43   C44   1.201607 T    
N6    O37   1.300819 A    
C74   C75   1.396475 A    
C37   C43   1.472772 S    
C40   N11   1.468903 S    
C4    C71   1.473181 S    
C51   C54   1.467486 S    
C59   C60   1.412989 A    
O4    C2    1.281698 A    
C79   C84   1.417826 A    
C36   C87   1.422832 S    
C45   N14   1.476971 S    
O5    Cr3   2.038429 S    
C61   C62   1.394309 A    
C16   C17   1.389773 A    
N2    O29   1.299492 A    
N3    O32   1.297856 A    
C57   C62   1.403168 A    
C39   C40   1.563413 S    
C80   H38   1.084043 S    
C76   N18   1.438388 S    
C15   N20   1.435966 S    
C6    C57   1.474710 S    
O25   C90   1.274100 A    
C59   N17   1.443334 S    
O3    Cr2   2.038240 S    
C64   C70   1.407038 A    
N7    O39   1.300716 A    
O23   Cr5   1.912476 S    
C57   C58   1.405936 A    
C50   H15   1.110859 S    
N14   O53   1.301903 A    
C65   H17   1.082973 S    
C21   H22   1.102509 S    
C10   C11   1.390601 A    
N17   O60   1.301037 A    
C63   C67   1.411450 A    
Cr6   O26   1.982187 S    
C89   O24   1.270408 A    
N15   O56   1.301396 A    
C13   N6    1.438707 S    
C80   C81   1.397128 A    
C58   C59   1.400944 A    
C65   C70   1.401469 A    
O18   Cr6   2.031388 S    
O14   C87   1.263876 A    
C52   H14   1.112600 S    
C61   H34   1.083794 S    
C1    O3    1.266909 A    
C85   O16   1.265756 A    
C20   C86   1.488197 S    
