data_mof_unit_6607.cif
_audit_creation_date              2012-10-26T18:43:32-0400
_audit_creation_method            fapswitch 2.2
_symmetry_space_group_name_H-M    P1
_symmetry_Int_Tables_number       1
_space_group_crystal_system       triclinic
_cell_length_a                    10.74419
_cell_length_b                    10.857973
_cell_length_c                    9.543089
_cell_angle_alpha                 90.000557
_cell_angle_beta                  90.212499
_cell_angle_gamma                 90.117701
_cell_volume                      1113.28794887

loop_
_atom_site_label
_atom_site_type_symbol
_atom_type_description
_atom_site_fract_x
_atom_site_fract_y
_atom_site_fract_z
_atom_type_partial_charge
C1    C     C_R   0.500219 0.262707 0.499846 0.553513
C2    C     C_R   0.497801 0.937998 0.620983 0.017635
C3    C     C_3   0.488790 0.929093 0.776409 -0.266008
C4    C     C_R   0.259835 0.499284 0.499891 0.569831
C5    C     C_3   0.488241 0.070948 0.776330 -0.271210
C6    C     C_R   0.560631 0.590614 0.074013 0.158667
C7    C     C_R   0.430228 0.417983 0.074148 -0.012716
C8    C     C_R   0.430165 0.418023 0.925222 -0.017976
C9    C     C_R   0.560861 0.590426 0.926548 0.159979
C10   C     C_3   0.696760 0.617717 0.922145 -0.282876
C11   C     C_3   0.696207 0.619000 0.080872 -0.283204
C12   C     C_3   0.878077 0.499844 0.500680 0.021543
C13   C     C_R   0.500538 0.737287 0.499835 0.543920
C14   C     C_R   0.740165 0.500545 0.500322 0.544457
C15   C     C_3   0.072158 0.502127 0.652612 -0.269740
C16   C     C_3   0.929686 0.505034 0.652807 -0.251619
C17   C     C_3   0.071990 0.615178 0.423503 -0.240744
C18   C     C_3   0.070146 0.379464 0.428675 0.111898
C19   C     C_3   0.121848 0.498885 0.499747 0.058891
C20   C     C_3   0.928441 0.613081 0.419365 -0.246049
C21   C     C_3   0.925789 0.380621 0.429651 -0.205406
C22   C     C_R   0.497407 0.061982 0.620942 0.017034
C23   C     C_R   0.501605 0.130091 0.498135 0.009581
C24   C     C_R   0.507397 0.064593 0.370481 -0.159689
C25   C     C_R   0.507676 0.935409 0.370497 -0.165989
C26   C     C_R   0.502097 0.869897 0.498173 0.005195
Cu1   Cu    Cu3+1 0.499990 0.499980 0.640670 0.921606
Cu2   Cu    Cu3+1 0.500010 0.500020 0.359330 0.943600
H1    H     H_    0.108216 0.584932 0.708592 0.135779
H2    H     H_    0.572876 0.112544 0.824299 0.138485
H3    H     H_    0.375666 0.350058 0.129783 0.146537
H4    H     H_    0.104690 0.419643 0.711567 0.115168
H5    H     H_    0.375434 0.350254 0.869133 0.111811
H6    H     H_    0.751305 0.539716 0.879473 0.144872
H7    H     H_    0.717170 0.709097 0.875049 0.113646
H8    H     H_    0.751725 0.542662 0.126706 0.145782
H9    H     H_    0.714808 0.711550 0.126232 0.116588
H10   H     H_    0.894180 0.425677 0.714933 0.125498
H11   H     H_    0.898431 0.591422 0.704460 0.125761
H12   H     H_    0.888224 0.373696 0.321066 0.139457
H13   H     H_    0.104168 0.699375 0.479632 0.109830
H14   H     H_    0.891633 0.699573 0.465993 0.115110
H15   H     H_    0.101754 0.298965 0.491612 0.143315
H16   H     H_    0.890892 0.298656 0.487703 0.088152
H17   H     H_    0.079987 0.426883 0.230686 0.322521
H18   H     H_    0.109034 0.621622 0.315132 0.128868
H19   H     H_    0.896800 0.609873 0.308420 0.116112
H20   H     H_    0.511361 0.112374 0.270960 0.134441
H21   H     H_    0.511856 0.887636 0.270984 0.133685
H22   H     H_    0.399273 0.887650 0.810771 0.139536
H23   H     H_    0.573801 0.888779 0.824422 0.130774
H24   H     H_    0.398304 0.111220 0.810514 0.128265
N1    N     N_R   0.500800 0.500930 0.147930 -0.235326
N2    N     N_R   0.500800 0.500890 0.852020 -0.231701
O1    O     O_R   0.500000 0.319640 0.618810 -0.507325
O2    O     O_R   0.500010 0.319680 0.381230 -0.507801
O3    O     O_R   0.317690 0.499960 0.618790 -0.524109
O4    O     O_R   0.317700 0.500000 0.381210 -0.463475
O5    O     O_R   0.499990 0.680320 0.618770 -0.499210
O6    O     O_R   0.500000 0.680360 0.381190 -0.511193
O7    O     O_R   0.682300 0.500000 0.618790 -0.509273
O8    O     O_R   0.682310 0.500040 0.381210 -0.513737
O9    O     O_3   0.116488 0.362629 0.292081 -0.710967

loop_
_geom_bond_atom_site_label_1
_geom_bond_atom_site_label_2
_ccdc_geom_bond_type
C4    O3    A    
C2    C22   A    
C20   H14   S    
Cu2   N1    S    
C5    H24   S    
C1    C23   S    
C10   H7    S    
C13   O5    A    
Cu2   O4    S    
C21   H16   S    
Cu1   O7    S    
C9    C10   S    
C23   C24   A    
C12   C20   S    
C6    C9    A    
C2    C3    S    
C1    O1    A    
Cu1   N2    S    
C15   H4    S    
C10   H6    S    
C13   O6    A    
Cu1   O5    S    
C18   H15   S    
C24   C25   A    
C18   C21   S    
C15   C19   S    
C14   O7    A    
C21   H12   S    
H17   O9    S    
Cu2   O8    S    
C11   H8    S    
C17   C19   S    
C1    O2    A    
C12   C14   S    
C15   H1    S    
Cu1   O1    S    
C8    H5    S    
Cu2   O6    S    
Cu2   O2    S    
C18   O9    S    
C25   H21   S    
C13   C26   S    
C20   H19   S    
C7    H3    S    
C10   C11   S    
C7    N1    A    
C6    N1    A    
C4    O4    A    
C15   C16   S    
C24   H20   S    
C7    C8    A    
C17   C20   S    
C17   H18   S    
C2    C26   A    
C5    H2    S    
Cu1   O3    S    
C8    N2    A    
C6    C11   S    
C11   H9    S    
C3    H23   S    
C22   C23   A    
C18   C19   S    
C9    N2    A    
C16   H11   S    
C17   H13   S    
C3    C5    S    
C25   C26   A    
C4    C19   S    
C12   C21   S    
C3    H22   S    
C5    C22   S    
C12   C16   S    
C16   H10   S    
Cu1   Cu2   S    
C14   O8    A    
