data_mof_unit_58690.cif
_audit_creation_date              2012-10-26T19:20:37-0400
_audit_creation_method            fapswitch 2.2
_symmetry_space_group_name_H-M    P1
_symmetry_Int_Tables_number       1
_space_group_crystal_system       triclinic
_cell_length_a                    10.771015
_cell_length_b                    10.98709
_cell_length_c                    9.839693
_cell_angle_alpha                 111.385646
_cell_angle_beta                  97.917297
_cell_angle_gamma                 91.044903
_cell_volume                      1070.97590363

loop_
_atom_site_label
_atom_site_type_symbol
_atom_type_description
_atom_site_fract_x
_atom_site_fract_y
_atom_site_fract_z
_atom_type_partial_charge
C1    C     C_R   0.491691 0.253515 0.439999 0.540889
C2    C     C_R   0.736872 0.499769 0.498450 0.522464
C3    C     C_R   0.140848 0.738801 0.556855 -0.072141
C4    C     C_R   0.859322 0.261295 0.443725 -0.080399
C5    C     C_R   0.081189 0.854621 0.580057 -0.102200
C6    C     C_R   0.918948 0.145444 0.420353 -0.111456
C7    C     C_R   0.951531 0.853750 0.574863 -0.113925
C8    C     C_R   0.048537 0.146197 0.424877 -0.107129
C9    C     C_R   0.881087 0.737096 0.546703 -0.090076
C10   C     C_R   0.118963 0.262810 0.452789 -0.084329
C11   C     C_R   0.939824 0.618286 0.523245 0.008250
C12   C     C_R   0.511482 0.746561 0.559886 0.541348
C13   C     C_R   0.060243 0.381686 0.476626 0.006490
C14   C     C_R   0.071112 0.619103 0.528118 0.010082
C15   C     C_R   0.928988 0.380923 0.472058 0.011583
C16   C     C_R   0.870312 0.499260 0.495589 -0.008525
C17   C     C_R   0.129746 0.500737 0.504419 -0.009892
C18   C     C_2   0.489131 0.112676 0.404807 0.054831
C19   C     C_2   0.523589 0.887495 0.594558 0.052021
C20   C     C_2   0.538630 0.069116 0.509350 -0.142377
C21   C     C_2   0.532809 0.930378 0.485072 -0.140710
C22   C     C_2   0.510603 0.510857 0.081301 0.002843
C23   C     C_2   0.489363 0.489189 0.918720 0.004116
C24   C     C_R   0.263150 0.500236 0.501552 0.525962
Cu1   Cu    Cu3+1 0.521920 0.521810 0.644910 0.974971
Cu2   Cu    Cu3+1 0.478080 0.478190 0.355090 0.978846
H1    H     H_    0.094724 0.056116 0.406434 0.132021
H2    H     H_    0.582047 0.138068 0.616934 0.172290
H3    H     H_    0.416492 0.416095 0.845799 0.155287
H4    H     H_    0.583431 0.583997 0.154245 0.146063
H5    H     H_    0.623286 0.623520 0.934495 0.218898
H6    H     H_    0.376787 0.376398 0.065482 0.225126
H7    H     H_    0.905303 0.943778 0.593032 0.120961
H8    H     H_    0.241842 0.744256 0.562279 0.136325
H9    H     H_    0.758408 0.255927 0.438745 0.124821
H10   H     H_    0.135866 0.945346 0.602380 0.130285
H11   H     H_    0.864281 0.054781 0.398345 0.119333
H12   H     H_    0.780534 0.741094 0.543487 0.118450
H13   H     H_    0.219490 0.258719 0.455510 0.129685
H14   H     H_    0.532853 0.860967 0.373359 0.168857
I1    I     I_    0.521073 0.015865 0.817352 -0.344992
I2    I     I_    0.398609 0.986200 0.191091 -0.338416
N1    N     N_2   0.445130 0.445420 0.137360 -0.334488
N2    N     N_2   0.554870 0.554580 0.862640 -0.337855
O1    O     O_R   0.511700 0.332340 0.577400 -0.519301
O2    O     O_R   0.488300 0.667660 0.422600 -0.518362
O3    O     O_R   0.474680 0.295500 0.332650 -0.452044
O4    O     O_R   0.525320 0.704500 0.667350 -0.453637
O5    O     O_R   0.338170 0.518410 0.622370 -0.494445
O6    O     O_R   0.661830 0.481590 0.377630 -0.499296
O7    O     O_R   0.301150 0.481570 0.377630 -0.485993
O8    O     O_R   0.698850 0.518430 0.622370 -0.491113

loop_
_geom_bond_atom_site_label_1
_geom_bond_atom_site_label_2
_ccdc_geom_bond_type
C2    C16   S    
C11   C16   A    
C22   N1    D    
C14   C17   A    
C13   C17   A    
C12   O4    A    
C7    C9    A    
C4    C15   A    
C13   C15   A    
Cu1   O8    S    
C22   H4    S    
Cu2   O7    S    
C9    C11   A    
Cu1   O4    S    
C1    O1    A    
C1    C18   S    
C3    H8    S    
C3    C14   A    
C2    O8    A    
Cu2   O3    S    
C24   O7    A    
C23   H3    S    
C12   C19   S    
C4    C6    A    
C9    H12   S    
C19   C21   D    
H6    N1    S    
Cu2   N1    S    
C18   C20   D    
Cu2   O6    S    
C2    O6    A    
C11   C14   A    
Cu1   O5    S    
C6    H11   S    
C17   C24   S    
H5    N2    S    
C7    H7    S    
C15   C16   A    
C5    H10   S    
Cu1   O1    S    
C20   C21   S    
Cu1   N2    S    
C12   O2    A    
C24   O5    A    
C5    C7    A    
C8    H1    S    
C4    H9    S    
C22   C23   S    
C1    O3    A    
C6    C8    A    
C20   H2    S    
C18   I2    S    
Cu1   Cu2   S    
Cu2   O2    S    
C8    C10   A    
C23   N2    D    
C19   I1    S    
C10   H13   S    
C3    C5    A    
C10   C13   A    
C21   H14   S    
