data_mof_unit_19528.cif
_audit_creation_date              2012-12-11T18:11:24-0500
_audit_creation_method            fapswitch 2.2
_symmetry_space_group_name_H-M    P1
_symmetry_Int_Tables_number       1
_space_group_crystal_system       triclinic
_cell_length_a                    8.233424
_cell_length_b                    12.697352
_cell_length_c                    18.78226
_cell_angle_alpha                 100.118032
_cell_angle_beta                  91.095261
_cell_angle_gamma                 98.794169
_cell_volume                      1908.15200459

loop_
_atom_site_label
_atom_site_type_symbol
_atom_type_description
_atom_site_fract_x
_atom_site_fract_y
_atom_site_fract_z
_atom_type_partial_charge
Ba1   Ba    Ba6+2 0.852780 0.548340 0.465070 1.674529
Ba2   Ba    Ba6+2 0.337060 0.451750 0.534940 1.642008
C1    C     C_3   0.744706 0.877671 0.203410 -0.318241
C2    C     C_R   0.885226 0.416905 0.097075 -0.109457
C3    C     C_R   0.748944 0.449977 0.959012 -0.107340
C4    C     C_3   0.219517 0.813049 0.274718 0.338875
C5    C     C_R   0.915316 0.486876 0.982324 0.022755
C6    C     C_R   0.696092 0.441158 0.887190 -0.087389
C7    C     C_R   0.805202 0.472408 0.835610 -0.033947
C8    C     C_R   0.968010 0.522064 0.858934 -0.001173
C9    C     C_R   0.023500 0.529299 0.932669 0.027400
C10   C     C_R   0.755911 0.456493 0.761493 -0.007011
C11   C     C_R   0.867488 0.489844 0.711697 -0.305110
C12   C     C_3   0.672609 0.799526 0.251670 0.325910
C13   C     C_R   0.023548 0.547471 0.733902 0.040959
C14   C     C_R   0.074997 0.564438 0.808635 -0.038676
C15   C     C_R   0.141623 0.524295 0.075462 0.025977
C16   C     C_3   0.180138 0.814846 0.195541 -0.340653
C17   C     C_R   0.202312 0.516574 0.146306 0.009106
C18   C     C_R   0.103455 0.456101 0.191715 -0.058790
C19   C     C_R   0.957678 0.390657 0.158436 0.008166
C20   C     C_R   0.229112 0.622825 0.835098 -0.029148
C21   C     C_R   0.284859 0.627863 0.906408 -0.096562
C22   C     C_R   0.187391 0.576820 0.955736 0.012190
C23   C     C_3   0.455688 0.281928 0.317113 0.292710
C24   C     C_R   0.247652 0.572516 0.027027 0.025390
C25   C     C_R   0.414197 0.607686 0.049928 -0.107004
C26   C     C_R   0.366863 0.561196 0.169042 -0.023962
C27   C     C_R   0.471984 0.601404 0.118771 -0.107089
C28   C     C_3   0.235300 0.787121 0.620103 0.281355
C29   C     C_R   0.422507 0.561336 0.240705 -0.027905
C30   C     C_R   0.315900 0.517278 0.288615 -0.278335
C31   C     C_R   0.159663 0.460699 0.265916 0.064490
C32   C     C_R   0.765946 0.182223 0.527066 -0.264767
C33   C     C_R   0.427297 0.807204 0.470968 -0.282722
C34   C     C_3   0.396130 0.243162 0.238397 -0.325037
C35   C     C_R   0.398678 0.984502 0.448605 -0.098526
C36   C     C_R   0.335491 0.875849 0.443437 -0.048919
C37   C     C_R   0.576885 0.848276 0.509943 0.071889
C38   C     C_R   0.640753 0.960840 0.517932 -0.038085
C39   C     C_R   0.550666 0.028886 0.485347 0.006513
C40   C     C_3   0.248944 0.909639 0.636612 -0.352142
C41   C     C_R   0.616021 0.139502 0.489336 0.068818
C42   C     C_R   0.857090 0.116551 0.557950 -0.007127
C43   C     C_R   0.792977 0.007303 0.555447 -0.093442
C44   C     C_3   0.941724 0.192393 0.358735 0.335205
C45   C     C_3   0.059147 0.246256 0.734569 0.354234
C46   C     C_3   0.054526 0.112676 0.373289 -0.333100
C47   C     C_3   0.730212 0.709707 0.682671 0.312236
C48   C     C_3   0.747508 0.748877 0.764229 -0.397089
C49   C     C_2   0.787087 0.125698 0.322203 0.833158
C50   C     C_2   0.919121 0.274166 0.161972 0.914686
C51   C     C_3   0.079105 0.227945 0.811916 -0.359187
C52   C     C_3   0.556585 0.184754 0.702436 0.346445
C53   C     C_3   0.606488 0.102674 0.745169 -0.406873
C54   C     C_R   0.976652 0.480413 0.052833 -0.013561
H1    H     H_    0.685763 0.839500 0.309364 0.083333
H2    H     H_    0.631996 0.637805 0.670918 0.063331
H3    H     H_    0.868818 0.919058 0.225015 0.144804
H4    H     H_    0.848034 0.819269 0.777544 0.128747
H5    H     H_    0.776514 0.683661 0.792109 0.058984
H6    H     H_    0.630501 0.773530 0.784405 0.118797
H7    H     H_    0.540109 0.775372 0.235334 -0.096852
H8    H     H_    0.663356 0.938971 0.200605 0.107175
H9    H     H_    0.358749 0.321063 0.346481 0.011768
H10   H     H_    0.569543 0.341932 0.319502 0.083726
H11   H     H_    0.283523 0.181894 0.235173 0.165174
H12   H     H_    0.335287 0.942873 0.683890 0.115312
H13   H     H_    0.369584 0.312038 0.213610 0.071537
H14   H     H_    0.490886 0.205123 0.207016 0.194834
H15   H     H_    0.754224 0.833072 0.147585 0.100496
H16   H     H_    0.284721 0.793519 0.162514 0.071726
H17   H     H_    0.142057 0.321833 0.729381 0.095598
H18   H     H_    0.929789 0.256305 0.724403 -0.068750
H19   H     H_    0.209572 0.223044 0.824875 0.152910
H20   H     H_    0.041626 0.296158 0.850140 0.072720
H21   H     H_    0.001121 0.151278 0.818779 0.113006
H22   H     H_    0.667115 0.217396 0.675354 -0.056331
H23   H     H_    0.295235 0.945044 0.589737 0.076060
H24   H     H_    0.461632 0.142982 0.659831 0.077537
H25   H     H_    0.705863 0.142856 0.786074 0.117155
H26   H     H_    0.651593 0.036228 0.708098 0.088734
H27   H     H_    0.241457 0.730164 0.279041 -0.010206
H28   H     H_    0.499951 0.068295 0.773775 0.132273
H29   H     H_    0.828781 0.476051 0.654998 0.071005
H30   H     H_    0.568103 0.409132 0.872915 0.111506
H31   H     H_    0.310648 0.664215 0.800965 0.099973
H32   H     H_    0.601694 0.627224 0.131095 0.108125
H33   H     H_    0.360355 0.520066 0.343613 0.058001
H34   H     H_    0.126420 0.932634 0.649093 0.140818
H35   H     H_    0.655450 0.427671 0.995483 0.077957
H36   H     H_    0.768508 0.369272 0.076954 0.110323
H37   H     H_    0.405532 0.673724 0.921407 0.060767
H38   H     H_    0.332423 0.872702 0.292837 -0.051892
H39   H     H_    0.505445 0.637910 0.015039 0.071621
H40   H     H_    0.326100 0.033135 0.424030 0.087493
H41   H     H_    0.865169 0.960076 0.581858 0.098908
H42   H     H_    0.815655 0.266886 0.529829 0.066050
H43   H     H_    0.376907 0.722244 0.465995 0.065927
H44   H     H_    0.068467 0.755163 0.175560 0.143213
H45   H     H_    0.914873 0.243311 0.410077 -0.083652
H46   H     H_    0.158939 0.897077 0.189185 0.115932
H47   H     H_    0.356413 0.765059 0.605695 0.005411
H48   H     H_    0.144342 0.755908 0.574006 0.071642
H49   H     H_    0.598241 0.006003 0.324770 0.293994
H50   H     H_    0.756677 0.136185 0.132070 0.329150
H51   H     H_    0.025769 0.033531 0.335940 0.117325
H52   H     H_    0.044545 0.098022 0.429506 0.114872
H53   H     H_    0.182093 0.143462 0.362649 0.141836
H54   H     H_    0.848454 0.687635 0.663158 0.012659
O1    O     O_2   0.873090 0.425890 0.325140 -0.461017
O2    O     O_2   0.198490 0.122087 0.554882 -0.491827
O3    O     O_3   0.100400 0.157282 0.686568 -0.600671
O4    O     O_3   0.122420 0.434370 0.414380 -0.491487
O5    O     O_3   0.578370 0.633800 0.536380 -0.491327
O6    O     O_2   0.341510 0.231850 0.465510 -0.468346
O7    O     O_3   0.487391 0.192221 0.346194 -0.635219
O8    O     O_2   0.415203 0.457392 0.756276 -0.497444
O9    O     O_3   0.489570 0.264122 0.749758 -0.595811
O10   O     O_3   0.659500 0.627100 0.368810 -0.470359
O11   O     O_2   0.725468 0.507810 0.245182 -0.472188
O12   O     O_3   0.690102 0.794072 0.650369 -0.644080
O13   O     O_3   0.018065 0.253392 0.309971 -0.622155
O14   O     O_3   0.757535 0.710973 0.242431 -0.569029
O15   O     O_2   0.848200 0.768190 0.534530 -0.473731
O16   O     O_3   0.081160 0.685950 0.404810 -0.468770
O17   O     O_2   0.996098 0.878190 0.449074 -0.468900
O18   O     O_2   0.735215 0.142950 0.264914 -0.591842
O19   O     O_R   0.706524 0.039997 0.351785 -0.820468
O20   O     O_2   0.030291 0.223987 0.171735 -0.622876
O21   O     O_R   0.761372 0.217719 0.140514 -0.757987
O22   O     O_3   0.087225 0.841075 0.315988 -0.572945
O23   O     O_2   0.316610 0.574140 0.674900 -0.467355
O24   O     O_3   0.067290 0.565720 0.585630 -0.499472
O25   O     O_3   0.530210 0.372990 0.631200 -0.472267
O26   O     O_3   0.187155 0.747026 0.682390 -0.638946
O27   O     O_3   0.611340 0.366290 0.463630 -0.485386
O28   O     O_3   0.108550 0.314140 0.595200 -0.479350
P1    P     P_3+3 0.041040 0.394770 0.336330 1.015962
P2    P     P_3+3 0.672880 0.754030 0.556100 0.970749
P3    P     P_3+3 0.126365 0.823588 0.404601 0.977827
P4    P     P_3+3 0.148670 0.605320 0.663680 0.970291
P5    P     P_3+3 0.065088 0.175848 0.597677 0.953735
P6    P     P_3+3 0.638623 0.604395 0.274212 0.965928
P7    P     P_3+3 0.520752 0.230028 0.439858 0.939061
P8    P     P_3+3 0.547935 0.390750 0.725254 0.948500

loop_
_geom_bond_atom_site_label_1
_geom_bond_atom_site_label_2
_ccdc_geom_bond_type
C25   C27   A    
C33   C37   A    
C17   C18   A    
O10   P6    S    
C49   O19   S    
C34   H11   S    
O1    P1    D    
C1    H8    S    
C42   C43   A    
O9    P8    S    
C5    C9    A    
C10   C11   A    
O23   P4    D    
Ba2   O24   S    
C49   O18   D    
O2    P5    D    
O27   P7    S    
C26   C27   A    
Ba1   O15   S    
O28   P5    S    
C16   H46   S    
O6    P7    D    
C46   H51   S    
C47   O12   S    
C13   C14   A    
O13   P1    S    
C9    C22   A    
H50   O21   S    
O7    P7    S    
Ba1   Ba2   S    
O17   P3    D    
C10   P8    S    
C29   P6    S    
C27   H32   S    
O26   P4    S    
C15   C17   A    
C37   P2    S    
C25   H39   S    
C29   C30   A    
C6    C7    A    
C4    H38   S    
C28   H47   S    
C21   C22   A    
C53   H25   S    
C7    C8    A    
C6    H30   S    
Ba1   P1    S    
C45   C51   S    
C46   H53   S    
C40   H23   S    
C52   O9    S    
C2    C54   A    
C40   H12   S    
C39   C41   A    
O11   P6    D    
C51   H19   S    
C16   H44   S    
C5    C54   A    
C33   H43   S    
C34   H14   S    
C52   H24   S    
O15   P2    D    
C16   H16   S    
C38   C43   A    
C4    C16   S    
C44   H45   S    
C44   C46   S    
Ba2   O23   S    
C12   O14   S    
C32   C41   A    
Ba2   O28   S    
O8    P8    D    
C33   C36   A    
C32   C42   A    
Ba1   O16   S    
C45   H17   S    
C4    O22   S    
C37   C38   A    
C3    C5    A    
H49   O19   S    
O4    P1    S    
C44   C49   S    
C47   H2    S    
O3    P5    S    
C35   H40   S    
C40   H34   S    
Ba1   O10   S    
C1    H15   S    
C35   C36   A    
C41   P7    S    
O24   P4    S    
C13   P4    S    
Ba2   O5    S    
C30   H33   S    
O25   P8    S    
C24   C25   A    
C23   H9    S    
C20   H31   S    
O5    P2    S    
C53   H26   S    
C17   C26   A    
Ba1   P2    S    
C15   C54   A    
C3    H35   S    
C1    C12   S    
C18   C31   A    
C38   C39   A    
C28   O26   S    
C11   C13   A    
C51   H21   S    
C48   H6    S    
C36   P3    S    
C44   O13   S    
C51   H20   S    
Ba1   O4    S    
C15   C24   A    
C28   H48   S    
Ba1   O24   S    
Ba1   O27   S    
C34   H13   S    
O22   P3    S    
C45   O3    S    
C12   H1    S    
C52   C53   S    
C14   C20   A    
C4    H27   S    
C50   O21   S    
C26   C29   A    
C28   C40   S    
C23   H10   S    
C45   H18   S    
C22   C24   A    
C23   O7    S    
C3    C6    A    
Ba2   O27   S    
O16   P3    S    
Ba2   O25   S    
C48   H4    S    
C30   C31   A    
C50   O20   D    
C8    C14   A    
Ba1   O1    S    
C2    C19   A    
Ba2   O4    S    
C46   H52   S    
C31   P1    S    
C42   P5    S    
Ba2   P4    S    
C12   H7    S    
C32   H42   S    
Ba2   O6    S    
C35   C39   A    
C7    C10   A    
C8    C9    A    
C23   C34   S    
O12   P2    S    
C21   H37   S    
C18   C19   A    
C47   C48   S    
C11   H29   S    
C48   H5    S    
C20   C21   A    
O14   P6    S    
C43   H41   S    
Ba1   O5    S    
C2    H36   S    
C53   H28   S    
C19   C50   S    
C47   H54   S    
C52   H22   S    
C1    H3    S    
