data_mof_unit_39877.cif
_audit_creation_date              2013-03-05T15:44:33-0500
_audit_creation_method            fapswitch 2.2
_symmetry_space_group_name_H-M    P1
_symmetry_Int_Tables_number       1
_space_group_crystal_system       triclinic
_cell_length_a                    27.839008
_cell_length_b                    10.9079
_cell_length_c                    9.855619
_cell_angle_alpha                 89.113719
_cell_angle_beta                  90.694763
_cell_angle_gamma                 92.866784
_cell_volume                      2988.51153401

loop_
_atom_site_label
_atom_site_type_symbol
_atom_site_description
_atom_site_fract_x
_atom_site_fract_y
_atom_site_fract_z
_atom_type_partial_charge
O1    O     O_R   0.500010 0.321960 0.617040 -0.506586
O2    O     O_R   0.499990 0.321920 0.382900 -0.582071
C1    C     C_R   0.498745 0.265731 0.500887 0.750985
O3    O     O_R   0.430270 0.500040 0.617060 -0.483234
O4    O     O_R   0.430260 0.500000 0.382910 -0.519607
C2    C     C_R   0.407476 0.499804 0.499289 0.896874
Cu1   Cu    Cu3+1 0.500010 0.500020 0.638630 1.097720
Cu2   Cu    Cu3+1 0.499990 0.499980 0.361370 1.068034
O5    O     O_R   0.500010 0.678080 0.617100 -0.616593
O6    O     O_R   0.499990 0.678040 0.382960 -0.519596
O7    O     O_R   0.569740 0.500000 0.617090 -0.546615
O8    O     O_R   0.569730 0.499960 0.382940 -0.597903
C3    C     C_R   0.501206 0.734226 0.499061 0.804244
C4    C     C_R   0.592202 0.499449 0.500956 0.815319
C5    C     C_R   0.175245 0.401102 0.466874 0.669364
O9    O     O_2   0.198459 0.302637 0.426149 -0.443269
N1    N     N_R   0.201238 0.504389 0.505868 -0.442914
C6    C     C_R   0.179386 0.605908 0.549323 0.572843
C7    C     C_R   0.279070 0.502743 0.623493 -0.247797
C8    C     C_R   0.329008 0.501644 0.622469 0.589783
C9    C     C_R   0.327107 0.500453 0.375028 0.271753
C10   C     C_R   0.276777 0.508792 0.377671 0.432007
C11   C     C_R   0.252812 0.505704 0.502201 0.092122
C12   C     C_R   0.101258 0.499818 0.516869 -0.195997
C13   C     C_R   0.124740 0.396757 0.470508 -0.146037
C14   C     C_R   0.097166 0.293239 0.426696 0.616105
C15   C     C_R   0.128777 0.606449 0.555467 -0.095775
C16   C     C_R   0.354015 0.500657 0.498459 -0.339127
C17   C     C_R   0.645021 0.494614 0.504464 -0.295740
C18   C     C_R   0.972487 0.379537 0.511588 -0.085804
C19   C     C_R   0.975598 0.601208 0.556025 0.021457
C20   C     C_R   0.948653 0.489248 0.533224 0.017316
C21   C     C_R   0.944716 0.266439 0.513628 0.341961
C22   C     C_R   0.894329 0.265058 0.504960 0.411865
C23   C     C_R   0.870341 0.375553 0.514674 -0.172382
C24   C     C_R   0.897564 0.487161 0.532683 -0.198668
C25   C     C_R   0.873663 0.597171 0.549365 -0.139087
C26   C     C_R   0.823141 0.593589 0.546604 0.658082
N2    N     N_R   0.797429 0.485728 0.523928 -0.441915
C27   C     C_R   0.819662 0.377858 0.509093 0.593555
C28   C     C_R   0.717746 0.423754 0.612738 -0.270628
C29   C     C_R   0.667599 0.424337 0.606190 0.401409
C30   C     C_R   0.673438 0.560454 0.407586 0.314450
C31   C     C_R   0.723564 0.550751 0.408642 0.448080
C32   C     C_R   0.745842 0.486211 0.514665 0.097988
O10   O     O_2   0.792588 0.273828 0.487351 -0.504733
C33   C     C_R   0.023127 0.386588 0.492062 -0.001642
C34   C     C_R   0.050218 0.496114 0.523972 0.072520
C35   C     C_R   0.026615 0.601915 0.562198 0.036395
C36   C     C_R   0.047384 0.289568 0.435278 -0.245365
H1    H     H_    0.734928 0.373779 0.694181 0.197360
H2    H     H_    0.028363 0.211240 0.390866 0.219520
O11   O     O_2   0.206799 0.705875 0.585414 -0.476523
C37   C     C_R   0.105015 0.710036 0.598633 0.498912
H3    H     H_    0.260511 0.501285 0.719517 0.207431
C38   C     C_R   0.950593 0.709701 0.569407 -0.288365
C39   C     C_R   0.900748 0.707983 0.566659 0.651249
O12   O     O_2   0.799624 0.696876 0.566857 -0.446522
C40   C     C_R   0.054855 0.705508 0.604808 -0.296803
H4    H     H_    0.968713 0.798999 0.577634 0.170904
H5    H     H_    0.039038 0.784195 0.647596 0.154378
C41   C     C_2   0.495939 0.935115 0.388681 0.673329
C42   C     C_2   0.506209 0.866685 0.498376 -0.378189
H6    H     H_    0.520092 0.908063 0.591116 0.169204
C43   C     C_2   0.501095 0.068906 0.391959 -0.359648
C44   C     C_2   0.493598 0.133193 0.504174 0.395257
H7    H     H_    0.510038 0.115677 0.296771 0.196867
C45   C     C_2   0.471040 0.431317 0.923883 0.763788
N3    N     N_2   0.499480 0.498660 0.846910 -0.057816
C46   C     C_2   0.476519 0.419088 0.076245 0.672955
N4    N     N_2   0.499460 0.498630 0.153040 -0.058506
O13   O     O_3   0.349784 0.499832 0.250989 -0.540265
C47   C     C_3   0.346834 0.378897 0.201772 -0.040571
H8    H     H_    0.308909 0.344265 0.186648 0.176478
H9    H     H_    0.366113 0.315551 0.270623 0.161761
H10   H     H_    0.364361 0.378758 0.101339 0.233306
O14   O     O_3   0.130656 0.813727 0.644131 -0.549843
C48   C     C_3   0.127203 0.908442 0.545802 -0.122685
H11   H     H_    0.090009 0.940923 0.538384 0.142710
H12   H     H_    0.139389 0.879176 0.444568 0.163884
H13   H     H_    0.151139 0.987581 0.577199 0.225440
O15   O     O_3   0.652534 0.633775 0.310258 -0.577095
C49   C     C_3   0.652081 0.754120 0.360574 -0.293297
H14   H     H_    0.689059 0.792106 0.384120 0.219598
H15   H     H_    0.628973 0.757505 0.451722 0.118222
H16   H     H_    0.636665 0.814316 0.281280 0.167541
F1    F     F_    0.879451 0.816563 0.579121 -0.609458
O16   O     O_3   0.751128 0.612571 0.311335 -0.539868
C50   C     C_3   0.756425 0.533289 0.201547 -0.248366
H17   H     H_    0.721014 0.506753 0.153973 0.181363
H18   H     H_    0.775442 0.449981 0.233351 0.151342
H19   H     H_    0.778616 0.582383 0.123199 0.192287
F2    F     F_    0.481989 0.882775 0.269130 -0.605101
O17   O     O_3   0.250605 0.512422 0.257715 -0.554609
C51   C     C_3   0.247972 0.636059 0.215860 -0.184872
H20   H     H_    0.284315 0.679024 0.195274 0.200925
H21   H     H_    0.229162 0.690132 0.291972 0.158106
H22   H     H_    0.226824 0.639256 0.119859 0.194869
F3    F     F_    0.477334 0.078582 0.621155 -0.626962
F4    F     F_    0.433641 0.366764 0.864826 -0.593203
O18   O     O_3   0.544369 0.524378 0.895496 -0.533143
C52   C     C_3   0.558977 0.645700 0.852253 -0.001415
H23   H     H_    0.531373 0.712758 0.874410 0.164443
H24   H     H_    0.569269 0.658108 0.746773 0.157122
H25   H     H_    0.593318 0.673215 0.903762 0.083535
F5    F     F_    0.455988 0.316566 0.135463 -0.666470
O19   O     O_3   0.507410 0.613023 0.101626 -0.509315
C53   C     C_3   0.554534 0.654938 0.142314 0.082108
H26   H     H_    0.581883 0.588648 0.115727 0.161376
H27   H     H_    0.560094 0.675065 0.248646 0.184683
H28   H     H_    0.563060 0.745575 0.093761 0.091492
F6    F     F_    0.117874 0.195101 0.372996 -0.638270
O20   O     O_3   0.640918 0.360212 0.703770 -0.529889
C54   C     C_3   0.631564 0.239293 0.658467 -0.231347
H29   H     H_    0.665468 0.190457 0.648146 0.162999
H30   H     H_    0.610990 0.237837 0.560832 0.117687
H31   H     H_    0.609147 0.188348 0.734976 0.197796
O21   O     O_3   0.868692 0.153033 0.501765 -0.497235
C55   C     C_3   0.868970 0.108520 0.368099 -0.080014
H32   H     H_    0.905741 0.085695 0.337453 0.157074
H33   H     H_    0.853859 0.175122 0.294280 0.112806
H34   H     H_    0.845892 0.022724 0.363990 0.214435
O22   O     O_3   0.965783 0.154851 0.529882 -0.585406
C56   C     C_3   0.974331 0.133881 0.669410 -0.214032
H35   H     H_    0.940192 0.130033 0.727363 0.187352
H36   H     H_    0.000152 0.204798 0.712047 0.148745
H37   H     H_    0.990632 0.043620 0.682355 0.180380
F7    F     F_    0.352447 0.500833 0.744027 -0.581062

loop_
_geom_bond_atom_site_label_1
_geom_bond_atom_site_label_2
_geom_bond_distance
_ccdc_geom_bond_type
C22   O21   1.384539 S    
O18   C52   1.425219 S    
N4    O19   1.348433 S    
C17   C29   1.413150 A    
C10   O17   1.382261 S    
C28   C29   1.397093 A    
C51   H20   1.113144 S    
C12   C15   1.414908 A    
C54   H29   1.113235 S    
C15   C37   1.411285 A    
O22   C56   1.409866 S    
O14   C48   1.411549 S    
C38   C39   1.386755 A    
C27   O10   1.348973 S    
N1    C11   1.435989 S    
C20   C24   1.421271 A    
C24   C25   1.413617 A    
C25   C26   1.405012 A    
C8    F7    1.357361 S    
C14   C36   1.388028 A    
C26   N2    1.366230 A    
O7    C4    1.311122 A    
C48   H12   1.114152 S    
C5    C13   1.405315 A    
C5    O9    1.349583 S    
C53   H26   1.112185 S    
C52   H25   1.107243 S    
Cu1   O5    1.950553 S    
C22   C23   1.411892 A    
C47   H8    1.112493 S    
O5    C3    1.306298 A    
O21   C55   1.411262 S    
C6    O11   1.349126 S    
C26   O12   1.349705 S    
C2    C16   1.488716 S    
C33   C34   1.418010 A    
C45   N3    1.296562 D    
C43   H7    1.086510 S    
C36   H2    1.078263 S    
O19   C53   1.422594 S    
C46   N4    1.298720 D    
C19   C38   1.411363 A    
C50   H18   1.113371 S    
C41   C43   1.460078 S    
N2    C32   1.438187 S    
C37   O14   1.384576 S    
C9    C10   1.409209 A    
C17   C30   1.411927 A    
C47   H9    1.113422 S    
C52   H23   1.112885 S    
C19   C35   1.420460 A    
O3    Cu1   1.950546 S    
N1    C6    1.366784 A    
C33   C36   1.410005 A    
C37   C40   1.396836 A    
C55   H33   1.113942 S    
C40   H5    1.077926 S    
C9    O13   1.382924 S    
C12   C34   1.421982 A    
C18   C33   1.423268 A    
Cu1   Cu2   2.732569 S    
C12   C13   1.412993 A    
O3    C2    1.316051 A    
C46   F5    1.357148 S    
N2    C27   1.367230 A    
C48   H11   1.112245 S    
C8    C16   1.414324 A    
C13   C14   1.403958 A    
C39   F1    1.358627 S    
O1    C1    1.306327 A    
C23   C24   1.413884 A    
C44   F3    1.361434 S    
C7    C11   1.394420 A    
C30   C31   1.404616 A    
C45   F4    1.357655 S    
C41   C42   1.340367 D    
C29   O20   1.382172 S    
Cu1   O7    1.955353 S    
C49   H14   1.113438 S    
C3    C42   1.444510 S    
Cu2   O8    1.950540 S    
C21   C22   1.403617 A    
C50   H19   1.109203 S    
C52   H24   1.086329 S    
C56   H37   1.109489 S    
Cu2   O6    1.957150 S    
C34   C35   1.414526 A    
C49   H15   1.113383 S    
C9    C16   1.420844 A    
O8    C4    1.314063 A    
C43   C44   1.342635 D    
C47   H10   1.108908 S    
C1    C44   1.445544 S    
C4    C17   1.473984 S    
C14   F6    1.358311 S    
C31   C32   1.406178 A    
C56   H36   1.113022 S    
O20   C54   1.409935 S    
C55   H34   1.109341 S    
C7    H3    1.083246 S    
C5    N1    1.365925 A    
Cu2   N4    2.053370 S    
C18   C21   1.422755 A    
O1    Cu1   1.957151 S    
C19   C20   1.420350 A    
O2    Cu2   1.950553 S    
C6    C15   1.411266 A    
O13   C47   1.410739 S    
O6    C3    1.305660 A    
Cu1   N3    2.052778 S    
O4    Cu2   1.955356 S    
C54   H30   1.113742 S    
C55   H32   1.111927 S    
C51   H21   1.113054 S    
N3    O18   1.350655 S    
C35   C40   1.410361 A    
C53   H28   1.107882 S    
C7    C8    1.391017 A    
O2    C1    1.306075 A    
C18   C20   1.417253 A    
C48   H13   1.109365 S    
O4    C2    1.317326 A    
C53   H27   1.081751 S    
C23   C27   1.412715 A    
O17   C51   1.409351 S    
C54   H31   1.109319 S    
C42   H6    1.084086 S    
C38   H4    1.078021 S    
C49   H16   1.109155 S    
O16   C50   1.409253 S    
C45   C46   1.512023 S    
O15   C49   1.411106 S    
C41   F2    1.361084 S    
C21   O22   1.383583 S    
C30   O15   1.381195 S    
C28   C32   1.398147 A    
C10   C11   1.403164 A    
C50   H17   1.113494 S    
C31   O16   1.381790 S    
C51   H22   1.109303 S    
C28   H1    1.083266 S    
C25   C39   1.403815 A    
C56   H35   1.113411 S    
