data_mof_unit_35204.cif
_audit_creation_date              2012-12-10T19:11:06-0500
_audit_creation_method            fapswitch 2.2
_symmetry_space_group_name_H-M    P1
_symmetry_Int_Tables_number       1
_space_group_crystal_system       triclinic
_cell_length_a                    11.191074
_cell_length_b                    9.239442
_cell_length_c                    8.152361
_cell_angle_alpha                 87.137312
_cell_angle_beta                  88.898865
_cell_angle_gamma                 89.718414
_cell_volume                      841.734255946

loop_
_atom_site_label
_atom_site_type_symbol
_atom_type_description
_atom_site_fract_x
_atom_site_fract_y
_atom_site_fract_z
_atom_type_partial_charge
C1    C     C_R   0.496507 0.221221 0.502540 0.947437
C2    C     C_R   0.260913 0.511070 0.497874 0.876343
C3    C     C_R   0.738996 0.505928 0.496584 0.981719
C4    C     C_R   0.494083 0.778708 0.497669 0.933666
C5    C     C_1   0.493177 0.065233 0.503466 -0.136519
C6    C     C_3   0.071345 0.385538 0.612841 0.019746
C7    C     C_3   0.079271 0.486321 0.303326 0.063142
C8    C     C_3   0.924914 0.373803 0.597914 0.001335
C9    C     C_3   0.930522 0.505153 0.295668 0.056161
C10   C     C_1   0.492395 0.934771 0.496896 -0.076992
C11   C     C_3   0.069934 0.680496 0.536858 -0.206003
C12   C     C_3   0.920954 0.675678 0.549784 -0.174265
C13   C     C_3   0.122053 0.518185 0.487313 -0.247258
C14   C     C_3   0.877032 0.514482 0.487327 -0.265081
Cu1   Cu    Cu3+1 0.500000 0.500010 0.669080 1.032326
Cu2   Cu    Cu3+1 0.500000 0.500010 0.330920 1.035684
N1    N     N_1   0.500000 0.499970 0.076820 -0.090777
N2    N     N_1   0.500000 0.499970 0.923180 -0.087243
O1    O     O_R   0.500000 0.288400 0.642760 -0.610122
O2    O     O_R   0.500000 0.288400 0.357240 -0.519535
O3    O     O_R   0.317700 0.499990 0.642790 -0.564620
O4    O     O_R   0.317700 0.499990 0.357210 -0.550157
O5    O     O_R   0.682300 0.499990 0.642790 -0.530301
O6    O     O_R   0.682300 0.499990 0.357210 -0.559130
O7    O     O_R   0.500000 0.711620 0.642810 -0.540129
O8    O     O_R   0.500000 0.711620 0.357190 -0.629475
N3    N     N_2   0.103367 0.424041 0.778197 -0.426792
H1    H     H_    0.046499 0.488751 0.838293 0.291115
C15   C     C_3   0.192007 0.347452 0.880308 -0.449218
H2    H     H_    0.241774 0.425113 0.948404 0.227227
H3    H     H_    0.265086 0.294190 0.812425 0.217027
H4    H     H_    0.146608 0.262012 0.957445 0.269992
N4    N     N_2   0.132045 0.581415 0.168193 -0.387637
H5    H     H_    0.103471 0.549055 0.059227 0.270640
C16   C     C_3   0.240708 0.667431 0.135241 -0.431052
H6    H     H_    0.222472 0.758057 0.046561 0.207268
H7    H     H_    0.309404 0.603366 0.076349 0.213598
H8    H     H_    0.275963 0.720173 0.242609 0.208224
N5    N     N_2   0.869431 0.373548 0.763605 -0.380879
H9    H     H_    0.867278 0.468140 0.820854 0.304432
C17   C     C_3   0.784218 0.268212 0.837363 -0.436037
H10   H     H_    0.737406 0.316739 0.941279 0.209450
H11   H     H_    0.830651 0.166309 0.876287 0.228032
H12   H     H_    0.707085 0.246914 0.762007 0.236628
N6    N     N_2   0.897667 0.639353 0.194655 -0.397619
H13   H     H_    0.950839 0.663428 0.094058 0.328119
C18   C     C_3   0.779047 0.673091 0.131035 -0.526021
H14   H     H_    0.783712 0.772506 0.050302 0.209311
H15   H     H_    0.714505 0.709836 0.221760 0.252295
H16   H     H_    0.742624 0.582397 0.063594 0.255070
C19   C     C_2   0.133083 0.234021 0.600051 0.954553
O9    O     O_2   0.226627 0.217637 0.523737 -0.604538
O10   O     O_R   0.097196 0.121878 0.713090 -0.678593
H17   H     H_    0.155043 0.037291 0.718612 0.368364
C20   C     C_2   0.126394 0.331879 0.260882 0.822374
O11   O     O_2   0.229744 0.314136 0.214847 -0.549605
O12   O     O_R   0.055790 0.208693 0.272895 -0.734302
H18   H     H_    0.100782 0.120484 0.238455 0.368295
C21   C     C_2   0.877199 0.230582 0.527642 0.928691
O13   O     O_2   0.938309 0.123228 0.515009 -0.476549
O14   O     O_R   0.755084 0.212611 0.504466 -0.783370
H19   H     H_    0.733060 0.110090 0.479007 0.332044
C22   C     C_2   0.884438 0.383715 0.191681 0.860526
O15   O     O_2   0.939657 0.360517 0.066128 -0.636019
O16   O     O_R   0.782553 0.302118 0.226436 -0.719845
H20   H     H_    0.783009 0.205900 0.172018 0.318046
C23   C     C_2   0.136988 0.721560 0.696049 0.862951
O17   O     O_2   0.088681 0.725927 0.830309 -0.642281
O18   O     O_R   0.257685 0.761107 0.684719 -0.753404
H21   H     H_    0.291050 0.795229 0.790516 0.322415
C24   C     C_2   0.107794 0.808455 0.413168 0.944293
O19   O     O_2   0.170808 0.907965 0.453957 -0.569805
O20   O     O_R   0.066766 0.819745 0.253448 -0.694097
H22   H     H_    0.100384 0.903518 0.183276 0.335434
C25   C     C_2   0.876803 0.731960 0.715589 0.828672
O21   O     O_2   0.787913 0.683533 0.785430 -0.617566
O22   O     O_R   0.914030 0.870927 0.756030 -0.672193
H23   H     H_    0.868427 0.910993 0.852084 0.330190
C26   C     C_2   0.843873 0.795438 0.453922 0.915740
O23   O     O_2   0.735857 0.797154 0.478767 -0.676263
O24   O     O_R   0.887394 0.908909 0.352345 -0.656067
H24   H     H_    0.822938 0.964672 0.290079 0.318784

loop_
_geom_bond_atom_site_label_1
_geom_bond_atom_site_label_2
_ccdc_geom_bond_type
Cu1   N2    S    
C20   O11   D    
C22   O16   S    
C9    N6    S    
N3    C15   S    
C17   H11   S    
C17   H10   S    
C3    O5    A    
C16   H6    S    
C7    C20   S    
C9    C14   S    
O24   H24   S    
C18   H15   S    
N6    H13   S    
Cu1   O1    S    
C1    C5    S    
C16   H7    S    
C15   H4    S    
C8    C21   S    
C11   C24   S    
Cu1   O7    S    
Cu1   Cu2   S    
C12   C26   S    
O20   H22   S    
C2    C13   S    
C18   H14   S    
Cu2   N1    S    
C2    O4    A    
C8    C14   S    
C8    N5    S    
C6    C19   S    
Cu1   O5    S    
C21   O13   D    
Cu2   O6    S    
C7    N4    S    
C3    O6    A    
O18   H21   S    
C5    C10   T    
C11   C23   S    
N4    H5    S    
C18   H16   S    
N6    C18   S    
Cu2   O8    S    
C21   O14   S    
C1    O1    A    
C23   O17   D    
C16   H8    S    
C26   O23   D    
N5    C17   S    
N5    H9    S    
C24   O20   S    
C6    C8    S    
O22   H23   S    
C19   O9    D    
C23   O18   S    
C25   O21   D    
C15   H2    S    
C6    N3    S    
C7    C13   S    
Cu2   O2    S    
C2    O3    A    
N1    N2    T    
C25   O22   S    
C3    C14   S    
C12   C14   S    
C20   O12   S    
C17   H12   S    
C4    C10   S    
C4    O7    A    
C26   O24   S    
C7    C9    S    
C1    O2    A    
Cu2   O4    S    
C9    C22   S    
C4    O8    A    
C11   C12   S    
O10   H17   S    
C24   O19   D    
C15   H3    S    
C6    C13   S    
C11   C13   S    
O12   H18   S    
N4    C16   S    
O14   H19   S    
C22   O15   D    
Cu1   O3    S    
O16   H20   S    
C12   C25   S    
N3    H1    S    
C19   O10   S    
