data_mof_unit_64766.cif
_audit_creation_date              2012-12-10T20:06:47-0500
_audit_creation_method            fapswitch 2.2
_symmetry_space_group_name_H-M    P1
_symmetry_Int_Tables_number       1
_space_group_crystal_system       triclinic
_cell_length_a                    32.084854
_cell_length_b                    32.084917
_cell_length_c                    38.777655
_cell_angle_alpha                 90.00038
_cell_angle_beta                  90.00011
_cell_angle_gamma                 90.000035
_cell_volume                      39919.2644138

loop_
_atom_site_label
_atom_site_type_symbol
_atom_type_description
_atom_site_fract_x
_atom_site_fract_y
_atom_site_fract_z
_atom_type_partial_charge
C1    C     C_R   0.919330 0.500000 1.000000 0.885069
C2    C     C_R   0.526058 0.228377 0.977231 0.604612
C3    C     C_R   0.533069 0.981704 0.840762 -0.217093
C4    C     C_R   0.018292 0.466931 0.159239 -0.217158
C5    C     C_R   0.533070 0.018291 0.159238 -0.217481
C6    C     C_R   0.981709 0.533068 0.159238 -0.217284
C7    C     C_R   0.466934 0.981705 0.159239 -0.217317
C8    C     C_R   0.481719 0.966926 0.340761 -0.218051
C9    C     C_R   0.966931 0.518291 0.340761 -0.217320
C10   C     C_R   0.518291 0.033069 0.340761 -0.217445
C11   C     C_R   0.033068 0.481708 0.340762 -0.217144
C12   C     C_R   0.518292 0.966929 0.659239 -0.217337
C13   C     C_R   0.228377 0.476946 0.975110 0.604540
C14   C     C_R   0.033069 0.518291 0.659239 -0.217258
C15   C     C_R   0.481720 0.033073 0.659239 -0.218159
C16   C     C_R   0.966932 0.481707 0.659238 -0.217206
C17   C     C_R   0.000000 0.499999 0.822607 -0.111033
C18   C     C_R   0.500001 0.999996 0.822607 -0.111000
C19   C     C_R   0.000000 0.500000 0.177393 -0.111034
C20   C     C_R   0.500003 0.999998 0.177393 -0.111000
C21   C     C_R   0.500006 0.999997 0.322607 -0.111021
C22   C     C_R   1.000000 0.499999 0.322607 -0.111055
C23   C     C_R   0.500007 0.000001 0.677393 -0.111021
C24   C     C_R   0.478156 0.771623 0.974375 0.604431
C25   C     C_R   0.000000 0.499999 0.677393 -0.111055
C26   C     C_R   1.000000 0.500000 0.894790 -0.334067
C27   C     C_R   0.500000 0.999998 0.894790 -0.334068
C28   C     C_R   0.000000 0.500000 0.105210 -0.334068
C29   C     C_R   0.500001 0.999999 0.105210 -0.334068
C30   C     C_R   0.500002 0.999999 0.394790 -0.334265
C31   C     C_R   1.000000 0.499999 0.394790 -0.334094
C32   C     C_R   0.500003 0.000000 0.605210 -0.334265
C33   C     C_R   0.000000 0.499999 0.605210 -0.334094
C34   C     C_R   0.000000 0.499999 0.715142 0.371181
C35   C     C_R   0.228377 0.523054 0.024889 0.604478
C36   C     C_R   0.500006 1.000000 0.715142 0.371006
C37   C     C_R   1.000000 0.499999 0.284858 0.371181
C38   C     C_R   0.500006 0.999997 0.284858 0.371005
C39   C     C_R   0.500004 0.999997 0.215142 0.371114
C40   C     C_R   0.000000 0.499999 0.215142 0.371176
C41   C     C_R   0.500003 0.999997 0.784858 0.371114
C42   C     C_R   0.000000 0.499999 0.784858 0.371176
C43   C     C_R   0.728190 0.476266 0.024392 -0.243917
C44   C     C_R   0.473978 0.271810 0.022738 -0.244063
C45   C     C_R   0.271810 0.523022 0.024854 -0.243932
C46   C     C_R   0.473942 0.228377 0.022770 0.604563
C47   C     C_R   0.521814 0.728190 0.025589 -0.243874
C48   C     C_R   0.271810 0.476977 0.975145 -0.243900
C49   C     C_R   0.526023 0.271810 0.977263 -0.244040
C50   C     C_R   0.728190 0.523733 0.975607 -0.243950
C51   C     C_R   0.478185 0.728190 0.974411 -0.243895
C52   C     C_R   0.228190 0.969387 0.518405 -0.244296
C53   C     C_R   0.975779 0.771810 0.524061 -0.243954
C54   C     C_R   0.771810 0.021790 0.525604 -0.243871
C55   C     C_R   0.023070 0.228190 0.524824 -0.243812
C56   C     C_R   0.771810 0.978210 0.474396 -0.243866
C57   C     C_R   0.771623 0.476234 0.024426 0.604567
C58   C     C_R   0.024225 0.771810 0.475940 -0.243854
C59   C     C_R   0.228190 0.030612 0.481594 -0.244306
C60   C     C_R   0.976932 0.228190 0.475176 -0.243908
C61   C     C_R   0.706583 0.500000 1.000000 -0.038042
C62   C     C_R   0.500000 0.293417 0.000000 -0.037838
C63   C     C_R   0.293417 0.500000 1.000000 -0.038100
C64   C     C_R   0.500000 0.706583 0.000000 -0.038189
C65   C     C_R   0.206582 1.000000 0.500000 -0.037473
C66   C     C_R   0.000002 0.793417 0.500000 -0.038032
C67   C     C_R   0.793417 0.000000 0.500000 -0.038202
C68   C     C_R   0.521844 0.771623 0.025625 0.604475
C69   C     C_R   0.000001 0.206582 0.500000 -0.038126
C70   C     C_R   0.271622 0.030653 0.481568 0.604805
C71   C     C_R   0.024257 0.728377 0.475906 0.604710
C72   C     C_R   0.728377 0.978181 0.474359 0.604529
C73   C     C_R   0.500000 0.080670 0.000000 0.884383
C74   C     C_R   0.976901 0.271623 0.475141 0.604500
C75   C     C_R   0.728377 0.021819 0.525640 0.604504
C76   C     C_R   0.975745 0.728377 0.524095 0.604544
C77   C     C_R   0.271622 0.969346 0.518431 0.604841
C78   C     C_R   0.023101 0.271623 0.524859 0.604660
C79   C     C_R   0.793314 0.499999 0.999999 -0.164375
C80   C     C_R   0.500000 0.206686 0.000000 -0.164564
C81   C     C_R   0.206686 0.500000 1.000000 -0.164318
C82   C     C_R   0.500000 0.793314 0.000000 -0.164226
C83   C     C_R   0.293315 1.000000 0.499999 -0.165249
C84   C     C_R   0.080670 0.500000 1.000000 0.885262
C85   C     C_R   0.000001 0.706686 0.500001 -0.164457
C86   C     C_R   0.706686 0.000000 0.499999 -0.164272
C87   C     C_R   0.000001 0.293314 0.500000 -0.164355
C88   C     C_1   0.662165 0.500000 0.000000 0.049479
C89   C     C_1   0.500000 0.337836 0.000000 0.049497
C90   C     C_1   0.337836 0.500000 1.000000 0.049463
C91   C     C_1   0.500000 0.662164 0.000000 0.049448
C92   C     C_1   0.162164 1.000000 0.500000 0.049571
C93   C     C_1   0.000001 0.837835 0.500000 0.049494
C94   C     C_1   0.837835 0.000000 0.500000 0.049464
C95   C     C_R   0.500000 0.919330 0.000000 0.885567
C96   C     C_1   0.000001 0.162164 0.500000 0.049477
C97   C     C_1   0.837779 0.500000 1.000000 0.165434
C98   C     C_1   0.500000 0.162221 0.000000 0.165386
C99   C     C_1   0.162221 0.500000 0.999999 0.165435
C100  C     C_1   0.500000 0.837779 0.000000 0.165436
C101  C     C_1   0.337779 1.000000 0.499999 0.165341
C102  C     C_1   0.000000 0.662221 0.500001 0.165499
C103  C     C_1   0.662221 1.000000 0.499999 0.165501
C104  C     C_1   0.000000 0.337779 0.500000 0.165514
C105  C     C_1   0.875086 0.500000 1.000000 -0.086785
C106  C     C_R   0.419330 1.000000 0.500000 0.882670
C107  C     C_1   0.500000 0.124914 0.000000 -0.086711
C108  C     C_1   0.124914 0.500000 1.000000 -0.086821
C109  C     C_1   0.500000 0.875086 0.000000 -0.086881
C110  C     C_1   0.375086 1.000000 0.500000 -0.086406
C111  C     C_1   0.000000 0.624914 0.500000 -0.086679
C112  C     C_1   0.624914 1.000000 0.500000 -0.086765
C113  C     C_1   1.000000 0.375086 0.500000 -0.086728
C114  C     C_1   0.624857 0.500000 0.000000 -0.158782
C115  C     C_1   0.500000 0.375143 0.000000 -0.158778
C116  C     C_1   0.375143 0.500000 1.000000 -0.158789
C117  C     C_R   0.000000 0.580670 0.500000 0.884886
C118  C     C_1   0.500000 0.624857 1.000000 -0.158780
C119  C     C_1   0.124857 0.000000 0.500000 -0.158790
C120  C     C_1   0.000001 0.875143 0.500000 -0.158826
C121  C     C_1   0.875143 0.000000 0.500000 -0.158789
C122  C     C_1   0.000001 0.124857 0.500000 -0.158827
C123  C     C_R   0.500000 0.419391 0.000000 0.892922
C124  C     C_R   0.419391 0.500000 1.000000 0.893019
C125  C     C_R   0.500000 0.580609 1.000000 0.893082
C126  C     C_R   0.580609 0.500000 0.000000 0.892997
C127  C     C_R   0.000000 0.919391 0.500000 0.892913
C128  C     C_R   0.580670 1.000000 0.500000 0.885459
C129  C     C_R   0.919391 1.000000 0.500000 0.893092
C130  C     C_R   0.000000 0.080609 0.500000 0.892956
C131  C     C_R   0.080608 0.000000 0.500000 0.892726
C132  C     C_R   1.000000 0.500000 0.932473 0.966434
C133  C     C_R   0.500000 0.999999 0.932473 0.966257
C134  C     C_R   1.000000 0.500000 0.067527 0.966433
C135  C     C_R   0.500000 1.000000 0.067527 0.966256
C136  C     C_R   0.500000 1.000000 0.432473 0.965447
C137  C     C_R   1.000000 0.500000 0.432473 0.966330
C138  C     C_R   0.500001 1.000000 0.567527 0.965446
C139  C     C_R   0.000000 0.419330 0.500000 0.885206
C140  C     C_R   1.000000 0.500000 0.567527 0.966329
C141  C     C_R   0.981858 0.466738 0.876608 0.592596
C142  C     C_R   0.466739 0.018139 0.876607 0.592092
C143  C     C_R   0.018142 0.533262 0.876608 0.592721
C144  C     C_R   0.533262 0.981855 0.876609 0.592997
C145  C     C_R   0.018142 0.466738 0.123392 0.592755
C146  C     C_R   0.533263 0.018141 0.123392 0.592112
C147  C     C_R   0.981859 0.533262 0.123392 0.592563
C148  C     C_R   0.466740 0.981856 0.123392 0.592977
C149  C     C_R   0.481868 0.966733 0.376608 0.591382
C150  C     C_R   0.771623 0.523765 0.975572 0.604505
C151  C     C_R   0.966738 0.518141 0.376608 0.592507
C152  C     C_R   0.518139 0.033264 0.376607 0.593025
C153  C     C_R   0.033262 0.481858 0.376608 0.592817
C154  C     C_R   0.518140 0.966735 0.623392 0.593043
C155  C     C_R   0.033262 0.518141 0.623392 0.592572
C156  C     C_R   0.481869 0.033266 0.623393 0.591363
C157  C     C_R   0.966738 0.481858 0.623392 0.592753
C158  C     C_R   0.981708 0.466931 0.840761 -0.217233
C159  C     C_R   0.466933 0.018289 0.840761 -0.217704
C160  C     C_R   0.018292 0.533068 0.840761 -0.217209
F1    F     F_    0.963483 0.434475 0.893416 -0.616234
F2    F     F_    0.934475 0.536516 0.393415 -0.616313
F3    F     F_    0.536509 0.065530 0.393415 -0.615996
F4    F     F_    0.065524 0.463483 0.393416 -0.616057
F5    F     F_    0.536509 0.934469 0.606584 -0.615929
F6    F     F_    0.065525 0.536517 0.606585 -0.616176
F7    F     F_    0.463498 0.065532 0.606586 -0.616527
F8    F     F_    0.934476 0.463482 0.606584 -0.616195
F9    F     F_    0.792447 0.453132 0.048172 -0.622418
F10   F     F_    0.448612 0.207553 0.044905 -0.622274
F11   F     F_    0.207553 0.545463 0.049084 -0.622548
F12   F     F_    0.434476 0.036516 0.893414 -0.616551
F13   F     F_    0.543078 0.792447 0.050536 -0.622589
F14   F     F_    0.207553 0.454536 0.950914 -0.622488
F15   F     F_    0.551388 0.207553 0.955096 -0.622201
F16   F     F_    0.792446 0.546867 0.951827 -0.622481
F17   F     F_    0.456922 0.792448 0.949465 -0.622656
F18   F     F_    0.292449 0.939544 0.536352 -0.621388
F19   F     F_    0.952167 0.707553 0.547518 -0.622412
F20   F     F_    0.707553 0.043028 0.550565 -0.622570
F21   F     F_    0.045556 0.292447 0.549026 -0.622353
F22   F     F_    0.707553 0.956972 0.449434 -0.622540
F23   F     F_    0.036517 0.565524 0.893415 -0.616241
F24   F     F_    0.047835 0.707553 0.452484 -0.622241
F25   F     F_    0.292449 0.060455 0.463646 -0.621434
F26   F     F_    0.954445 0.292448 0.450975 -0.622515
F27   F     F_    0.565524 0.963479 0.893417 -0.616027
F28   F     F_    0.036517 0.434475 0.106585 -0.616166
F29   F     F_    0.565525 0.036518 0.106584 -0.616435
F30   F     F_    0.963483 0.565525 0.106584 -0.616309
F31   F     F_    0.434477 0.963480 0.106585 -0.616145
F32   F     F_    0.463497 0.934468 0.393415 -0.616461
H1    H     H_    0.967484 0.441028 0.827263 0.203896
H2    H     H_    0.941028 0.532515 0.327263 0.203871
H3    H     H_    0.532512 0.058975 0.327263 0.203880
H4    H     H_    0.058972 0.467483 0.327263 0.203933
H5    H     H_    0.532512 0.941023 0.672737 0.203950
H6    H     H_    0.058972 0.532515 0.672737 0.203916
H7    H     H_    0.467501 0.058978 0.672738 0.203842
H8    H     H_    0.941029 0.467483 0.672737 0.203888
H9    H     H_    0.711456 0.457867 0.043301 0.195346
H10   H     H_    0.453804 0.288545 0.040364 0.195189
H11   H     H_    0.288545 0.540870 0.044122 0.195375
H12   H     H_    0.441030 0.032514 0.827262 0.203747
H13   H     H_    0.538726 0.711455 0.045426 0.195447
H14   H     H_    0.288545 0.459130 0.955878 0.195385
H15   H     H_    0.546196 0.288545 0.959637 0.195204
H16   H     H_    0.711455 0.542132 0.956698 0.195335
H17   H     H_    0.461274 0.711455 0.954574 0.195435
H18   H     H_    0.211453 0.945654 0.532675 0.194913
H19   H     H_    0.957000 0.788545 0.542713 0.195308
H20   H     H_    0.788545 0.038681 0.545452 0.195448
H21   H     H_    0.040954 0.211455 0.544068 0.195408
H22   H     H_    0.788545 0.961319 0.454547 0.195452
H23   H     H_    0.032517 0.558971 0.827263 0.203870
H24   H     H_    0.043003 0.788545 0.457288 0.195347
H25   H     H_    0.211453 0.054345 0.467324 0.194903
H26   H     H_    0.959048 0.211455 0.455932 0.195372
H27   H     H_    0.558972 0.967479 0.827265 0.203936
H28   H     H_    0.032516 0.441028 0.172737 0.203904
H29   H     H_    0.558974 0.032516 0.172736 0.203887
H30   H     H_    0.967484 0.558972 0.172737 0.203861
H31   H     H_    0.441032 0.967480 0.172737 0.203796
H32   H     H_    0.467500 0.941020 0.327263 0.203912
N1    N     N_R   0.025726 0.525786 0.767124 -0.154005
N2    N     N_R   0.025787 0.474274 0.267124 -0.153943
N3    N     N_R   0.474282 0.974207 0.267124 -0.154457
N4    N     N_R   0.974213 0.525725 0.267124 -0.154087
N5    N     N_R   0.474282 0.025789 0.732876 -0.154591
N6    N     N_R   0.974213 0.474274 0.732876 -0.153987
N7    N     N_R   0.525728 0.974210 0.732876 -0.153806
N8    N     N_R   0.025788 0.525724 0.732876 -0.154042
N9    N     N_R   0.525788 0.974270 0.767125 -0.153859
N10   N     N_R   0.974275 0.474212 0.767124 -0.154022
N11   N     N_R   0.474219 0.025726 0.767124 -0.154426
N12   N     N_R   0.974275 0.525787 0.232875 -0.154074
N13   N     N_R   0.474220 0.974269 0.232876 -0.154105
N14   N     N_R   0.025726 0.474212 0.232876 -0.153953
N15   N     N_R   0.525789 0.025725 0.232875 -0.154180
N16   N     N_R   0.525728 0.025786 0.267124 -0.153940
O1    O     O_R   0.939070 0.534360 0.999910 -0.602469
O2    O     O_R   0.034360 0.560930 0.499910 -0.602254
O3    O     O_R   0.560930 0.965640 0.499910 -0.602736
O4    O     O_R   0.965640 0.439070 0.499910 -0.602601
O5    O     O_R   0.560930 0.034360 0.500090 -0.602773
O6    O     O_R   0.965640 0.560930 0.500090 -0.602383
O7    O     O_R   0.439070 0.965640 0.500090 -0.600920
O8    O     O_R   0.034360 0.439070 0.500090 -0.602471
O9    O     O_R   0.000050 0.534360 0.948990 -0.569591
O10   O     O_R   0.534360 0.999950 0.948990 -0.569559
O11   O     O_R   0.999950 0.465640 0.948990 -0.569553
O12   O     O_R   0.534360 0.060930 0.999910 -0.601965
O13   O     O_R   0.465640 0.000050 0.948990 -0.569574
O14   O     O_R   0.999950 0.534360 0.051010 -0.569585
O15   O     O_R   0.465640 0.999950 0.051010 -0.569612
O16   O     O_R   0.000050 0.465640 0.051010 -0.569558
O17   O     O_R   0.534360 0.000050 0.051010 -0.569522
O18   O     O_R   0.500050 0.034360 0.448990 -0.569692
O19   O     O_R   0.034360 0.499950 0.448990 -0.569514
O20   O     O_R   0.499950 0.965640 0.448990 -0.569290
O21   O     O_R   0.965640 0.500050 0.448990 -0.569579
O22   O     O_R   0.499950 0.034360 0.551010 -0.569315
O23   O     O_R   0.060930 0.465640 0.999910 -0.602544
O24   O     O_R   0.965640 0.499950 0.551010 -0.569585
O25   O     O_R   0.500050 0.965640 0.551010 -0.569667
O26   O     O_R   0.034360 0.500050 0.551010 -0.569509
O27   O     O_R   0.500080 0.438950 0.971150 -0.607883
O28   O     O_R   0.438950 0.499920 0.971150 -0.607961
O29   O     O_R   0.499920 0.561050 0.971150 -0.607996
O30   O     O_R   0.561050 0.500080 0.971150 -0.607950
O31   O     O_R   0.499920 0.438950 0.028850 -0.607888
O32   O     O_R   0.561050 0.499920 0.028850 -0.607943
O33   O     O_R   0.500080 0.561050 0.028850 -0.607991
O34   O     O_R   0.465640 0.939070 0.999910 -0.602821
O35   O     O_R   0.438950 0.500080 0.028850 -0.607967
O36   O     O_R   0.000080 0.938950 0.471150 -0.607942
O37   O     O_R   0.938950 0.999920 0.471150 -0.607999
O38   O     O_R   0.999920 0.061050 0.471150 -0.607971
O39   O     O_R   0.061050 0.000080 0.471150 -0.607760
O40   O     O_R   0.999920 0.938950 0.528850 -0.607941
O41   O     O_R   0.061050 0.999920 0.528850 -0.607761
O42   O     O_R   0.000080 0.061050 0.528850 -0.607971
O43   O     O_R   0.938950 0.000080 0.528850 -0.607998
O44   O     O_R   0.060930 0.534360 0.000090 -0.602605
O45   O     O_R   0.465640 0.060930 0.000090 -0.602022
O46   O     O_R   0.939070 0.465640 0.000090 -0.602408
O47   O     O_R   0.534360 0.939070 0.000090 -0.602762
O48   O     O_R   0.439070 0.034360 0.499910 -0.600954
Zn1   Zn    Zn3+2 1.000000 0.545910 0.000000 1.125216
Zn2   Zn    Zn3+2 0.500000 0.500000 0.038460 1.024892
Zn3   Zn    Zn3+2 1.000000 0.000000 0.461540 1.024886
Zn4   Zn    Zn3+2 1.000000 0.000000 0.538460 1.024886
Zn5   Zn    Zn3+2 0.545910 0.000000 0.000000 1.125595
Zn6   Zn    Zn3+2 0.000000 0.454090 0.000000 1.125414
Zn7   Zn    Zn3+2 0.454090 0.000000 0.000000 1.125368
Zn8   Zn    Zn3+2 0.500000 0.045910 0.500000 1.126564
Zn9   Zn    Zn3+2 0.045910 0.500000 0.500000 1.125824
Zn10  Zn    Zn3+2 0.500000 0.954090 0.500000 1.126694
Zn11  Zn    Zn3+2 0.954090 0.500000 0.500000 1.125406
Zn12  Zn    Zn3+2 0.500000 0.500000 0.961540 1.024892

loop_
_geom_bond_atom_site_label_1
_geom_bond_atom_site_label_2
_ccdc_geom_bond_type
O24   Zn11  S    
C125  O33   A    
O38   Zn3   S    
C12   C23   A    
C28   C145  A    
C126  O32   A    
C92   C119  T    
C147  F30   S    
C129  O43   A    
C17   C160  A    
C18   C159  A    
C70   F25   S    
C56   C72   A    
C136  O20   A    
C67   C94   S    
C93   C120  T    
C90   C116  T    
C127  O40   A    
C31   C137  S    
C25   C34   S    
C73   O12   A    
C97   C105  T    
C148  F31   S    
C100  C109  T    
C52   H18   S    
C102  C111  T    
C157  F8    S    
C1    O46   A    
C44   C46   A    
C10   C21   A    
C158  H1    S    
C115  C123  S    
C47   H13   S    
C145  F28   S    
C95   C109  S    
C133  O13   A    
C47   C64   A    
C30   C149  A    
C81   C99   S    
C101  C110  T    
C160  H23   S    
C124  O28   A    
C103  C112  T    
O34   Zn7   S    
C7    H31   S    
C51   H17   S    
C75   C86   A    
C45   H11   S    
O9    Zn1   S    
O45   Zn7   S    
C91   C118  T    
C32   C154  A    
O42   Zn4   S    
C37   N2    A    
C29   C135  S    
C30   C136  S    
C28   C134  S    
C52   C77   A    
C35   C45   A    
C43   C61   A    
C16   C25   A    
C9    C151  A    
C28   C147  A    
C49   C62   A    
C126  O30   A    
C51   C64   A    
C12   C154  A    
C79   C97   S    
O43   Zn4   S    
C123  O27   A    
C41   N9    A    
O3    Zn10  S    
O23   Zn6   S    
N6    N10   A    
O48   Zn8   S    
C38   N16   A    
C46   F10   S    
C23   C36   S    
C64   C91   S    
C76   C85   A    
C52   C65   A    
C1    C105  S    
C6    H30   S    
C50   H16   S    
C78   C87   A    
C89   C115  T    
C76   F19   S    
C29   C148  A    
C39   N15   A    
C120  C127  S    
C143  C160  A    
C5    C20   A    
C117  O6    A    
C6    C19   A    
O25   Zn10  S    
C95   O34   A    
C128  O5    A    
C2    C49   A    
C114  C126  S    
O46   Zn6   S    
C40   N14   A    
C32   C156  A    
C37   N4    A    
C21   C38   S    
C119  C131  S    
C113  C139  S    
C154  F5    S    
C74   C87   A    
C56   H22   S    
C16   H8    S    
C54   H20   S    
O21   Zn11  S    
O10   Zn5   S    
C44   H10   S    
C132  O9    A    
C137  O19   A    
N1    N8    A    
O12   Zn5   S    
C55   C78   A    
C41   N11   A    
O1    Zn1   S    
O47   Zn5   S    
C32   C138  S    
C53   C66   A    
C60   H26   S    
C2    F15   S    
C31   C151  A    
C30   C152  A    
C55   C69   A    
C66   C93   S    
O22   Zn8   S    
C26   C143  A    
C47   C68   A    
C39   N13   A    
C123  O31   A    
O19   Zn9   S    
C83   C101  S    
O11   Zn6   S    
O35   Zn2   S    
C55   H21   S    
C68   F13   S    
C33   C155  A    
O37   Zn3   S    
C138  O25   A    
C111  C117  S    
C68   C82   A    
O28   Zn12  S    
C59   C65   A    
O16   Zn6   S    
C6    C147  A    
C159  H12   S    
O6    Zn11  S    
C24   C51   A    
C95   O47   A    
C4    C145  A    
C140  O26   A    
C152  F3    S    
C19   C40   S    
C43   C57   A    
C104  C113  T    
C140  O24   A    
C73   O45   A    
C43   H9    S    
O29   Zn12  S    
C85   C102  S    
C132  O11   A    
C38   N3    A    
C144  F27   S    
C137  O21   A    
O2    Zn9   S    
C35   F11   S    
C5    H29   S    
N15   N16   A    
C131  O41   A    
C142  C159  A    
C106  O48   A    
C59   C70   A    
O30   Zn12  S    
C124  O35   A    
C58   C71   A    
C73   C107  S    
O5    Zn8   S    
C62   C89   S    
C13   C81   A    
C17   C42   S    
C10   C152  A    
O36   Zn3   S    
C138  O22   A    
C36   N5    A    
C4    H28   S    
C146  F29   S    
C118  C125  S    
C26   C141  A    
C131  O39   A    
C8    H32   S    
O17   Zn5   S    
C117  O2    A    
O26   Zn9   S    
C139  O8    A    
C33   C157  A    
C13   F14   S    
C135  O17   A    
O7    Zn10  S    
C27   C133  S    
C11   H4    S    
O15   Zn7   S    
C20   C39   S    
C9    H2    S    
C22   C37   S    
C98   C107  T    
C143  F23   S    
N5    N11   A    
C99   C108  T    
C14   H6    S    
C151  F2    S    
C27   C144  A    
N7    N9    A    
C70   C83   A    
C79   C150  A    
O44   Zn1   S    
C59   H25   S    
C53   C76   A    
O33   Zn2   S    
C29   C146  A    
C116  C124  S    
C80   C98   S    
C16   C157  A    
C71   F24   S    
C34   N8    A    
C3    C144  A    
C121  C129  S    
C48   C63   A    
C72   C86   A    
C96   C122  T    
C8    C149  A    
C134  O16   A    
C17   C158  A    
O20   Zn10  S    
C36   N7    A    
C84   C108  S    
C14   C25   A    
C88   C114  T    
C112  C128  S    
O41   Zn4   S    
C87   C104  S    
C94   C121  T    
O18   Zn8   S    
C141  C158  A    
C3    H27   S    
C7    C20   A    
C24   F17   S    
C128  O3    A    
C155  F6    S    
C135  O15   A    
C74   F26   S    
C65   C92   S    
C150  F16   S    
C141  F1    S    
N2    N14   A    
C14   C155  A    
C57   C79   A    
C127  O36   A    
C40   N12   A    
C69   C96   S    
C35   C81   A    
C84   O44   A    
O40   Zn4   S    
C60   C69   A    
O13   Zn7   S    
C9    C22   A    
C77   C83   A    
C33   C140  S    
N3    N13   A    
C27   C142  A    
C3    C18   A    
C24   C82   A    
O32   Zn2   S    
C71   C85   A    
C4    C19   A    
C58   C66   A    
C49   H15   S    
C12   H5    S    
C84   O23   A    
C129  O37   A    
O14   Zn1   S    
O31   Zn2   S    
C15   C23   A    
C34   N6    A    
C86   C103  S    
C31   C153  A    
C57   F9    S    
C153  F4    S    
C134  O14   A    
C18   C41   S    
C11   C153  A    
C54   C67   A    
C156  F7    S    
C44   C62   A    
C45   C63   A    
C54   C75   A    
C125  O29   A    
C130  O38   A    
C75   F20   S    
C61   C88   S    
C15   H7    S    
C50   C150  A    
C53   H19   S    
C8    C21   A    
O27   Zn12  S    
C139  O4    A    
C15   C156  A    
C1    O1    A    
O39   Zn3   S    
C136  O18   A    
C106  O7    A    
O8    Zn9   S    
C26   C132  S    
C142  F12   S    
C7    C148  A    
C106  C110  S    
C42   N1    A    
C50   C61   A    
C149  F32   S    
C5    C146  A    
C82   C100  S    
C13   C48   A    
C56   C67   A    
C11   C22   A    
C77   F18   S    
C78   F21   S    
C72   F22   S    
C130  O42   A    
C10   H3    S    
C42   N10   A    
C63   C90   S    
C60   C74   A    
N4    N12   A    
C2    C80   A    
C48   H14   S    
C46   C80   A    
C133  O10   A    
C122  C130  S    
O4    Zn11  S    
C58   H24   S    
