data_mof_unit_5294.cif
_audit_creation_date              2012-12-11T14:48:00-0500
_audit_creation_method            fapswitch 2.2
_symmetry_space_group_name_H-M    P1
_symmetry_Int_Tables_number       1
_space_group_crystal_system       triclinic
_cell_length_a                    11.557261
_cell_length_b                    11.477902
_cell_length_c                    19.519935
_cell_angle_alpha                 90.226827
_cell_angle_beta                  89.805204
_cell_angle_gamma                 59.906424
_cell_volume                      2240.29048208

loop_
_atom_site_label
_atom_site_type_symbol
_atom_type_description
_atom_site_fract_x
_atom_site_fract_y
_atom_site_fract_z
_atom_type_partial_charge
C1    C     C_R   0.640308 0.117731 0.599219 0.547776
C2    C     C_1   0.640787 0.703655 0.667938 0.009936
C3    C     C_1   0.147137 0.188576 0.863277 0.004768
C4    C     C_1   0.228047 0.144328 0.735714 -0.026683
C5    C     C_1   0.188400 0.164067 0.805194 -0.026750
C6    C     C_1   0.259213 0.132097 0.676030 0.003325
C7    C     C_1   0.678510 0.191033 0.860879 0.006849
C8    C     C_1   0.657968 0.167516 0.729074 -0.028859
C9    C     C_1   0.665346 0.180847 0.800426 -0.028495
C10   C     C_1   0.652416 0.150154 0.668631 0.004835
C11   C     C_R   0.527262 0.750862 0.288791 -0.163968
C12   C     C_R   0.612386 0.745686 0.598538 0.546087
C13   C     C_R   0.538547 0.738996 0.219053 -0.137808
C14   C     C_R   0.664054 0.679243 0.189353 -0.029680
C15   C     C_R   0.777594 0.648087 0.228366 -0.133676
C16   C     C_R   0.768601 0.660443 0.299071 0.193210
C17   C     C_R   0.641500 0.707814 0.329781 0.007472
C18   C     C_R   0.236778 0.243670 0.287818 -0.081132
C19   C     C_R   0.207752 0.258640 0.219028 -0.150223
C20   C     C_R   0.163366 0.179207 0.187224 0.005850
C21   C     C_R   0.169520 0.068250 0.223684 0.244848
C22   C     C_R   0.191201 0.060250 0.294029 -0.125405
C23   C     C_R   0.298359 0.119744 0.605397 0.551977
C24   C     C_R   0.219408 0.150920 0.326590 -0.015511
C25   C     C_R   0.707266 0.011688 0.276864 -0.116172
C26   C     C_R   0.720365 0.042002 0.209568 -0.088180
C27   C     C_R   0.660062 0.176824 0.188555 0.025537
C28   C     C_R   0.574972 0.280058 0.233400 -0.137091
C29   C     C_R   0.559944 0.249438 0.300417 -0.128826
C30   C     C_R   0.630935 0.115271 0.323314 0.019131
C31   C     C_R   0.084701 0.229772 0.929333 0.546458
C32   C     C_R   0.683764 0.605212 0.929614 0.544510
C33   C     C_R   0.708313 0.206582 0.930177 0.537093
C34   C     C_R   0.620535 0.082369 0.394453 0.533528
C35   C     C_R   0.088004 0.231687 0.123730 0.570427
C36   C     C_R   0.681973 0.615919 0.123761 0.556378
C37   C     C_R   0.705569 0.209159 0.125475 0.547356
C38   C     C_R   0.615981 0.741634 0.401425 0.568447
C39   C     C_R   0.254308 0.136425 0.398470 0.571062
C40   C     C_1   0.670412 0.647521 0.860235 0.007633
C41   C     C_1   0.654405 0.683868 0.728435 -0.028347
C42   C     C_1   0.663324 0.667502 0.799725 -0.029162
Cr1   Cr    Cr6+3 0.404720 0.198220 0.499960 1.064064
Cr2   Cr    Cr6+3 0.698290 0.897110 0.500380 1.118801
Cr3   Cr    Cr6+3 0.396970 0.904720 0.499610 1.049855
Cr4   Cr    Cr6+3 0.926180 0.152240 0.028110 1.103385
Cr5   Cr    Cr6+3 0.921340 0.452070 0.027460 1.036180
Cr6   Cr    Cr6+3 0.626260 0.447120 0.028700 1.047361
H1    H     H_    0.427659 0.794921 0.310409 0.182050
H2    H     H_    0.783783 0.960405 0.174970 0.156919
H3    H     H_    0.527093 0.384658 0.218150 0.153559
H4    H     H_    0.497137 0.331603 0.334823 0.155528
H5    H     H_    0.451047 0.766826 0.188382 0.221163
H6    H     H_    0.875060 0.603443 0.204183 0.176575
H7    H     H_    0.270423 0.307420 0.310854 0.189907
H8    H     H_    0.212538 0.338249 0.191814 0.163640
H9    H     H_    0.188171 0.981888 0.323367 0.176673
H10   H     H_    0.758582 0.907870 0.292922 0.156855
O1    O     O_R   0.267740 0.231990 0.575440 -0.477672
O2    O     O_R   0.685970 0.784630 0.430010 -0.448048
O3    O     O_R   0.502530 0.766960 0.423990 -0.526237
O4    O     O_R   0.288330 0.026310 0.429250 -0.506698
O5    O     O_3   0.499990 0.000020 0.499980 -0.325148
O6    O     O_R   0.821500 0.119550 0.952820 -0.510295
O7    O     O_R   0.037130 0.162750 0.957360 -0.489063
O8    O     O_R   0.056440 0.344950 0.951330 -0.507377
O9    O     O_R   0.797900 0.560570 0.957460 -0.496154
O10   O     O_R   0.596140 0.579600 0.952720 -0.500855
O11   O     O_R   0.639070 0.321380 0.958660 -0.497361
O12   O     O_R   0.527280 0.186680 0.570530 -0.506994
O13   O     O_R   0.821240 0.124490 0.104360 -0.461009
O14   O     O_R   0.036900 0.167320 0.097830 -0.416170
O15   O     O_R   0.056190 0.349890 0.102870 -0.530271
O16   O     O_R   0.797670 0.565150 0.097930 -0.510248
O17   O     O_R   0.595880 0.584540 0.104260 -0.497169
O18   O     O_R   0.638830 0.325960 0.099140 -0.508039
O19   O     O_3   0.824590 0.350480 0.028090 -0.266839
O20   O     O_R   0.728090 0.003480 0.576380 -0.490887
O21   O     O_R   0.682970 0.789220 0.570490 -0.485020
O22   O     O_R   0.499290 0.771920 0.575530 -0.506499
O23   O     O_R   0.285330 0.030900 0.569730 -0.476846
O24   O     O_R   0.270980 0.227040 0.423900 -0.480557
O25   O     O_R   0.530280 0.182090 0.430050 -0.511769
O26   O     O_R   0.731330 0.998530 0.424830 -0.448842
S1    S     S_3+6 0.919286 0.606369 0.345390 0.020047
O27   O     O_2   0.918979 0.722634 0.381223 -0.258916
O28   O     O_2   0.934223 0.504308 0.397832 -0.229084
O29   O     O_3   0.051542 0.536571 0.291984 -0.550558
H11   H     H_    0.054968 0.613311 0.271077 0.356504
S2    S     S_3+6 0.154013 0.935479 0.186473 -0.011218
O30   O     O_2   0.229366 0.809548 0.228089 -0.336312
O31   O     O_2   0.009676 0.974160 0.187440 -0.264607
O32   O     O_3   0.213637 0.903702 0.105686 -0.531250
H12   H     H_    0.193724 0.834516 0.088248 0.356418

loop_
_geom_bond_atom_site_label_1
_geom_bond_atom_site_label_2
_ccdc_geom_bond_type
C19   H8    S    
C31   O8    A    
O32   H12   S    
Cr1   O25   S    
C41   C42   S    
Cr6   O18   S    
C19   C20   A    
Cr6   O11   S    
C2    C12   S    
C22   H9    S    
Cr1   O5    S    
S1    O27   D    
C23   O1    A    
C26   C27   A    
C18   C24   A    
C28   C29   A    
Cr2   O2    S    
C26   H2    S    
C14   C36   S    
C28   H3    S    
C2    C41   T    
C15   C16   A    
C12   O21   A    
Cr3   O4    S    
C24   C39   S    
C7    C9    T    
C18   C19   A    
C20   C35   S    
C11   C17   A    
C8    C9    S    
Cr5   O8    S    
Cr4   O14   S    
Cr1   O1    S    
C32   O10   A    
C38   O3    A    
C40   C42   T    
C21   C22   A    
C1    O20   A    
C7    C33   S    
Cr6   O17   S    
C34   O26   A    
Cr5   O9    S    
C13   H5    S    
C21   S2    S    
S1    O28   D    
Cr2   O5    S    
C30   C34   S    
C15   H6    S    
Cr5   O15   S    
Cr4   O7    S    
C4    C6    T    
C16   C17   A    
C3    C5    T    
C25   C26   A    
Cr3   O5    S    
Cr4   O6    S    
Cr6   O19   S    
C29   C30   A    
C11   H1    S    
C36   O17   A    
S2    O31   D    
C20   C21   A    
Cr6   O10   S    
C3    C31   S    
Cr4   O13   S    
C36   O16   A    
C18   H7    S    
C32   O9    A    
C38   O2    A    
C8    C10   T    
C37   O18   A    
C35   O14   A    
Cr1   O12   S    
C37   O13   A    
C16   S1    S    
C22   C24   A    
C34   O25   A    
Cr5   O19   S    
S2    O32   S    
S1    O29   S    
C25   C30   A    
C31   O7    A    
C39   O4    A    
C35   O15   A    
C23   O23   A    
Cr2   O21   S    
Cr3   O23   S    
C1    C10   S    
Cr5   O16   S    
C4    C5    S    
Cr2   O26   S    
Cr4   O19   S    
C33   O11   A    
C1    O12   A    
Cr2   O20   S    
C11   C13   A    
S2    O30   D    
C27   C37   S    
C33   O6    A    
C6    C23   S    
C12   O22   A    
Cr3   O3    S    
Cr3   O22   S    
C17   C38   S    
C32   C40   S    
O29   H11   S    
C39   O24   A    
C25   H10   S    
C27   C28   A    
Cr1   O24   S    
C14   C15   A    
C13   C14   A    
C29   H4    S    
