data_mof_unit_12201.cif
_audit_creation_date              2012-12-11T15:34:12-0500
_audit_creation_method            fapswitch 2.2
_symmetry_space_group_name_H-M    P1
_symmetry_Int_Tables_number       1
_space_group_crystal_system       triclinic
_cell_length_a                    15.03664
_cell_length_b                    15.029538
_cell_length_c                    34.885545
_cell_angle_alpha                 90.712453
_cell_angle_beta                  89.982022
_cell_angle_gamma                 59.951948
_cell_volume                      6823.64008826

loop_
_atom_site_label
_atom_site_type_symbol
_atom_type_description
_atom_site_fract_x
_atom_site_fract_y
_atom_site_fract_z
_atom_type_partial_charge
C1    C     C_R   0.301287 0.609039 0.555538 0.542174
C2    C     C_R   0.656389 0.666667 0.667782 0.019194
C3    C     C_R   0.211275 0.625655 0.274531 -0.083808
C4    C     C_R   0.124258 0.661702 0.298200 0.066035
C5    C     C_R   0.026543 0.701631 0.281992 -0.081479
C6    C     C_R   0.016010 0.708058 0.242195 -0.068772
C7    C     C_R   0.103311 0.673278 0.218681 0.066580
C8    C     C_R   0.185793 0.561078 0.357860 0.001970
C9    C     C_R   0.233865 0.550111 0.392970 -0.185956
C10   C     C_R   0.172161 0.733776 0.396821 0.014175
C11   C     C_R   0.127608 0.745437 0.359984 0.001489
C12   C     C_R   0.138550 0.657705 0.340023 -0.021920
C13   C     C_R   0.561137 0.678531 0.656308 0.227466
C14   C     C_R   0.232609 0.633726 0.411914 -0.046027
C15   C     C_R   0.736773 0.024290 0.942944 0.621950
C16   C     C_R   0.746237 0.722731 0.944864 0.561550
C17   C     C_R   0.037601 0.734077 0.948120 0.597233
C18   C     C_R   0.722309 0.040374 0.052905 0.601163
C19   C     C_R   0.734330 0.734858 0.055126 0.540122
C20   C     C_R   0.025706 0.745793 0.058503 0.553328
C21   C     C_R   0.545424 0.664394 0.618107 -0.123223
C22   C     C_R   0.683675 0.688402 0.785604 0.347610
C23   C     C_R   0.671177 0.680538 0.708460 0.341940
C24   C     C_R   0.762038 0.604103 0.847105 -0.118382
C25   C     C_R   0.778643 0.609596 0.886514 0.260884
C26   C     C_R   0.637463 0.786974 0.887230 -0.170747
C27   C     C_R   0.624272 0.781062 0.848103 -0.104137
C28   C     C_R   0.689457 0.691035 0.827520 0.014554
C29   C     C_R   0.610975 0.589537 0.554731 0.537435
C30   C     C_R   0.717107 0.703477 0.906565 0.035964
C31   C     C_R   0.728865 0.062533 0.903406 -0.006112
C32   C     C_R   0.631794 0.127340 0.886400 -0.034412
C33   C     C_R   0.624476 0.132808 0.845973 0.236143
C34   C     C_R   0.714057 0.080751 0.823280 0.035196
C35   C     C_R   0.809603 0.024985 0.840332 -0.108536
C36   C     C_R   0.818476 0.017393 0.879944 0.222349
C37   C     C_R   0.715046 0.178037 0.768053 -0.101776
C38   C     C_R   0.716274 0.194338 0.728793 0.267323
C39   C     C_R   0.705208 0.128391 0.702705 0.020973
C40   C     C_R   0.590372 0.300202 0.553512 0.543936
C41   C     C_R   0.704366 0.041161 0.716063 -0.206091
C42   C     C_R   0.710639 0.020379 0.755350 -0.000852
C43   C     C_R   0.711160 0.092921 0.781574 0.023116
C44   C     C_R   0.592927 0.172130 0.645898 -0.137765
C45   C     C_R   0.564753 0.213891 0.609510 -0.138474
C46   C     C_R   0.724522 0.215758 0.603831 -0.130436
C47   C     C_R   0.752834 0.173493 0.640232 -0.088718
C48   C     C_R   0.685445 0.155077 0.661976 0.054363
C49   C     C_R   0.628677 0.239382 0.588663 0.018452
C50   C     C_R   0.077358 0.703155 0.908751 0.068933
C51   C     C_R   0.297992 0.611173 0.446449 0.541867
C52   C     C_R   0.154231 0.719849 0.892506 0.024435
C53   C     C_R   0.170276 0.708681 0.852592 -0.103390
C54   C     C_R   0.111993 0.680679 0.829318 0.072815
C55   C     C_R   0.038698 0.661760 0.845591 -0.087837
C56   C     C_R   0.021741 0.672675 0.884836 -0.132674
C57   C     C_R   0.203327 0.580568 0.769528 0.020597
C58   C     C_R   0.209312 0.576506 0.729462 -0.115380
C59   C     C_R   0.140945 0.660334 0.707310 0.053134
C60   C     C_R   0.064589 0.749611 0.725555 -0.129341
C61   C     C_R   0.056724 0.754749 0.765408 -0.136541
C62   C     C_R   0.608743 0.591248 0.445874 0.548862
C63   C     C_R   0.126089 0.671560 0.787620 0.034524
C64   C     C_R   0.174436 0.733431 0.649586 -0.183501
C65   C     C_R   0.215363 0.720539 0.612817 -0.148145
C66   C     C_R   0.214333 0.560618 0.605533 -0.128589
C67   C     C_R   0.175791 0.571398 0.643158 0.268737
C68   C     C_R   0.158585 0.657336 0.665579 0.033347
C69   C     C_R   0.239968 0.631825 0.591107 -0.028942
C70   C     C_R   0.700305 0.721024 0.093046 0.021196
C71   C     C_R   0.602903 0.791167 0.108174 -0.129054
C72   C     C_R   0.580796 0.786639 0.146885 -0.124702
C73   C     C_R   0.588701 0.301708 0.443884 0.544718
C74   C     C_R   0.657335 0.714758 0.171018 0.008970
C75   C     C_R   0.752421 0.642023 0.155278 -0.123117
C76   C     C_R   0.773137 0.644089 0.116743 -0.111086
C77   C     C_R   0.671256 0.618472 0.229424 -0.115836
C78   C     C_R   0.676893 0.606743 0.269272 0.280276
C79   C     C_R   0.644796 0.693979 0.292914 0.015894
C80   C     C_R   0.610464 0.790559 0.276766 -0.136264
C81   C     C_R   0.611117 0.801595 0.236864 0.011586
C82   C     C_R   0.642350 0.713825 0.212874 -0.043718
C83   C     C_R   0.549631 0.738621 0.354511 -0.139563
C84   C     C_R   0.627137 0.624526 0.591924 -0.067804
C85   C     C_R   0.541640 0.712979 0.391970 -0.171966
C86   C     C_R   0.724156 0.586538 0.392028 0.264286
C87   C     C_R   0.730773 0.611630 0.354043 -0.051916
C88   C     C_R   0.642870 0.684280 0.334739 0.008967
C89   C     C_R   0.626926 0.632382 0.410335 0.014857
C90   C     C_R   0.700708 0.099681 0.089825 0.016900
C91   C     C_R   0.777796 0.116896 0.106079 -0.023822
C92   C     C_R   0.783690 0.123574 0.145906 -0.191680
C93   C     C_R   0.710638 0.120825 0.169691 -0.001154
C94   C     C_R   0.623024 0.124730 0.153575 0.216339
C95   C     C_R   0.723610 0.607732 0.603341 -0.128927
C96   C     C_R   0.616616 0.115774 0.113590 -0.005933
C97   C     C_R   0.720240 0.207033 0.229467 -0.130429
C98   C     C_R   0.713170 0.217394 0.269231 -0.125250
C99   C     C_R   0.707750 0.143313 0.291628 0.014734
C100  C     C_R   0.712618 0.056827 0.273861 -0.108656
C101  C     C_R   0.719971 0.046330 0.233976 -0.048662
C102  C     C_R   0.720757 0.122897 0.211597 0.060547
C103  C     C_R   0.752101 0.184620 0.355397 -0.106279
C104  C     C_R   0.722773 0.223478 0.392573 -0.104690
C105  C     C_R   0.568058 0.212257 0.386329 -0.128949
C106  C     C_R   0.737713 0.633064 0.640798 0.226381
C107  C     C_R   0.597966 0.172645 0.349123 -0.119970
C108  C     C_R   0.688194 0.162404 0.333027 0.025094
C109  C     C_R   0.628438 0.241587 0.407879 0.019046
C110  C     C_R   0.067972 0.717482 0.097513 -0.010475
C111  C     C_R   0.097359 0.619755 0.112369 0.223361
C112  C     C_R   0.104604 0.605161 0.152425 0.014497
C113  C     C_R   0.092629 0.686660 0.176990 -0.048923
C114  C     C_R   0.073871 0.781036 0.161513 -0.022897
C115  C     C_R   0.061236 0.795204 0.121984 -0.143563
C116  C     C_R   0.200858 0.631407 0.234916 -0.099793
Cr1   Cr    Cr6+3 0.421670 0.426920 0.499620 1.007246
Cr2   Cr    Cr6+3 0.427030 0.651190 0.500980 1.010086
Cr3   Cr    Cr6+3 0.651280 0.421870 0.499380 1.035795
Cr4   Cr    Cr6+3 0.910810 0.908010 0.001130 1.086299
Cr5   Cr    Cr6+3 0.682800 0.909890 0.998370 1.063610
Cr6   Cr    Cr6+3 0.908370 0.682300 0.002180 1.058256
H1    H     H_    0.787575 0.575270 0.583288 0.136368
H2    H     H_    0.825595 0.158515 0.651968 0.109356
H3    H     H_    0.717318 0.232031 0.788287 0.119704
H4    H     H_    0.698641 0.989338 0.695609 0.093654
H5    H     H_    0.539897 0.158477 0.662359 0.106997
H6    H     H_    0.490545 0.231128 0.598571 0.124617
H7    H     H_    0.878101 0.985966 0.822567 0.120984
H8    H     H_    0.471302 0.675117 0.609768 0.149123
H9    H     H_    0.775754 0.233743 0.588281 0.128382
H10   H     H_    0.960063 0.663263 0.896268 0.127188
H11   H     H_    0.269761 0.508448 0.715401 0.091767
H12   H     H_    0.227840 0.722089 0.839489 0.095467
H13   H     H_    0.011842 0.815581 0.709013 0.097663
H14   H     H_    0.996753 0.824191 0.779078 0.120955
H15   H     H_    0.162474 0.799300 0.666646 0.125519
H16   H     H_    0.233072 0.777440 0.602299 0.149002
H17   H     H_    0.992911 0.640847 0.827697 0.123841
H18   H     H_    0.227713 0.494850 0.588141 0.121363
H19   H     H_    0.545460 0.851125 0.090504 0.130737
H20   H     H_    0.849250 0.588965 0.106224 0.161114
H21   H     H_    0.803938 0.571710 0.339108 0.134141
H22   H     H_    0.691810 0.552169 0.211074 0.106934
H23   H     H_    0.505768 0.841615 0.158320 0.127505
H24   H     H_    0.586766 0.856653 0.295620 0.154341
H25   H     H_    0.481201 0.795467 0.340044 0.137307
H26   H     H_    0.466400 0.751616 0.405448 0.145955
H27   H     H_    0.812624 0.585570 0.173203 0.124359
H28   H     H_    0.547435 0.156416 0.332046 0.120100
H29   H     H_    0.706313 0.286030 0.282420 0.130003
H30   H     H_    0.719528 0.267359 0.212562 0.100733
H31   H     H_    0.845957 0.130314 0.158571 0.151397
H32   H     H_    0.708399 0.999030 0.290745 0.120749
H33   H     H_    0.721918 0.980279 0.220391 0.132338
H34   H     H_    0.822505 0.176067 0.343439 0.126627
H35   H     H_    0.771545 0.244394 0.408519 0.150164
H36   H     H_    0.495145 0.225131 0.397352 0.126024
H37   H     H_    0.040147 0.869772 0.110435 0.186269
H38   H     H_    0.807525 0.532586 0.831523 0.115110
H39   H     H_    0.287074 0.594314 0.286876 0.111958
H40   H     H_    0.268396 0.605007 0.216899 0.101150
H41   H     H_    0.959064 0.729127 0.300114 0.098196
H42   H     H_    0.940240 0.741150 0.229701 0.106349
H43   H     H_    0.275440 0.473977 0.405106 0.129860
H44   H     H_    0.589086 0.859769 0.901798 0.139624
H45   H     H_    0.566081 0.848757 0.833728 0.148407
N1    N     N_R   0.762981 0.614432 0.764674 -0.261920
N2    N     N_R   0.756757 0.610276 0.726745 -0.211465
N3    N     N_R   0.593185 0.756300 0.729258 -0.201893
N4    N     N_R   0.599491 0.760508 0.767135 -0.239718
O1    O     O_R   0.502070 0.323090 0.541280 -0.521258
O2    O     O_R   0.520720 0.641670 0.461580 -0.515888
O3    O     O_R   0.674120 0.502090 0.457500 -0.468850
O4    O     O_R   0.640110 0.338380 0.459630 -0.496769
O5    O     O_3   0.499990 0.499990 0.499990 -0.237284
O6    O     O_R   0.017640 0.822070 0.960410 -0.457153
O7    O     O_R   0.822000 0.989470 0.960340 -0.465736
O8    O     O_R   0.666920 0.007430 0.955290 -0.484223
O9    O     O_R   0.694410 0.812480 0.959650 -0.520107
O10   O     O_R   0.831550 0.656950 0.958960 -0.468264
O11   O     O_R   0.998590 0.685540 0.963930 -0.530823
O12   O     O_R   0.338340 0.520690 0.539540 -0.503160
O13   O     O_R   0.008220 0.831200 0.045060 -0.524646
O14   O     O_R   0.813270 0.997930 0.038810 -0.472851
O15   O     O_R   0.657500 0.016560 0.039940 -0.465066
O16   O     O_R   0.685680 0.820940 0.038120 -0.505978
O17   O     O_R   0.822130 0.666070 0.043610 -0.501513
O18   O     O_R   0.989860 0.694000 0.042400 -0.450949
O19   O     O_3   0.833990 0.833400 0.000560 -0.279984
O20   O     O_R   0.324760 0.674070 0.543580 -0.515899
O21   O     O_R   0.522400 0.640310 0.540110 -0.502449
O22   O     O_R   0.675940 0.500630 0.542210 -0.512999
O23   O     O_R   0.641790 0.337020 0.538150 -0.499636
O24   O     O_R   0.500260 0.324550 0.456580 -0.520384
O25   O     O_R   0.336660 0.522040 0.461020 -0.496865
O26   O     O_R   0.322940 0.675540 0.458880 -0.533281
O27   O     O_3   0.915069 0.955391 0.895008 -0.553014
C117  C     C_3   0.962760 0.014619 0.902487 0.037837
H46   H     H_    0.013982 0.980113 0.927456 0.189584
H47   H     H_    0.907388 0.096029 0.910968 0.123141
C118  C     C_3   0.028206 0.010988 0.868111 -0.291288
H48   H     H_    0.072656 0.931127 0.856597 0.171815
H49   H     H_    0.977449 0.061205 0.845133 0.140425
C119  C     C_3   0.102865 0.047529 0.879315 -0.485537
H50   H     H_    0.060233 0.126966 0.891304 0.152171
H51   H     H_    0.146784 0.046872 0.853613 0.142819
H52   H     H_    0.158044 0.995713 0.900978 0.156572
O28   O     O_3   0.718770 0.279990 0.716038 -0.592085
C120  C     C_3   0.816450 0.269631 0.723052 -0.011255
H53   H     H_    0.846925 0.279038 0.695312 0.149625
H54   H     H_    0.875161 0.192924 0.734185 0.108034
C121  C     C_3   0.805586 0.354466 0.750679 -0.249642
H55   H     H_    0.751762 0.430630 0.738412 0.196007
H56   H     H_    0.773420 0.348403 0.778511 0.153796
C122  C     C_3   0.909363 0.346911 0.757792 -0.458612
H57   H     H_    0.964209 0.271174 0.770162 0.129274
H58   H     H_    0.899850 0.407926 0.778389 0.168081
H59   H     H_    0.941538 0.356851 0.730567 0.173588
O29   O     O_3   0.530801 0.194808 0.828662 -0.570723
C123  C     C_3   0.482990 0.135861 0.821414 0.009675
H60   H     H_    0.474866 0.100777 0.848215 0.114502
H61   H     H_    0.528237 0.073695 0.800083 0.172705
C124  C     C_3   0.376110 0.205486 0.805087 -0.254355
H62   H     H_    0.329981 0.268846 0.825889 0.203782
H63   H     H_    0.383313 0.239487 0.777967 0.165851
C125  C     C_3   0.320307 0.145988 0.796978 -0.495833
H64   H     H_    0.364615 0.082668 0.775966 0.161853
H65   H     H_    0.243478 0.198561 0.784825 0.147139
H66   H     H_    0.309842 0.113399 0.823885 0.146346
C126  C     C_2   0.715703 0.923202 0.767107 0.200247
H67   H     H_    0.711798 0.872772 0.745452 0.125790
O30   O     O_2   0.725284 0.897277 0.800550 -0.529060
C127  C     C_2   0.219525 0.747990 0.915595 0.223325
H68   H     H_    0.264002 0.776985 0.901421 0.095495
O31   O     O_2   0.227451 0.736172 0.950231 -0.498456
O32   O     O_3   0.146664 0.504044 0.657679 -0.558905
C128  C     C_3   0.227337 0.400348 0.655584 0.001294
H69   H     H_    0.243807 0.370498 0.685262 0.141887
H70   H     H_    0.301269 0.388927 0.643660 0.103885
C129  C     C_3   0.192079 0.337027 0.632227 -0.250662
H71   H     H_    0.119511 0.347168 0.644749 0.191049
H72   H     H_    0.176825 0.364698 0.602254 0.157990
C130  C     C_3   0.272912 0.222974 0.632030 -0.486000
H73   H     H_    0.345501 0.210564 0.618840 0.142062
H74   H     H_    0.244699 0.179208 0.615067 0.152880
H75   H     H_    0.288267 0.193329 0.661735 0.147636
C131  C     C_2   0.279695 0.488319 0.790613 0.207729
H76   H     H_    0.340661 0.423995 0.774794 0.098593
O33   O     O_2   0.276060 0.481864 0.825349 -0.502810
O34   O     O_3   0.850018 0.523311 0.906255 -0.543468
C132  C     C_3   0.948486 0.475269 0.888501 0.021818
H77   H     H_    0.004863 0.469700 0.910298 0.163936
H78   H     H_    0.955661 0.518821 0.864198 0.106932
C133  C     C_3   0.978272 0.366415 0.875096 -0.265515
H79   H     H_    0.984219 0.319605 0.900402 0.175591
H80   H     H_    0.918122 0.368847 0.855958 0.160920
C134  C     C_3   0.080752 0.315208 0.853501 -0.489653
H81   H     H_    0.076057 0.360467 0.827865 0.158217
H82   H     H_    0.099807 0.237000 0.843797 0.140713
H83   H     H_    0.143090 0.308693 0.872422 0.162069
O35   O     O_3   0.704955 0.512911 0.286024 -0.569620
C135  C     C_3   0.797800 0.432609 0.270234 -0.011444
H84   H     H_    0.848742 0.460014 0.258340 0.138876
H85   H     H_    0.778982 0.393594 0.246978 0.134493
C136  C     C_3   0.857446 0.355588 0.301693 -0.255070
H86   H     H_    0.888426 0.390300 0.322171 0.186200
H87   H     H_    0.805226 0.337381 0.317931 0.179699
C137  C     C_3   0.946367 0.256374 0.285084 -0.461802
H88   H     H_    0.917136 0.218533 0.265296 0.159558
H89   H     H_    0.988327 0.202817 0.308700 0.176151
H90   H     H_    0.000579 0.272869 0.269318 0.176116
O36   O     O_3   0.834301 0.613873 0.651586 -0.543505
C138  C     C_3   0.834949 0.707489 0.655517 0.035325
H91   H     H_    0.888300 0.698296 0.679165 0.182475
H92   H     H_    0.758780 0.774765 0.663661 0.098418
C139  C     C_3   0.874809 0.729815 0.618577 -0.265543
H93   H     H_    0.952327 0.664025 0.611558 0.198460
H94   H     H_    0.822385 0.739133 0.594579 0.151265
C140  C     C_3   0.881516 0.827526 0.622651 -0.477345
H95   H     H_    0.804375 0.894826 0.628835 0.148856
H96   H     H_    0.911198 0.841186 0.595531 0.159959
H97   H     H_    0.934608 0.819635 0.646142 0.150439
C141  C     C_2   0.584262 0.903594 0.221403 0.211284
H98   H     H_    0.606579 0.910787 0.192597 0.131565
O37   O     O_2   0.537284 0.981594 0.241012 -0.519131
O38   O     O_3   0.811502 0.510172 0.409291 -0.559195
C142  C     C_3   0.852305 0.555471 0.434314 0.014070
H99   H     H_    0.899152 0.497232 0.456004 0.161839
H100  H     H_    0.791644 0.623125 0.450640 0.111644
C143  C     C_3   0.922240 0.585058 0.412497 -0.278168
H101  H     H_    0.981659 0.517146 0.396184 0.190007
H102  H     H_    0.876093 0.646781 0.391843 0.154976
C144  C     C_3   0.975043 0.623857 0.439808 -0.468597
H103  H     H_    0.917014 0.690734 0.456907 0.154740
H104  H     H_    0.021444 0.648602 0.423068 0.173477
H105  H     H_    0.026714 0.561838 0.459466 0.144885
C145  C     C_2   0.853209 0.129509 0.082809 0.256610
H106  H     H_    0.925619 0.113966 0.095328 0.117670
O39   O     O_2   0.833196 0.162535 0.050256 -0.481839
C146  C     C_2   0.520089 0.126281 0.097952 0.247859
H107  H     H_    0.476680 0.099636 0.114282 0.133776
O40   O     O_2   0.484999 0.170266 0.067790 -0.503941
O41   O     O_3   0.486018 0.694052 0.682878 -0.551295
C147  C     C_3   0.508429 0.597823 0.698141 0.025681
H108  H     H_    0.490410 0.609033 0.729320 0.164554
H109  H     H_    0.591277 0.537087 0.695809 0.134848
C148  C     C_3   0.441154 0.559929 0.679284 -0.278324
H110  H     H_    0.360749 0.609518 0.689209 0.173747
H111  H     H_    0.443130 0.565122 0.647647 0.168970
C149  C     C_3   0.477192 0.448451 0.689219 -0.461588
H112  H     H_    0.555258 0.397534 0.677224 0.215153
H113  H     H_    0.424749 0.424795 0.676262 0.125233
H114  H     H_    0.477971 0.439208 0.720784 0.163001
O42   O     O_3   0.544581 0.134200 0.177211 -0.571109
C150  C     C_3   0.479746 0.238932 0.187402 0.013273
H115  H     H_    0.420386 0.276739 0.164929 0.128773
H116  H     H_    0.521900 0.282167 0.190619 0.129118
C151  C     C_3   0.427031 0.245326 0.225629 -0.234552
H117  H     H_    0.376736 0.211238 0.222167 0.205003
H118  H     H_    0.486143 0.200653 0.247451 0.207020
C152  C     C_3   0.362754 0.356285 0.239870 -0.468241
H119  H     H_    0.412719 0.389795 0.245575 0.136508
H120  H     H_    0.322629 0.358611 0.266896 0.195224
H121  H     H_    0.304617 0.403193 0.218186 0.191842
O43   O     O_3   0.107929 0.541567 0.087926 -0.570194
C153  C     C_3   0.213075 0.475946 0.078575 -0.013666
H122  H     H_    0.225344 0.397107 0.074567 0.168194
H123  H     H_    0.266542 0.470854 0.101799 0.104328
C154  C     C_3   0.240594 0.508639 0.041014 -0.260922
H124  H     H_    0.185407 0.515929 0.018375 0.191292
H125  H     H_    0.235384 0.584491 0.045193 0.168709
C155  C     C_3   0.349328 0.430639 0.027713 -0.421612
H126  H     H_    0.405994 0.422185 0.049874 0.171743
H127  H     H_    0.367444 0.457323 0.000830 0.185617
H128  H     H_    0.355850 0.354706 0.022010 0.203614
C156  C     C_2   0.075522 0.847233 0.340733 0.256341
H129  H     H_    0.015820 0.864530 0.319872 0.092316
O44   O     O_2   0.100790 0.911610 0.346965 -0.486649
C157  C     C_2   0.120514 0.505494 0.167347 0.212831
H130  H     H_    0.145511 0.439772 0.148190 0.134087
O45   O     O_2   0.103028 0.495641 0.200718 -0.500179
C158  C     C_2   0.191672 0.467835 0.340021 0.208512
H131  H     H_    0.243938 0.392559 0.351496 0.092721
O46   O     O_2   0.136648 0.473593 0.313320 -0.486706
C159  C     C_2   0.063403 0.867136 0.186442 0.222107
H132  H     H_    0.071693 0.858974 0.217273 0.119793
O47   O     O_2   0.045420 0.948898 0.172790 -0.531513
C160  C     C_2   0.151526 0.825993 0.419772 0.300406
H133  H     H_    0.213815 0.836530 0.429829 0.131648
O48   O     O_2   0.063223 0.892329 0.427137 -0.485389
C161  C     C_2   0.538054 0.192819 0.909899 0.261187
H134  H     H_    0.462434 0.225742 0.897203 0.142073
O49   O     O_2   0.544044 0.214832 0.943243 -0.483031

loop_
_geom_bond_atom_site_label_1
_geom_bond_atom_site_label_2
_ccdc_geom_bond_type
C152  H120  S    
C133  H80   S    
C143  H101  S    
C85   H26   S    
C104  H35   S    
C55   C56   A    
C114  C115  A    
C52   C127  S    
C39   C41   A    
C155  H126  S    
C131  H76   S    
C141  H98   S    
C14   C51   S    
C5    C6    A    
C152  H121  S    
C54   C63   S    
C101  H33   S    
C55   H17   S    
C130  H73   S    
C34   C35   A    
C86   O38   S    
C61   C63   A    
C110  C111  A    
C51   O26   A    
C128  H69   S    
C107  H28   S    
C17   O11   A    
Cr2   O2    S    
C50   C52   A    
C122  H59   S    
O43   C153  S    
C4    C12   S    
C148  C149  S    
C20   O13   A    
C22   N1    A    
C42   C126  S    
C80   H24   S    
C83   C88   A    
C59   C60   A    
Cr4   O14   S    
C127  O31   D    
C131  O33   D    
C156  H129  S    
Cr5   O9    S    
C121  H56   S    
C128  H70   S    
C118  H48   S    
C142  C143  S    
C135  H84   S    
C157  H130  S    
C20   O18   A    
C77   C78   A    
C150  H115  S    
C73   O4    A    
C75   C76   A    
C37   C38   A    
C19   O17   A    
Cr5   O16   S    
Cr2   O20   S    
Cr6   O17   S    
C125  H64   S    
C128  C129  S    
C161  H134  S    
C13   C21   A    
C122  H57   S    
C94   C96   A    
C118  H49   S    
C114  C159  S    
N1    N2    A    
C137  H89   S    
C145  H106  S    
C90   C91   A    
C46   H9    S    
Cr6   O18   S    
C155  H128  S    
C17   O6    A    
C135  H85   S    
C36   O27   S    
C4    C5    A    
C6    C7    A    
C130  H75   S    
C64   C65   A    
C25   O34   S    
Cr1   O1    S    
C77   C82   A    
C29   O22   A    
C97   H30   S    
C2    C106  A    
C103  H34   S    
C66   H18   S    
C98   C99   A    
C31   C36   A    
C44   C48   A    
C132  H77   S    
C151  H118  S    
C160  H133  S    
C15   O8    A    
C111  C112  A    
C97   C98   A    
C1    O12   A    
C53   C54   A    
C94   O42   S    
C99   C108  S    
C105  C107  A    
C150  C151  S    
C5    H41   S    
C143  H102  S    
C122  H58   S    
C138  H91   S    
C3    C116  A    
Cr3   O3    S    
C38   C39   A    
N3    N4    A    
C16   C30   S    
C40   C49   S    
C129  H71   S    
C99   C100  A    
C147  H109  S    
C117  C118  S    
C107  C108  A    
C92   H31   S    
C71   H19   S    
C8    C158  S    
C19   O16   A    
C66   C67   A    
Cr2   O5    S    
C139  H93   S    
C78   O35   S    
C106  O36   S    
O29   C123  S    
C148  H111  S    
C57   C63   A    
C119  H51   S    
C140  H95   S    
C29   C84   S    
C10   C14   A    
C91   C92   A    
C153  H123  S    
C91   C145  S    
C62   O2    A    
C154  C155  S    
C50   C56   A    
Cr3   O22   S    
C84   C95   A    
C142  H100  S    
C7    C116  A    
C123  H60   S    
Cr1   O24   S    
C95   C106  A    
C159  O47   D    
C31   C32   A    
C23   N2    A    
C8    C12   A    
O28   C120  S    
Cr4   O13   S    
C136  H87   S    
C132  C133  S    
C20   C110  S    
C125  H65   S    
C26   C30   A    
C120  H54   S    
C149  H113  S    
C3    C4    A    
C52   C53   A    
C100  H32   S    
C105  C109  A    
C54   C55   A    
C34   C43   S    
C24   C28   A    
C136  C137  S    
C15   C31   S    
O35   C135  S    
C120  C121  S    
C18   O14   A    
C129  C130  S    
C141  O37   D    
C134  H81   S    
C71   C72   A    
C57   C58   A    
C75   H27   S    
C100  C101  A    
C130  H74   S    
C138  H92   S    
C10   C11   A    
C117  H46   S    
C139  C140  S    
C2    C23   S    
C16   O9    A    
C87   C88   A    
C44   H5    S    
C101  C102  A    
C138  C139  S    
C41   C42   A    
C35   C36   A    
C140  H97   S    
C149  H112  S    
C124  H62   S    
O34   C132  S    
Cr5   O8    S    
C121  H55   S    
C46   C49   A    
C26   C27   A    
C154  H125  S    
C32   C161  S    
C157  O45   D    
C123  C124  S    
C144  H103  S    
C119  H52   S    
C45   H6    S    
C95   H1    S    
C62   C89   S    
C150  H116  S    
Cr4   O7    S    
Cr3   O4    S    
Cr5   O15   S    
Cr2   O21   S    
Cr6   O10   S    
C118  C119  S    
C161  O49   D    
C13   O41   S    
C70   C71   A    
C22   N4    A    
C64   H15   S    
C155  H127  S    
C152  H119  S    
C133  C134  S    
O42   C150  S    
C22   C28   S    
C137  H88   S    
C145  O39   D    
C74   C82   S    
C57   C131  S    
C112  C157  S    
C79   C88   S    
C156  O44   D    
Cr6   O19   S    
C98   H29   S    
C146  O40   D    
C58   H11   S    
C67   C68   A    
C18   C90   S    
C144  H105  S    
C72   C74   A    
C154  H124  S    
C85   C89   A    
C16   O10   A    
C58   C59   A    
C67   O32   S    
C1    C69   S    
C115  H37   S    
C60   C61   A    
C37   C43   A    
C9    C14   A    
Cr4   O19   S    
O38   C142  S    
C21   C84   A    
C45   C49   A    
Cr1   O12   S    
C126  O30   D    
C90   C96   A    
C56   H10   S    
C65   H16   S    
C1    O20   A    
C83   C85   A    
C6    H42   S    
C73   O24   A    
C42   C43   A    
C124  C125  S    
C64   C68   A    
C40   O1    A    
C44   C45   A    
C132  H78   S    
C113  C114  A    
C121  C122  S    
C25   C30   A    
C46   C47   A    
C86   C87   A    
C41   H4    S    
C146  H107  S    
C53   H12   S    
C86   C89   A    
C93   C102  S    
C73   C109  S    
C32   C33   A    
C9    H43   S    
C153  H122  S    
C47   H2    S    
C158  O46   D    
C65   C69   A    
C92   C93   A    
C111  O43   S    
C3    H39   S    
C151  H117  S    
C147  H108  S    
C137  H90   S    
C103  C104  A    
C117  H47   S    
C110  C115  A    
C72   H23   S    
C61   H14   S    
C39   C48   S    
C135  C136  S    
C158  H131  S    
C93   C94   A    
Cr4   O6    S    
C81   C82   A    
C40   O23   A    
C119  H50   S    
C116  H40   S    
C140  H96   S    
C51   O25   A    
C104  C109  A    
Cr3   O5    S    
C66   C69   A    
C62   O3    A    
C2    C13   A    
C105  H36   S    
C8    C9    A    
C97   C102  A    
O27   C117  S    
C35   H7    S    
C151  C152  S    
C160  O48   D    
C81   C141  S    
C112  C113  A    
C37   H3    S    
C74   C75   A    
C143  C144  S    
C24   C25   A    
Cr5   O19   S    
C78   C79   A    
C18   O15   A    
C11   C156  S    
C129  H72   S    
C134  H82   S    
C59   C68   S    
C47   C48   A    
C147  C148  S    
C33   C34   A    
C29   O21   A    
C60   H13   S    
C103  C108  A    
C83   H25   S    
Cr1   O5    S    
O41   C147  S    
C139  H94   S    
C70   C76   A    
C149  H114  S    
C134  H83   S    
C96   C146  S    
C133  H79   S    
C126  H67   S    
C148  H110  S    
C33   O29   S    
C26   H44   S    
C80   C81   A    
C124  H63   S    
C17   C50   S    
C153  C154  S    
C11   C12   A    
C24   H38   S    
O36   C138  S    
Cr3   O23   S    
C142  H99   S    
C7    C113  S    
C77   H22   S    
C123  H61   S    
Cr1   O25   S    
C144  H104  S    
C159  H132  S    
C23   N3    A    
C38   O28   S    
C21   H8    S    
C136  H86   S    
C79   C80   A    
Cr6   O11   S    
C125  H66   S    
C120  H53   S    
C127  H68   S    
C15   O7    A    
C27   C28   A    
C19   C70   S    
C10   C160  S    
C87   H21   S    
O32   C128  S    
Cr2   O26   S    
C27   H45   S    
C76   H20   S    
