data_mof_unit_14577.cif
_audit_creation_date              2012-12-11T14:52:58-0500
_audit_creation_method            fapswitch 2.2
_symmetry_space_group_name_H-M    P1
_symmetry_Int_Tables_number       1
_space_group_crystal_system       triclinic
_cell_length_a                    8.231457
_cell_length_b                    15.033604
_cell_length_c                    26.948057
_cell_angle_alpha                 96.379783
_cell_angle_beta                  92.814064
_cell_angle_gamma                 80.446096
_cell_volume                      3266.56276237

loop_
_atom_site_label
_atom_site_type_symbol
_atom_type_description
_atom_site_fract_x
_atom_site_fract_y
_atom_site_fract_z
_atom_type_partial_charge
Ba1   Ba    Ba6+2 0.860900 0.457020 0.523210 1.647580
Ba2   Ba    Ba6+2 0.328940 0.542910 0.476780 1.651097
C1    C     C_3   0.765755 0.139830 0.663231 -0.272599
C2    C     C_R   0.897689 0.592106 0.177743 0.573102
C3    C     C_2   0.750470 0.560483 0.272198 -0.083816
C4    C     C_3   0.181895 0.274856 0.661825 0.323813
C5    C     C_3   0.728987 0.589913 0.327105 -0.046583
C6    C     C_1   0.983946 0.485922 0.342706 0.031606
C7    C     C_2   0.025045 0.482255 0.294973 -0.106472
C8    C     C_2   0.900449 0.519004 0.256045 0.192592
C9    C     C_R   0.021698 0.511430 0.101571 -0.079726
C10   C     C_R   0.067101 0.434130 0.127434 -0.036098
C11   C     C_R   0.152993 0.355410 0.101896 -0.060274
C12   C     C_3   0.712349 0.228087 0.639851 0.316359
C13   C     C_R   0.935854 0.590607 0.127075 -0.024099
C14   C     C_2   0.843599 0.532145 0.360149 -0.290147
C15   C     C_2   0.355136 0.480176 0.641305 -0.297032
C16   C     C_3   0.142137 0.265830 0.715316 -0.323760
C17   C     C_R   0.196857 0.429490 0.974317 0.019566
C18   C     C_R   0.047382 0.585665 0.972957 0.020197
C19   C     C_R   0.142509 0.507035 0.948326 0.049672
C20   C     C_R   0.295121 0.354065 0.948300 -0.100033
C21   C     C_R   0.336098 0.354291 0.898720 -0.062052
C22   C     C_R   0.281292 0.429587 0.872466 -0.032527
C23   C     C_3   0.488233 0.690858 0.628455 0.318295
C24   C     C_R   0.183943 0.506073 0.897139 -0.078077
C25   C     C_R   0.128376 0.581741 0.870658 -0.035770
C26   C     C_R   0.171373 0.580288 0.820290 0.584054
C27   C     C_R   0.322581 0.429933 0.822065 0.570257
C28   C     C_3   0.221668 0.266981 0.418289 0.314046
C29   C     C_2   0.469430 0.494609 0.729736 0.030349
C30   C     C_3   0.505063 0.491978 0.674287 -0.037953
C31   C     C_1   0.209545 0.518247 0.657336 0.042314
C32   C     C_2   0.173802 0.517747 0.704831 -0.138519
C33   C     C_2   0.309536 0.504530 0.744201 0.221601
C34   C     C_3   0.474049 0.727180 0.683318 -0.344703
C35   C     C_R   0.152433 0.429992 0.025153 0.019762
C36   C     C_R   0.061950 0.509732 0.050206 0.049780
C37   C     C_R   0.011340 0.587972 0.024515 0.020119
C38   C     C_R   0.194893 0.353262 0.052146 -0.099233
C39   C     C_R   0.890496 0.667716 0.101633 -0.059866
C40   C     C_3   0.244028 0.164341 0.406768 -0.375969
C41   C     C_R   0.990813 0.659547 0.944787 -0.100954
C42   C     C_R   0.030709 0.657535 0.895026 -0.063606
C43   C     C_R   0.927132 0.666614 0.051737 -0.102429
C44   C     C_R   0.752808 0.766857 0.476668 -0.314223
C45   C     C_3   0.026449 0.737776 0.341944 0.336733
C46   C     C_R   0.846480 0.828226 0.462765 0.016840
C47   C     C_R   0.792319 0.922018 0.473245 -0.131753
C48   C     C_R   0.635884 0.954602 0.494617 0.026444
C49   C     C_R   0.537609 0.889463 0.502565 -0.049279
C50   C     C_R   0.604759 0.797767 0.499723 0.037646
C51   C     C_R   0.449030 0.088319 0.544544 0.343186
C52   C     C_3   0.969125 0.734449 0.582916 0.273867
C53   C     C_R   0.369317 0.179575 0.544873 -0.036054
C54   C     C_R   0.580874 0.211418 0.493222 0.073760
C55   C     C_R   0.639064 0.118706 0.484045 -0.169538
C56   C     C_3   0.033352 0.763145 0.289133 -0.317883
C57   C     C_R   0.575330 0.054523 0.508867 -0.060510
C58   C     C_R   0.443462 0.241019 0.522230 -0.350766
C59   C     C_3   0.941374 0.836426 0.597312 -0.315619
C60   C     C_3   0.696814 0.346009 0.373975 0.301408
C61   C     C_3   0.696142 0.324500 0.317481 -0.358017
C62   C     C_3   0.611348 0.499110 0.767172 -0.297582
C63   C     C_3   0.479177 0.785685 0.362142 0.355962
C64   C     C_3   0.422980 0.877326 0.342651 -0.365542
C65   C     C_R   0.024705 0.436800 0.178168 0.597806
H1    H     H_    0.812027 0.235829 0.615169 0.097587
H2    H     H_    0.818930 0.361808 0.387096 0.008398
H3    H     H_    0.600495 0.405690 0.383447 0.077629
H4    H     H_    0.888997 0.139158 0.681892 0.117377
H5    H     H_    0.796108 0.267316 0.306716 0.132738
H6    H     H_    0.715717 0.384528 0.299537 0.070009
H7    H     H_    0.575589 0.305729 0.303820 0.134507
H8    H     H_    0.597499 0.223522 0.617254 0.011800
H9    H     H_    0.772998 0.081591 0.633768 0.132572
H10   H     H_    0.365973 0.675005 0.614514 0.020536
H11   H     H_    0.581700 0.628285 0.624974 0.016759
H12   H     H_    0.333303 0.141827 0.376528 0.123564
H13   H     H_    0.388333 0.792752 0.687181 0.155472
H14   H     H_    0.425181 0.678656 0.704401 0.064870
H15   H     H_    0.597030 0.737667 0.699473 0.123653
H16   H     H_    0.676670 0.132235 0.691449 0.161494
H17   H     H_    0.179196 0.323050 0.740255 0.112408
H18   H     H_    0.116231 0.674720 0.345630 0.092822
H19   H     H_    0.900126 0.725422 0.347854 -0.051128
H20   H     H_    0.145165 0.793342 0.284675 0.146051
H21   H     H_    0.038873 0.701267 0.262479 0.121618
H22   H     H_    0.922655 0.812690 0.280392 0.120744
H23   H     H_    0.290941 0.131015 0.440484 0.049002
H24   H     H_    0.616206 0.772890 0.362535 -0.061045
H25   H     H_    0.436560 0.789554 0.400906 0.068490
H26   H     H_    0.479928 0.930148 0.366163 0.065172
H27   H     H_    0.287071 0.896076 0.344067 0.150562
H28   H     H_    0.120505 0.342569 0.652854 0.054994
H29   H     H_    0.461230 0.874943 0.303512 0.124473
H30   H     H_    0.150017 0.454527 0.284168 0.132444
H31   H     H_    0.188943 0.294462 0.120434 0.122046
H32   H     H_    0.411959 0.294545 0.880923 0.122116
H33   H     H_    0.344963 0.293516 0.965331 0.069367
H34   H     H_    0.123957 0.143097 0.394759 0.130500
H35   H     H_    0.259340 0.289383 0.035788 0.069237
H36   H     H_    0.653301 0.584981 0.246024 0.120616
H37   H     H_    0.825746 0.730136 0.120351 0.122952
H38   H     H_    0.912970 0.720314 0.959774 0.069583
H39   H     H_    0.317386 0.270793 0.659165 0.034149
H40   H     H_    0.984141 0.716357 0.875579 0.123073
H41   H     H_    0.046443 0.529185 0.715777 0.124847
H42   H     H_    0.889350 0.729731 0.035942 0.069300
H43   H     H_    0.824279 0.544693 0.400024 0.082470
H44   H     H_    0.367017 0.441954 0.604642 0.070211
H45   H     H_    0.850465 0.712326 0.571554 0.010960
H46   H     H_    0.875686 0.967403 0.466452 0.090931
H47   H     H_    0.732238 0.097907 0.456418 0.085117
H48   H     H_    0.413578 0.909422 0.515052 0.157846
H49   H     H_    0.388779 0.311896 0.524986 0.082738
H50   H     H_    0.007599 0.268397 0.718580 0.133466
H51   H     H_    0.801075 0.695041 0.473237 0.066631
H52   H     H_    0.208714 0.200920 0.727303 0.138150
H53   H     H_    0.342731 0.287552 0.427902 0.002322
H54   H     H_    0.139551 0.286713 0.450472 0.070183
H55   H     H_    0.690381 0.546218 0.756075 0.089091
H56   H     H_    0.054110 0.718204 0.551337 0.070131
H57   H     H_    0.569900 0.524747 0.805422 0.105822
H58   H     H_    0.686464 0.430767 0.768002 0.155351
H59   H     H_    0.380868 0.059662 0.674815 0.363483
H60   H     H_    0.857866 0.853996 0.629312 0.164703
H61   H     H_    0.885138 0.872619 0.565664 0.090613
H62   H     H_    0.060887 0.859311 0.608167 0.155653
N1    N     N_R   0.941411 0.515579 0.203239 -0.421654
N2    N     N_R   0.267896 0.504964 0.796426 -0.427332
O1    O     O_2   0.905540 0.548000 0.618290 -0.464589
O2    O     O_2   0.185967 0.821478 0.467218 -0.484810
O3    O     O_3   0.066657 0.808789 0.376100 -0.604621
O4    O     O_3   0.137550 0.547930 0.558110 -0.489531
O5    O     O_3   0.574690 0.391440 0.474610 -0.488123
O6    O     O_2   0.341330 0.720570 0.525000 -0.461054
O7    O     O_3   0.537320 0.756998 0.602356 -0.583841
O8    O     O_2   0.407362 0.542435 0.322796 -0.497793
O9    O     O_3   0.411797 0.717811 0.331497 -0.594106
O10   O     O_2   0.060112 0.368431 0.199642 -0.596937
O11   O     O_2   0.407484 0.363308 0.801020 -0.597830
O12   O     O_3   0.665746 0.270117 0.395360 -0.633596
O13   O     O_2   0.826193 0.662507 0.199230 -0.620560
O14   O     O_2   0.124392 0.646690 0.797865 -0.594360
O15   O     O_3   0.688580 0.383890 0.587540 -0.489707
O16   O     O_2   0.847032 0.430617 0.671921 -0.506969
O17   O     O_3   0.035673 0.692710 0.624734 -0.625910
O18   O     O_3   0.682354 0.300327 0.677789 -0.603602
O19   O     O_2   0.848360 0.279400 0.474970 -0.468987
O20   O     O_3   0.104690 0.337720 0.562900 -0.505819
O21   O     O_2   0.028911 0.175457 0.536158 -0.471328
O22   O     O_2   0.255217 0.991931 0.586843 -0.311884
O23   O     O_3   0.124055 0.205566 0.629837 -0.545486
O24   O     O_2   0.553934 0.951434 0.602539 -0.329696
O25   O     O_3   0.404763 0.097246 0.648963 -0.553065
O26   O     O_2   0.284150 0.451970 0.381680 -0.460548
O27   O     O_3   0.052160 0.451990 0.441880 -0.497716
O28   O     O_3   0.501140 0.616030 0.412450 -0.482416
O29   O     O_3   0.154305 0.306894 0.375852 -0.623592
O30   O     O_3   0.615020 0.608480 0.525380 -0.487103
O31   O     O_3   0.085020 0.662210 0.437090 -0.496536
P1    P     P_3+3 0.070480 0.574800 0.610950 1.001889
P2    P     P_3+3 0.668430 0.292880 0.460530 0.989773
P3    P     P_3+3 0.158775 0.221886 0.568243 1.023242
P4    P     P_3+3 0.119230 0.425130 0.389040 0.991652
P5    P     P_3+3 0.047488 0.780800 0.436547 0.951017
P6    P     P_3+3 0.680588 0.403324 0.652720 0.951757
P7    P     P_3+3 0.527275 0.722603 0.538270 1.007423
P8    P     P_3+3 0.511897 0.612637 0.347757 0.942106
S1    S     S_3+6 0.415121 0.028005 0.595619 -0.117735

loop_
_geom_bond_atom_site_label_1
_geom_bond_atom_site_label_2
_ccdc_geom_bond_type
C63   H25   S    
C47   H46   S    
C52   H56   S    
C3    H36   S    
O28   P8    S    
C21   H32   S    
C60   O12   S    
C19   C24   A    
Ba1   O1    S    
C56   H20   S    
Ba2   O31   S    
O21   P3    D    
C51   C57   A    
C14   H43   S    
C28   O29   S    
C44   H51   S    
C26   O14   D    
C60   C61   S    
C23   H10   S    
C48   C57   S    
C45   H18   S    
C52   O17   S    
Ba1   O27   S    
C17   C19   A    
C22   C24   A    
C32   C33   S    
C35   C38   A    
O2    P5    D    
C36   C37   A    
C43   H42   S    
C55   C57   A    
C44   C50   A    
C54   C55   A    
C60   H3    S    
O8    P8    D    
Ba1   Ba2   S    
C41   H38   S    
C11   H31   S    
C47   C48   A    
C22   C27   A    
C11   C38   A    
C17   C35   A    
C63   O9    S    
C9    C13   A    
C25   C42   A    
Ba1   P2    S    
C34   H15   S    
C6    C7    D    
C16   H17   S    
C21   C22   A    
O23   P3    S    
O29   P4    S    
Ba1   O5    S    
C7    C8    S    
Ba2   P4    S    
O6    P7    D    
C59   H62   S    
C37   C43   A    
O30   P7    S    
Ba1   O30   S    
C40   H12   S    
C6    C14   D    
C53   C58   A    
O7    P7    S    
Ba2   O6    S    
Ba1   O15   S    
O18   P6    S    
C15   C31   D    
C15   H44   S    
Ba2   O30   S    
C48   C49   A    
C51   C53   A    
C4    H39   S    
C4    C16   S    
C10   C65   A    
C44   C46   A    
C20   H33   S    
C49   C50   A    
C45   H19   S    
C17   C20   A    
C13   C39   A    
C34   H13   S    
C3    C5    S    
C18   C37   A    
Ba2   O28   S    
C2    N1    Am   
C61   H6    S    
C62   H57   S    
Ba2   O5    S    
C23   H11   S    
C60   H2    S    
C40   H23   S    
O26   P4    D    
C9    C36   A    
C1    H4    S    
C41   C42   A    
C8    N1    S    
C35   C36   A    
O24   S1    D    
C29   C30   S    
C28   H54   S    
C34   H14   S    
Ba2   O27   S    
O22   S1    D    
C31   C32   D    
C24   C25   A    
C52   H45   S    
Ba1   O19   S    
C59   H60   S    
C39   C43   A    
C18   C19   A    
C1    H9    S    
C16   H50   S    
C4    O23   S    
C1    C12   S    
C6    P4    S    
C64   H26   S    
C7    H30   S    
C46   C47   A    
C52   C59   S    
C4    H28   S    
C30   P6    S    
C45   O3    S    
C1    H16   S    
C29   C33   D    
C58   H49   S    
C65   N1    Am   
C53   P3    S    
C65   O10   D    
C40   H34   S    
C33   N2    S    
O12   P2    S    
C18   C41   A    
O27   P4    S    
C64   H29   S    
O5    P2    S    
C42   H40   S    
C63   H24   S    
O15   P6    S    
C5    C14   S    
O9    P8    S    
C31   P1    S    
O3    P5    S    
O17   P1    S    
O4    P1    S    
C29   C62   S    
C56   H21   S    
C50   P7    S    
C2    O13   D    
C9    C10   A    
C55   H47   S    
C61   H7    S    
O19   P2    D    
C54   P2    S    
O25   S1    S    
Ba2   O4    S    
C39   H37   S    
C64   H27   S    
C26   N2    Am   
C32   H41   S    
C12   H8    S    
C2    C13   A    
C23   O7    S    
O1    P1    D    
C3    C8    D    
O20   P3    S    
C45   C56   S    
C27   N2    Am   
C46   P5    S    
C28   H53   S    
Ba2   O26   S    
C62   H55   S    
C27   O11   D    
C12   O18   S    
C61   H5    S    
Ba1   O20   S    
C59   H61   S    
C63   C64   S    
C56   H22   S    
C49   H48   S    
O16   P6    D    
C51   S1    S    
C23   C34   S    
C38   H35   S    
O31   P5    S    
C54   C58   A    
C10   C11   A    
Ba1   P1    S    
C62   H58   S    
C5    P8    S    
C25   C26   A    
C15   C30   S    
C12   H1    S    
C20   C21   A    
C28   C40   S    
Ba1   O4    S    
C16   H52   S    
H59   O25   S    
