data_mof_unit_38173.cif
_audit_creation_date              2012-12-10T18:37:15-0500
_audit_creation_method            fapswitch 2.2
_symmetry_space_group_name_H-M    P1
_symmetry_Int_Tables_number       1
_space_group_crystal_system       triclinic
_cell_length_a                    15.133115
_cell_length_b                    13.952139
_cell_length_c                    10.828045
_cell_angle_alpha                 90.251696
_cell_angle_beta                  90.582035
_cell_angle_gamma                 89.128319
_cell_volume                      2285.8230397

loop_
_atom_site_label
_atom_site_type_symbol
_atom_type_description
_atom_site_fract_x
_atom_site_fract_y
_atom_site_fract_z
_atom_type_partial_charge
C1    C     C_R   0.329886 0.500318 0.494772 0.937252
C2    C     C_3   0.566326 0.429802 0.924407 -0.619080
C3    C     C_R   0.089429 0.530275 0.398021 0.296144
C4    C     C_R   0.100686 0.435729 0.587432 0.318071
C5    C     C_R   0.181496 0.550359 0.405177 0.340120
C6    C     C_R   0.192194 0.433858 0.574794 0.313454
C7    C     C_R   0.232727 0.497847 0.492987 -0.356415
C8    C     C_R   0.048691 0.482879 0.497095 -0.136516
C9    C     C_R   0.903259 0.401561 0.496155 0.408458
C10   C     C_R   0.907788 0.575552 0.519096 0.424476
C11   C     C_R   0.811245 0.406347 0.500722 -0.308304
C12   C     C_R   0.815651 0.579673 0.518696 -0.269445
C13   C     C_R   0.766894 0.495323 0.509084 -0.167819
C14   C     C_R   0.951732 0.486295 0.506257 -0.092699
C15   C     C_R   0.528116 0.106196 0.604670 0.261292
C16   C     C_R   0.576273 0.891844 0.533019 0.321077
C17   C     C_R   0.504878 0.499906 0.260052 0.855135
C18   C     C_R   0.535754 0.207567 0.598047 0.363835
C19   C     C_R   0.571606 0.791502 0.544786 0.461892
C20   C     C_R   0.462773 0.207980 0.403305 0.389395
C21   C     C_R   0.428309 0.792906 0.456540 0.358413
C22   C     C_R   0.468127 0.107027 0.397869 0.323288
C23   C     C_R   0.423595 0.893710 0.467264 0.345035
C24   C     C_R   0.498039 0.054473 0.500973 -0.114791
C25   C     C_R   0.499671 0.945718 0.499389 -0.142514
C26   C     C_R   0.670078 0.499067 0.504230 0.787761
C27   C     C_R   0.496055 0.500919 0.740007 0.903553
C28   C     C_3   0.513023 0.607999 0.072695 0.597772
C29   C     C_3   0.414979 0.456797 0.073341 0.515509
C30   C     C_3   0.518439 0.607055 0.928545 0.232882
C31   C     C_3   0.404073 0.473812 0.930198 0.240823
C32   C     C_3   0.586124 0.438622 0.065986 0.799915
C33   C     C_3   0.505614 0.500746 0.121156 -0.154268
C34   C     C_3   0.495613 0.503980 0.878444 -0.221925
Cu1   Cu    Cu3+1 0.499990 0.596430 0.500000 1.002262
Cu2   Cu    Cu3+1 0.499990 0.403570 0.500000 0.955448
H1    H     H_    0.774821 0.340236 0.494623 0.183451
H2    H     H_    0.782763 0.648940 0.523975 0.232972
H3    H     H_    0.587883 0.620687 0.899922 0.097836
H4    H     H_    0.386661 0.405114 0.883196 0.094564
H5    H     H_    0.628376 0.437827 0.871237 0.198270
H6    H     H_    0.540056 0.358437 0.900754 0.230767
N1    N     N_R   0.500020 0.258690 0.500000 -0.300223
N2    N     N_R   0.500020 0.741310 0.500000 -0.318126
O1    O     O_R   0.371450 0.581430 0.500010 -0.530928
O2    O     O_R   0.371450 0.418570 0.500010 -0.608152
O3    O     O_R   0.499980 0.581440 0.317690 -0.547710
O4    O     O_R   0.499980 0.418560 0.317690 -0.532956
O5    O     O_R   0.628540 0.581440 0.499990 -0.571708
O6    O     O_R   0.628540 0.418560 0.499990 -0.619433
O7    O     O_R   0.500010 0.581440 0.682310 -0.564989
O8    O     O_R   0.500010 0.418560 0.682310 -0.578722
O9    O     O_3   0.591072 0.648780 0.119963 -0.729801
H7    H     H_    0.587259 0.719260 0.109969 0.329748
O10   O     O_3   0.415902 0.356955 0.093796 -0.703063
H8    H     H_    0.355868 0.333129 0.073825 0.325677
O11   O     O_3   0.552558 0.055710 0.709563 -0.704678
H9    H     H_    0.564566 0.100715 0.778412 0.360534
O12   O     O_3   0.656451 0.933857 0.558990 -0.637155
H10   H     H_    0.658529 0.996604 0.516909 0.325542
O13   O     O_3   0.580904 0.252443 0.691909 -0.751183
H11   H     H_    0.616460 0.302835 0.654108 0.365741
O14   O     O_3   0.641314 0.746595 0.603655 -0.688788
H12   H     H_    0.616278 0.695954 0.655451 0.338444
O15   O     O_3   0.418363 0.252661 0.308311 -0.650823
H13   H     H_    0.383790 0.305916 0.344236 0.352881
O16   O     O_3   0.358599 0.748341 0.401638 -0.670309
H14   H     H_    0.384205 0.699219 0.346162 0.407274
O17   O     O_3   0.435311 0.059548 0.295258 -0.489293
C35   C     C_3   0.500958 0.055949 0.203806 0.102834
H15   H     H_    0.566149 0.031208 0.242002 0.101611
H16   H     H_    0.507783 0.127705 0.161135 0.185182
C36   C     C_3   0.473326 0.985590 0.103506 -0.768105
H17   H     H_    0.409638 0.009207 0.060831 0.259777
H18   H     H_    0.524560 0.981852 0.030859 0.192804
H19   H     H_    0.465409 0.913167 0.143815 0.259011
O18   O     O_3   0.345579 0.941178 0.437005 -0.496528
C37   C     C_3   0.291133 0.943259 0.542021 0.082527
H20   H     H_    0.325180 0.978105 0.621792 0.130854
H21   H     H_    0.271811 0.869429 0.568410 0.165876
C38   C     C_3   0.207441 0.000772 0.512480 -0.779982
H22   H     H_    0.170514 0.966061 0.435674 0.252185
H23   H     H_    0.164627 0.004366 0.595105 0.200699
H24   H     H_    0.224548 0.074773 0.484976 0.245919
O19   O     O_3   0.441287 0.665003 0.115636 -0.722918
H25   H     H_    0.387909 0.652591 0.065417 0.396011
O20   O     O_3   0.343732 0.499137 0.138170 -0.745583
H26   H     H_    0.336290 0.464335 0.217049 0.335737
O21   O     O_3   0.459433 0.676520 0.875537 -0.514880
C39   C     C_3   0.494910 0.769587 0.877104 0.110058
H27   H     H_    0.558636 0.771843 0.827509 0.143356
H28   H     H_    0.504651 0.795791 0.972794 0.151434
C40   C     C_3   0.429492 0.837785 0.814320 -0.772723
H29   H     H_    0.367302 0.841942 0.867821 0.243863
H30   H     H_    0.457873 0.910482 0.808830 0.233080
H31   H     H_    0.414054 0.811861 0.719768 0.231632
O22   O     O_3   0.339708 0.546202 0.902007 -0.531179
C41   C     C_3   0.251965 0.512427 0.903314 0.141233
H32   H     H_    0.226080 0.510161 0.998509 0.189701
H33   H     H_    0.245582 0.439844 0.862948 0.184964
C42   C     C_3   0.193115 0.582363 0.831752 -0.746508
H34   H     H_    0.218013 0.591133 0.736518 0.256525
H35   H     H_    0.124567 0.555343 0.827743 0.203644
H36   H     H_    0.192663 0.653447 0.878390 0.234078
O23   O     O_3   0.668130 0.487576 0.075976 -0.590006
C43   C     C_3   0.707059 0.488553 0.195374 0.142266
H37   H     H_    0.706331 0.418082 0.242303 0.158054
H38   H     H_    0.673769 0.541978 0.255252 0.180945
C44   C     C_3   0.802574 0.518903 0.182454 -0.793491
H39   H     H_    0.805113 0.591415 0.140844 0.275392
H40   H     H_    0.835094 0.521055 0.274091 0.203126
H41   H     H_    0.839299 0.467435 0.122869 0.234155
O24   O     O_3   0.591552 0.347253 0.127063 -0.561315
C45   C     C_3   0.638906 0.271060 0.067436 0.118767
H42   H     H_    0.602829 0.242095 0.986422 0.154022
H43   H     H_    0.641168 0.210498 0.133489 0.137210
C46   C     C_3   0.735346 0.290628 0.035723 -0.826525
H44   H     H_    0.774404 0.305958 0.120435 0.226208
H45   H     H_    0.764641 0.225278 0.992709 0.214811
H46   H     H_    0.741319 0.349499 0.968316 0.272452
O25   O     O_3   0.040808 0.554870 0.293815 -0.758216
H47   H     H_    0.989093 0.512774 0.285915 0.322668
O26   O     O_3   0.065658 0.390841 0.689152 -0.701560
H48   H     H_    0.004451 0.413967 0.702806 0.329432
O27   O     O_3   0.225783 0.612488 0.325317 -0.550005
C47   C     C_3   0.169488 0.677915 0.260507 0.197444
H49   H     H_    0.115863 0.707272 0.320238 0.185042
H50   H     H_    0.142279 0.641613 0.177128 0.191878
C48   C     C_3   0.219609 0.763941 0.213428 -0.757736
H51   H     H_    0.282701 0.741048 0.171052 0.285310
H52   H     H_    0.179058 0.801710 0.142166 0.181376
H53   H     H_    0.231750 0.815667 0.289539 0.292087
O28   O     O_3   0.243466 0.380544 0.656557 -0.561762
C49   C     C_3   0.241242 0.282806 0.622321 0.132769
H54   H     H_    0.264334 0.272103 0.525769 0.130948
H55   H     H_    0.173537 0.253644 0.630606 0.190818
C50   C     C_3   0.302540 0.226405 0.708284 -0.798962
H56   H     H_    0.277853 0.230822 0.804418 0.241917
H57   H     H_    0.305669 0.150137 0.679119 0.198088
H58   H     H_    0.369996 0.256362 0.705860 0.270492
O29   O     O_3   0.946366 0.313746 0.487429 -0.549312
C51   C     C_3   0.943618 0.282541 0.363316 0.062747
H59   H     H_    0.969030 0.338208 0.299833 0.130967
H60   H     H_    0.874932 0.264067 0.335293 0.137750
C52   C     C_3   0.001951 0.193428 0.350072 -0.752916
H61   H     H_    0.977743 0.135579 0.410598 0.253989
H62   H     H_    0.071163 0.210177 0.376596 0.238400
H63   H     H_    0.000527 0.168012 0.252757 0.201298
O30   O     O_3   0.954755 0.659730 0.521154 -0.551799
C53   C     C_3   0.978484 0.681273 0.644462 0.073611
H64   H     H_    0.004020 0.617143 0.695403 0.123382
H65   H     H_    0.920279 0.711549 0.693989 0.166464
C54   C     C_3   0.051352 0.755231 0.644618 -0.778147
H66   H     H_    0.028099 0.821367 0.596836 0.257878
H67   H     H_    0.070245 0.773536 0.741139 0.199887
H68   H     H_    0.110370 0.725813 0.596404 0.246364

loop_
_geom_bond_atom_site_label_1
_geom_bond_atom_site_label_2
_ccdc_geom_bond_type
C15   C18   A    
O20   H26   S    
C40   H29   S    
C15   O11   S    
C36   H17   S    
Cu1   Cu2   S    
C17   O4    A    
C4    C8    A    
Cu1   O3    S    
C52   H63   S    
C49   C50   S    
O22   C41   S    
O11   H9    S    
O30   C53   S    
O26   H48   S    
O18   C37   S    
C19   N2    A    
C50   H57   S    
C47   H49   S    
C22   C24   A    
C48   H51   S    
C6    O28   S    
C44   H40   S    
C10   O30   S    
C52   H61   S    
C37   H21   S    
C1    O2    A    
C43   H37   S    
C2    H5    S    
C29   C33   S    
C31   H4    S    
C2    C32   S    
C11   H1    S    
C38   H23   S    
O9    H7    S    
C19   O14   S    
C53   C54   S    
Cu1   O5    S    
C47   H50   S    
Cu2   O2    S    
C35   H15   S    
C32   O24   S    
C54   H67   S    
C44   H39   S    
C22   O17   S    
Cu2   O8    S    
C48   H53   S    
C2    C34   S    
C23   C25   A    
O12   H10   S    
C42   H35   S    
C21   O16   S    
C36   H18   S    
C51   C52   S    
O17   C35   S    
C17   C33   S    
C30   O21   S    
C52   H62   S    
C27   O7    A    
C38   H22   S    
C27   C34   S    
C50   H58   S    
C30   C34   S    
O16   H14   S    
C42   H34   S    
C20   O15   S    
C24   C25   S    
C4    C6    A    
C3    C8    A    
C10   C14   A    
C44   H41   S    
C5    C7    A    
C46   H45   S    
C37   H20   S    
C49   H55   S    
C29   O10   S    
C47   C48   S    
O19   H25   S    
C4    O26   S    
C16   O12   S    
C9    C14   A    
C21   N2    A    
C39   H28   S    
C35   C36   S    
C31   C34   S    
C23   O18   S    
C54   H68   S    
Cu1   N2    S    
C9    C11   A    
O25   H47   S    
C49   H54   S    
C10   C12   A    
C15   C24   A    
C20   C22   A    
C28   C33   S    
O15   H13   S    
C42   H36   S    
C41   H33   S    
C32   O23   S    
C21   C23   A    
Cu1   O7    S    
O28   C49   S    
C36   H19   S    
C53   H65   S    
C13   C26   S    
C26   O5    A    
Cu1   O1    S    
C38   H24   S    
Cu2   O6    S    
C27   O8    A    
C39   C40   S    
O24   C45   S    
C50   H56   S    
C16   C25   A    
C8    C14   S    
C1    C7    S    
C17   O3    A    
C3    C5    A    
C45   H43   S    
C28   O9    S    
C18   O13   S    
C45   H42   S    
C6    C7    A    
C40   H31   S    
C41   C42   S    
O23   C43   S    
C32   C33   S    
C26   O6    A    
O21   C39   S    
C29   C31   S    
O29   C51   S    
C18   N1    A    
C11   C13   A    
C37   C38   S    
C1    O1    A    
C39   H27   S    
O27   C47   S    
C43   H38   S    
C2    H6    S    
C16   C19   A    
C28   C30   S    
C46   H46   S    
C30   H3    S    
Cu2   O4    S    
C51   H60   S    
C31   O22   S    
C12   H2    S    
O13   H11   S    
C20   N1    A    
C29   O20   S    
C45   C46   S    
C9    O29   S    
O10   H8    S    
O14   H12   S    
C12   C13   A    
C40   H30   S    
C41   H32   S    
C5    O27   S    
C28   O19   S    
C51   H59   S    
C53   H64   S    
Cu2   N1    S    
C35   H16   S    
C54   H66   S    
C46   H44   S    
C3    O25   S    
C48   H52   S    
C43   C44   S    
