data_mof_unit_43691.cif
_audit_creation_date              2013-03-05T16:02:59-0500
_audit_creation_method            fapswitch 2.2
_symmetry_space_group_name_H-M    P1
_symmetry_Int_Tables_number       1
_space_group_crystal_system       triclinic
_cell_length_a                    14.886504
_cell_length_b                    14.26488
_cell_length_c                    10.524509
_cell_angle_alpha                 90.351751
_cell_angle_beta                  86.720973
_cell_angle_gamma                 89.76599
_cell_volume                      2231.20057913

loop_
_atom_site_label
_atom_site_type_symbol
_atom_site_description
_atom_site_fract_x
_atom_site_fract_y
_atom_site_fract_z
_atom_type_partial_charge
O1    O     O_R   0.367850 0.580280 0.500030 -0.623322
O2    O     O_R   0.632150 0.419720 0.499970 -0.623356
O3    O     O_R   0.632150 0.580280 0.499970 -0.624537
O4    O     O_R   0.367850 0.419720 0.500030 -0.624534
C1    C     C_R   0.327413 0.500085 0.499770 0.863622
C2    C     C_R   0.672586 0.499914 0.500223 0.863580
O5    O     O_R   0.499970 0.580260 0.313950 -0.630390
O6    O     O_R   0.500030 0.419740 0.686050 -0.630403
O7    O     O_R   0.500030 0.580260 0.686050 -0.623636
O8    O     O_R   0.499970 0.419740 0.313950 -0.623657
C3    C     C_R   0.501195 0.499942 0.257710 0.870231
C4    C     C_R   0.498819 0.500059 0.742290 0.870294
Zn1   Zn    Zn3+2 0.500000 0.607200 0.500000 0.937071
Zn2   Zn    Zn3+2 0.500000 0.392800 0.500000 0.937051
C5    C     C_3   0.480538 0.587283 0.043972 -0.187145
C6    C     C_3   0.519499 0.412721 0.956026 -0.187216
C7    C     C_3   0.561765 0.561082 0.951774 -0.216768
C8    C     C_3   0.438271 0.438923 0.048222 -0.216685
C9    C     C_3   0.418606 0.525325 0.967422 0.216591
C10   C     C_3   0.581431 0.474680 0.032577 0.216565
H1    H     H_    0.463931 0.658270 0.082561 0.156234
H2    H     H_    0.536106 0.341734 0.917436 0.156218
H3    H     H_    0.612433 0.610212 0.908869 0.151134
H4    H     H_    0.387601 0.389793 0.091124 0.151143
C11   C     C_3   0.498729 0.499645 0.877288 -0.015621
C12   C     C_3   0.501305 0.500359 0.122710 -0.015649
C13   C     C_R   0.817384 0.517340 0.388274 -0.248187
C14   C     C_R   0.182613 0.482647 0.611711 -0.248131
C15   C     C_R   0.767854 0.500177 0.501069 -0.012718
C16   C     C_R   0.232144 0.499819 0.498919 -0.012743
C17   C     C_R   0.808292 0.485139 0.614950 -0.251354
C18   C     C_R   0.191705 0.514846 0.385036 -0.251353
C19   C     C_R   0.901904 0.487521 0.617998 0.020906
C20   C     C_R   0.098092 0.512455 0.381988 0.020910
C21   C     C_R   0.953126 0.500942 0.501303 0.060157
C22   C     C_R   0.046871 0.499038 0.498683 0.060152
C23   C     C_R   0.910323 0.516380 0.386890 0.082913
C24   C     C_R   0.089674 0.483600 0.613095 0.082889
C25   C     C_R   0.945777 0.474794 0.732705 -0.020106
C26   C     C_R   0.054220 0.525171 0.267281 -0.020112
C27   C     C_R   0.039642 0.471144 0.727932 -0.171116
C28   C     C_R   0.960355 0.528827 0.272051 -0.171146
H5    H     H_    0.783244 0.529658 0.301605 0.124937
H6    H     H_    0.216752 0.470323 0.698377 0.124910
H7    H     H_    0.765574 0.471077 0.699245 0.115241
H8    H     H_    0.234420 0.528905 0.300736 0.115244
H9    H     H_    0.074240 0.461328 0.814888 0.205943
H10   H     H_    0.925758 0.538636 0.185092 0.205922
C29   C     C_R   0.549623 0.798706 0.406586 0.237039
C30   C     C_R   0.450378 0.201294 0.593415 0.237036
C31   C     C_R   0.450635 0.800107 0.593364 0.235331
C32   C     C_R   0.549362 0.199892 0.406634 0.235312
N1    N     N_R   0.500000 0.750030 0.500000 -0.106965
N2    N     N_R   0.500000 0.249970 0.500000 -0.106964
C33   C     C_R   0.453703 0.900180 0.598203 0.017668
C34   C     C_R   0.546294 0.099819 0.401794 0.017679
C35   C     C_R   0.546473 0.898841 0.401792 0.015251
C36   C     C_R   0.453525 0.101159 0.598206 0.015251
C37   C     C_R   0.500038 0.949658 0.499991 0.028326
C38   C     C_R   0.499959 0.050342 0.500006 0.028327
C39   C     C_R   0.410523 0.952404 0.698502 -0.191867
C40   C     C_R   0.589476 0.047596 0.301496 -0.191866
C41   C     C_R   0.589606 0.949851 0.301528 -0.193787
C42   C     C_R   0.410395 0.050149 0.698471 -0.193786
H11   H     H_    0.376513 0.918762 0.779365 0.157290
H12   H     H_    0.623488 0.081238 0.220634 0.157291
H13   H     H_    0.623756 0.915262 0.220723 0.155901
H14   H     H_    0.376248 0.084737 0.779279 0.155904
C43   C     C_3   0.324891 0.552629 0.930871 -0.928416
H15   H     H_    0.328864 0.607856 0.857661 0.247073
H16   H     H_    0.290538 0.490294 0.893415 0.232792
H17   H     H_    0.285939 0.580151 0.016030 0.251712
C44   C     C_3   0.675153 0.447399 0.069135 -0.928036
H18   H     H_    0.671178 0.392330 0.142626 0.246939
H19   H     H_    0.714045 0.419651 0.984013 0.251678
H20   H     H_    0.709576 0.509825 0.106298 0.232753
C45   C     C_2   0.896193 0.469602 0.858988 0.429171
H21   H     H_    0.830903 0.502601 0.874916 0.040797
O9    O     O_2   0.928941 0.429972 0.948010 -0.563258
C46   C     C_2   0.103803 0.530331 0.140999 0.429236
H22   H     H_    0.169070 0.497289 0.125079 0.040774
O10   O     O_2   0.071082 0.569977 0.051973 -0.563251
C47   C     C_3   0.610372 0.748134 0.308527 -0.835280
H23   H     H_    0.622447 0.674795 0.329353 0.288620
H24   H     H_    0.581874 0.752662 0.213531 0.212298
H25   H     H_    0.678407 0.780004 0.304644 0.209206
C48   C     C_3   0.389632 0.251867 0.691477 -0.835277
H26   H     H_    0.377551 0.325203 0.670646 0.288618
H27   H     H_    0.321600 0.219995 0.695373 0.209203
H28   H     H_    0.418137 0.247346 0.786467 0.212310
C49   C     C_3   0.390427 0.750795 0.691183 -0.843175
H29   H     H_    0.378600 0.677873 0.667856 0.289293
H30   H     H_    0.419706 0.754761 0.785782 0.221580
H31   H     H_    0.322364 0.783236 0.696416 0.213296
C50   C     C_3   0.609574 0.249204 0.308820 -0.843176
H32   H     H_    0.621396 0.322122 0.332162 0.289262
H33   H     H_    0.677638 0.216763 0.303590 0.213300
H34   H     H_    0.580299 0.245245 0.214215 0.221614

loop_
_geom_bond_atom_site_label_1
_geom_bond_atom_site_label_2
_geom_bond_distance
_ccdc_geom_bond_type
C48   H26   1.086546 S    
C33   C37   1.404878 A    
C13   C15   1.384836 A    
C44   H18   1.105182 S    
C21   C22   1.394374 A    
C8    C12   1.531531 S    
O3    C2    1.292742 A    
C50   H34   1.110680 S    
C25   C27   1.396101 A    
C45   H21   1.082132 S    
C5    C9    1.537229 S    
C19   C25   1.417333 A    
C8    H4    1.110518 S    
C42   H14   1.080954 S    
C21   C23   1.412223 A    
C35   C37   1.405854 A    
C36   C38   1.405852 A    
C7    C10   1.538305 S    
C29   C35   1.430286 A    
C32   C50   1.505483 S    
C8    C9    1.538290 S    
C23   C28   1.395620 A    
C43   H16   1.109092 S    
O7    Zn1   1.997778 S    
C31   C49   1.505494 S    
C50   H32   1.084710 S    
C6    H2    1.110357 S    
C17   C19   1.396302 A    
C20   C22   1.422454 A    
O3    Zn1   2.002823 S    
C6    C10   1.537249 S    
C34   C40   1.411128 A    
C26   C28   1.396093 A    
C37   C38   1.436233 A    
C44   H19   1.108558 S    
O2    C2    1.294905 A    
O2    Zn2   2.005902 S    
C32   N2    1.385761 A    
C35   C41   1.411029 A    
Zn1   N1    2.037453 S    
C45   O9    1.221284 D    
C36   C42   1.411022 A    
C41   H13   1.080960 S    
C40   H12   1.081028 S    
C30   C36   1.430288 A    
C24   C27   1.395620 A    
C46   O10   1.221260 D    
O8    Zn2   1.997779 S    
C49   H29   1.084724 S    
C46   H22   1.082073 S    
C5    C12   1.535766 S    
C28   H10   1.085047 S    
C3    C12   1.420762 S    
C14   H6    1.084163 S    
C34   C38   1.404879 A    
C31   N1    1.385758 A    
C18   C20   1.396309 A    
C39   C42   1.394319 A    
O5    C3    1.285937 A    
C40   C41   1.394318 A    
C39   H11   1.081021 S    
C49   H30   1.110660 S    
C47   H23   1.086557 S    
C7    H3    1.110517 S    
C14   C24   1.382787 A    
O6    C4    1.285945 A    
C47   H25   1.110568 S    
C26   C46   1.485280 S    
C27   H9    1.085046 S    
C30   N2    1.387034 A    
C30   C48   1.510657 S    
C47   H24   1.110325 S    
C48   H27   1.110552 S    
C44   H20   1.109480 S    
O1    C1    1.294917 A    
C9    C43   1.518144 S    
O1    Zn1   2.005904 S    
C25   C45   1.485313 S    
C43   H17   1.108152 S    
C1    C16   1.418785 S    
C6    C11   1.535780 S    
C5    C7    1.549522 S    
O6    Zn2   1.993149 S    
Zn2   N2    2.037454 S    
C18   H8    1.081853 S    
O4    C1    1.292742 A    
C50   H33   1.110542 S    
C4    C11   1.420762 S    
C7    C11   1.531526 S    
C29   C47   1.510659 S    
C14   C16   1.384835 A    
C15   C17   1.389078 A    
C49   H31   1.110523 S    
C16   C18   1.389084 A    
C5    H1    1.110358 S    
C10   C12   1.522993 S    
C13   C23   1.382785 A    
C29   N1    1.387035 A    
C33   C39   1.411124 A    
C22   C24   1.412210 A    
C19   C21   1.422462 A    
C10   C44   1.518173 S    
C31   C33   1.429136 A    
O4    Zn2   2.002824 S    
C43   H15   1.104729 S    
C9    C11   1.522979 S    
O7    C4    1.291047 A    
O8    C3    1.291055 A    
C13   H5    1.084183 S    
O5    Zn1   1.993150 S    
C2    C15   1.418760 S    
C6    C8    1.549521 S    
C17   H7    1.081849 S    
C48   H28   1.110309 S    
C20   C26   1.417323 A    
C32   C34   1.429132 A    
