data_mof_unit_31828.cif
_audit_creation_date              2012-12-10T17:27:50-0500
_audit_creation_method            fapswitch 2.2
_symmetry_space_group_name_H-M    P1
_symmetry_Int_Tables_number       1
_space_group_crystal_system       triclinic
_cell_length_a                    10.643602
_cell_length_b                    12.00721
_cell_length_c                    12.848719
_cell_angle_alpha                 93.347809
_cell_angle_beta                  89.845487
_cell_angle_gamma                 85.917637
_cell_volume                      1635.06557422

loop_
_atom_site_label
_atom_site_type_symbol
_atom_type_description
_atom_site_fract_x
_atom_site_fract_y
_atom_site_fract_z
_atom_type_partial_charge
C1    C     C_R   0.498322 0.522345 0.700400 0.886309
C2    C     C_R   0.438330 0.635753 0.860301 -0.239577
C3    C     C_R   0.546881 0.452127 0.869232 -0.225188
C4    C     C_R   0.739114 0.501711 0.514381 0.900357
C5    C     C_R   0.532869 0.458845 0.975870 0.118902
C6    C     C_R   0.463951 0.552701 0.026343 0.013106
C7    C     C_R   0.434201 0.547085 0.131837 0.343664
C8    C     C_R   0.571677 0.376163 0.138804 -0.179094
C9    C     C_R   0.585062 0.371060 0.031981 -0.171125
C10   C     C_R   0.580139 0.927358 0.384807 -0.240755
C11   C     C_R   0.547462 0.818405 0.397637 0.102887
C12   C     C_R   0.947526 0.400068 0.524895 0.074741
C13   C     C_R   0.435744 0.873777 0.553577 0.041259
C14   C     C_R   0.465433 0.986016 0.542929 0.056302
C15   C     C_R   0.540647 0.013253 0.458216 -0.010112
C16   C     C_R   0.498288 0.477881 0.299746 0.965620
C17   C     C_R   0.571815 0.125992 0.449349 0.511229
C18   C     C_R   0.450601 0.181115 0.601045 -0.042251
C19   C     C_R   0.422679 0.071149 0.615366 -0.284956
C20   C     C_R   0.260010 0.498749 0.489980 0.894462
C21   C     C_R   0.907354 0.300470 0.562058 -0.215283
C22   C     C_R   0.971039 0.197023 0.534056 -0.044168
C23   C     C_R   0.873527 0.502974 0.532001 -0.180647
C24   C     C_R   0.070002 0.192799 0.460097 0.301519
C25   C     C_R   0.118325 0.293867 0.431294 -0.228316
C26   C     C_R   0.065416 0.397342 0.477872 0.009921
C27   C     C_2   0.865071 0.716356 0.553526 0.963911
C28   C     C_2   0.928378 0.095519 0.580341 0.978233
C29   C     C_2   0.206840 0.294031 0.340921 1.047987
C30   C     C_2   0.389129 0.759071 0.016886 1.012267
C31   C     C_R   0.931094 0.604976 0.528448 -0.063118
C32   C     C_R   0.057063 0.601356 0.504018 -0.180175
C33   C     C_R   0.125265 0.498762 0.481686 -0.081220
C34   C     C_R   0.497906 0.464452 0.188350 -0.128943
C35   C     C_R   0.494613 0.537606 0.811700 -0.053854
C36   C     C_R   0.426011 0.646257 0.968350 -0.030556
Cl1   Cl    Cl    0.668452 0.163989 0.348061 -0.579202
Cl2   Cl    Cl    0.120993 0.062967 0.395521 -0.502070
Cl3   Cl    Cl    0.301327 0.625644 0.189669 -0.504234
H1    H     H_    0.639617 0.300587 0.993637 0.171013
H2    H     H_    0.102843 0.679355 0.507192 0.214869
H3    H     H_    0.620007 0.312101 0.182654 0.233185
H4    H     H_    0.828380 0.874193 0.511135 0.355537
H5    H     H_    0.787979 0.023157 0.651128 0.349094
H6    H     H_    0.328449 0.173908 0.392742 0.320800
H7    H     H_    0.419569 0.876887 0.130867 0.373177
H8    H     H_    0.405602 0.704644 0.814044 0.183814
H9    H     H_    0.596208 0.378802 0.830557 0.160622
H10   H     H_    0.408125 0.246324 0.653836 0.177577
H11   H     H_    0.637953 0.942655 0.318465 0.219706
H12   H     H_    0.364088 0.053704 0.680713 0.181752
H13   H     H_    0.586339 0.753330 0.343051 0.174221
H14   H     H_    0.384644 0.851241 0.621327 0.126139
H15   H     H_    0.828232 0.303797 0.615618 0.199793
N1    N     N_R   0.523130 0.207800 0.519340 -0.129098
N2    N     N_R   0.476870 0.792180 0.480660 -0.111596
O1    O     O_R   0.506170 0.421690 0.658830 -0.650336
O2    O     O_R   0.884318 0.804603 0.490402 -0.738831
O3    O     O_2   0.001458 0.013267 0.588488 -0.559008
O4    O     O_R   0.805352 0.095727 0.619062 -0.828389
O5    O     O_2   0.187160 0.362598 0.275253 -0.550865
O6    O     O_R   0.312988 0.218972 0.329514 -0.711640
O7    O     O_2   0.307230 0.819165 0.977195 -0.586527
O8    O     O_R   0.452179 0.798575 0.105490 -0.773392
O9    O     O_R   0.491330 0.609320 0.646410 -0.614594
O10   O     O_R   0.690660 0.406170 0.506210 -0.588883
O11   O     O_R   0.675810 0.593790 0.493790 -0.618912
O12   O     O_R   0.508670 0.390680 0.353590 -0.559918
O13   O     O_R   0.493830 0.578310 0.341170 -0.610221
O14   O     O_R   0.324190 0.406210 0.506210 -0.656753
O15   O     O_R   0.309340 0.593830 0.493790 -0.598170
O16   O     O_2   0.794174 0.730846 0.628954 -0.618375
Zn1   Zn    Zn3+2 0.509910 0.374720 0.508290 1.005699
Zn2   Zn    Zn3+2 0.490090 0.625280 0.491710 1.020679

loop_
_geom_bond_atom_site_label_1
_geom_bond_atom_site_label_2
_ccdc_geom_bond_type
C2    C35   A    
C4    O11   A    
C24   Cl2   S    
C32   H2    S    
C27   O16   D    
C20   O15   A    
C5    C9    A    
C6    C7    A    
C16   O12   A    
C30   C36   S    
C2    H8    S    
O15   Zn2   S    
C17   N1    A    
C26   C33   A    
C1    O9    A    
C31   C32   A    
H4    O2    S    
C3    C35   A    
C13   N2    A    
C32   C33   A    
O14   Zn1   S    
C17   Cl1   S    
C25   C26   A    
O13   Zn2   S    
C29   O5    D    
C22   C28   S    
C21   C22   A    
O11   Zn2   S    
C4    O10   A    
C12   C23   A    
C20   O14   A    
C30   O8    S    
C5    C6    A    
C18   N1    A    
H5    O4    S    
C20   C33   S    
C12   C21   A    
C8    H3    S    
C1    O1    A    
C10   C15   A    
C28   O4    S    
C25   C29   S    
C21   H15   S    
C7    C34   A    
C22   C24   A    
N2    Zn2   S    
C13   H14   S    
O9    Zn2   S    
O1    Zn1   S    
C23   C31   A    
C10   H11   S    
C19   H12   S    
C3    H9    S    
C2    C36   A    
C24   C25   A    
C1    C35   S    
C18   C19   A    
C10   C11   A    
C28   O3    D    
C12   C26   A    
C15   C17   A    
C4    C23   S    
C7    Cl3   S    
C29   O6    S    
C8    C9    A    
C8    C34   A    
C11   H13   S    
C13   C14   A    
C16   C34   S    
O12   Zn1   S    
C30   O7    D    
O10   Zn1   S    
C27   C31   S    
C14   C19   A    
C16   O13   A    
C9    H1    S    
H7    O8    S    
C11   N2    A    
C14   C15   A    
C18   H10   S    
C6    C36   A    
H6    O6    S    
C3    C5    A    
C27   O2    S    
N1    Zn1   S    
