data_mof_unit_27263.cif
_audit_creation_date              2012-12-10T19:06:59-0500
_audit_creation_method            fapswitch 2.2
_symmetry_space_group_name_H-M    P1
_symmetry_Int_Tables_number       1
_space_group_crystal_system       triclinic
_cell_length_a                    27.722083
_cell_length_b                    10.866326
_cell_length_c                    9.572712
_cell_angle_alpha                 90.064572
_cell_angle_beta                  89.70383
_cell_angle_gamma                 89.588472
_cell_volume                      2883.54201561

loop_
_atom_site_label
_atom_site_type_symbol
_atom_type_description
_atom_site_fract_x
_atom_site_fract_y
_atom_site_fract_z
_atom_type_partial_charge
C1    C     C_R   0.500268 0.262551 0.499292 0.866336
C2    C     C_R   0.974816 0.367560 0.556302 -0.076117
C3    C     C_R   0.974638 0.569389 0.439281 -0.005059
C4    C     C_R   0.407596 0.498248 0.500135 0.946733
C5    C     C_R   0.949298 0.468385 0.497570 -0.049533
C6    C     C_R   0.948562 0.261418 0.594903 0.498808
C7    C     C_R   0.898169 0.259543 0.588161 0.425463
C8    C     C_R   0.872394 0.366157 0.547806 -0.221530
C9    C     C_R   0.898155 0.469289 0.498998 -0.123756
C10   C     C_R   0.872746 0.573845 0.451808 -0.068860
C11   C     C_R   0.822212 0.573531 0.452524 0.669929
C12   C     C_R   0.277321 0.554450 0.598898 0.422261
C13   C     C_R   0.821518 0.372632 0.552644 0.687001
C14   C     C_R   0.719774 0.396496 0.422259 0.521746
C15   C     C_R   0.669362 0.398457 0.424054 0.413394
C16   C     C_R   0.497740 0.737426 0.499509 0.849874
C17   C     C_R   0.670754 0.569092 0.588267 -0.434690
C18   C     C_R   0.721419 0.561297 0.595267 0.503658
C19   C     C_R   0.745846 0.477893 0.506658 0.054420
C20   C     C_R   0.025668 0.376184 0.571414 0.031515
C21   C     C_R   0.050884 0.468010 0.496507 -0.002916
C22   C     C_R   0.025328 0.558869 0.420233 -0.070423
C23   C     C_R   0.253850 0.477996 0.503060 0.124743
C24   C     C_R   0.052170 0.298310 0.661073 -0.193178
C25   C     C_R   0.101607 0.631368 0.323902 -0.214596
C26   C     C_R   0.948367 0.678981 0.408931 0.531382
C27   C     C_R   0.898111 0.678230 0.409597 -0.226419
C28   C     C_R   0.592286 0.497814 0.500040 0.880875
C29   C     C_R   0.051422 0.632897 0.325024 0.654141
C30   C     C_R   0.500116 0.063312 0.620664 -0.162003
C31   C     C_R   0.501024 0.129208 0.495791 -0.182193
C32   C     C_R   0.501825 0.064175 0.367337 0.377255
C33   C     C_R   0.495612 0.936200 0.367705 0.393243
C34   C     C_R   0.102021 0.468801 0.497295 -0.132785
C35   C     C_R   0.495832 0.871030 0.496308 -0.224417
C36   C     C_R   0.499045 0.936600 0.621159 -0.145013
C37   C     C_3   0.466065 0.935482 0.747696 0.866543
C38   C     C_3   0.467875 0.076977 0.745954 0.254339
C39   C     C_R   0.540182 0.465415 0.072903 0.096577
C40   C     C_R   0.178652 0.389418 0.581227 0.619300
C41   C     C_R   0.460059 0.534494 0.074288 0.550640
C42   C     C_R   0.460068 0.534222 0.926971 0.579096
C43   C     C_R   0.540085 0.465305 0.925158 -0.020244
C44   C     C_3   0.587838 0.526965 0.916541 -0.523942
C45   C     C_R   0.127886 0.385461 0.582050 -0.140898
C46   C     C_3   0.588100 0.528243 0.074653 0.988292
C47   C     C_R   0.177790 0.553815 0.416097 0.651434
C48   C     C_R   0.280513 0.407113 0.407865 -0.297008
C49   C     C_R   0.331126 0.414429 0.403504 0.415660
C50   C     C_R   0.327736 0.562548 0.595093 0.448654
C51   C     C_3   0.981702 0.842588 0.518400 -0.203616
C52   C     C_3   0.728635 0.650194 0.814320 -0.242384
C53   C     C_3   0.470598 0.147918 0.165910 -0.209844
C54   C     C_3   0.440148 0.854815 0.220965 -0.155147
C55   C     C_3   0.389146 0.882658 0.828215 0.017411
C56   C     C_R   0.102314 0.302230 0.666143 0.636429
C57   C     C_3   0.253202 0.581298 0.824283 -0.206939
C58   C     C_3   0.535648 0.886011 0.884878 -0.316781
C59   C     C_3   0.408717 0.218747 0.809346 -0.265618
C60   C     C_3   0.630761 0.700781 0.142258 -0.244542
C61   C     C_3   0.635133 0.209888 0.432903 -0.195287
C62   C     C_3   0.870232 0.077814 0.506144 -0.128423
C63   C     C_3   0.343077 0.351109 0.175649 -0.205107
C64   C     C_R   0.127253 0.552832 0.412751 -0.099375
C65   C     C_R   0.354729 0.491199 0.500020 -0.306239
C66   C     C_R   0.644910 0.489546 0.501800 -0.276095
Cu1   Cu    Cu3+1 0.500000 0.499980 0.640670 1.014207
Cu2   Cu    Cu3+1 0.500000 0.500020 0.359330 1.083279
F1    F     F_    0.350131 0.644355 0.679458 -0.604934
F2    F     F_    0.029057 0.697509 0.222556 -0.603362
F3    F     F_    0.419879 0.575353 0.140690 -0.660470
F4    F     F_    0.419754 0.573149 0.861597 -0.602681
F5    F     F_    0.623862 0.453923 0.130734 -0.634034
F6    F     F_    0.125373 0.224359 0.754793 -0.596183
F7    F     F_    0.743459 0.314458 0.339132 -0.608969
F8    F     F_    0.971067 0.154052 0.627702 -0.677705
H1    H     H_    0.261558 0.346040 0.338046 0.184963
H2    H     H_    0.948422 0.858771 0.581620 0.168113
H3    H     H_    0.998966 0.933071 0.500952 0.246054
H4    H     H_    0.715069 0.560915 0.855549 0.167519
H5    H     H_    0.699668 0.721295 0.815908 0.147939
H6    H     H_    0.757304 0.681705 0.886120 0.207479
H7    H     H_    0.476119 0.233403 0.104849 0.151753
H8    H     H_    0.437905 0.162918 0.232362 0.160973
H9    H     H_    0.464472 0.073163 0.089303 0.176253
H10   H     H_    0.425881 0.786296 0.296309 0.195748
H11   H     H_    0.435144 0.817304 0.114503 0.217160
H12   H     H_    0.120302 0.690862 0.251146 0.216237
H13   H     H_    0.418044 0.940278 0.229529 0.102019
H14   H     H_    0.392760 0.962772 0.899482 0.071740
H15   H     H_    0.395834 0.796645 0.887318 0.224763
H16   H     H_    0.351324 0.881121 0.791094 0.202708
H17   H     H_    0.290148 0.590293 0.867545 0.205041
H18   H     H_    0.241481 0.483647 0.828861 0.169321
H19   H     H_    0.228472 0.635360 0.892509 0.201220
H20   H     H_    0.548928 0.981883 0.877056 0.148899
H21   H     H_    0.553936 0.826128 0.806545 0.167284
H22   H     H_    0.545683 0.851210 0.989658 0.258087
H23   H     H_    0.651284 0.637866 0.648455 0.182380
H24   H     H_    0.435217 0.294467 0.817549 0.180200
H25   H     H_    0.403488 0.175007 0.913088 0.104496
H26   H     H_    0.373744 0.259818 0.777260 0.203784
H27   H     H_    0.626416 0.798366 0.174368 0.183266
H28   H     H_    0.649752 0.699643 0.039646 0.127978
H29   H     H_    0.652929 0.653921 0.223060 0.214290
H30   H     H_    0.612797 0.235449 0.525612 0.100915
H31   H     H_    0.669354 0.164924 0.466532 0.180824
H32   H     H_    0.614520 0.141459 0.371752 0.198670
H33   H     H_    0.906161 0.051465 0.462701 0.165592
H34   H     H_    0.879126 0.762146 0.381743 0.194488
H35   H     H_    0.848161 0.123809 0.424308 0.174888
H36   H     H_    0.851569 0.991772 0.536230 0.192442
H37   H     H_    0.333645 0.447780 0.147276 0.200002
H38   H     H_    0.312230 0.289113 0.155294 0.150092
H39   H     H_    0.373117 0.321837 0.105942 0.158107
H40   H     H_    0.487290 0.118996 0.835827 0.051835
H41   H     H_    0.616047 0.465787 0.870514 0.207341
H42   H     H_    0.585527 0.619917 0.868607 0.172515
H43   H     H_    0.034721 0.237192 0.733846 0.240137
H44   H     H_    0.007687 0.784201 0.577362 0.153074
N1    N     N_R   0.202232 0.473704 0.500392 -0.430220
N2    N     N_R   0.797705 0.474505 0.503786 -0.420478
N3    N     N_R   0.500300 0.500930 0.147930 -0.274790
N4    N     N_R   0.500310 0.500890 0.852020 -0.258765
O1    O     O_R   0.500000 0.319640 0.618810 -0.597513
O2    O     O_R   0.569730 0.499960 0.618810 -0.605381
O3    O     O_R   0.569740 0.500000 0.381220 -0.505803
O4    O     O_2   0.204377 0.309782 0.659687 -0.466489
O5    O     O_3   0.970825 0.790575 0.387336 -0.534172
O6    O     O_3   0.748603 0.639017 0.678840 -0.538465
O7    O     O_3   0.512925 0.123408 0.242937 -0.540439
O8    O     O_3   0.489912 0.876692 0.241083 -0.542853
O9    O     O_3   0.420217 0.888063 0.710924 -0.548798
O10   O     O_3   0.250380 0.628826 0.687451 -0.535304
O11   O     O_3   0.484941 0.879296 0.871646 -0.622230
O12   O     O_2   0.795899 0.279174 0.607575 -0.469133
O13   O     O_3   0.423209 0.131636 0.707987 -0.542240
O14   O     O_3   0.584646 0.647539 0.133753 -0.595921
O15   O     O_3   0.644209 0.312656 0.347155 -0.469307
O16   O     O_3   0.874561 0.152784 0.625869 -0.504110
O17   O     O_3   0.358529 0.339641 0.315419 -0.560480
O18   O     O_2   0.202406 0.634282 0.336054 -0.523152
O19   O     O_2   0.797648 0.671498 0.402246 -0.522872
O20   O     O_R   0.500010 0.319680 0.381230 -0.546986
O21   O     O_R   0.430260 0.500000 0.618780 -0.502290
O22   O     O_R   0.430270 0.500040 0.381190 -0.513027
O23   O     O_R   0.499990 0.680320 0.618770 -0.545838
O24   O     O_R   0.500000 0.680360 0.381190 -0.526862

loop_
_geom_bond_atom_site_label_1
_geom_bond_atom_site_label_2
_ccdc_geom_bond_type
C10   C27   A    
C19   N2    S    
C8    C13   A    
C22   C29   A    
C41   C42   A    
C35   C36   A    
C58   H22   S    
Cu1   N4    S    
C51   O5    S    
C42   N4    A    
C7    C8    A    
C23   N1    S    
C40   N1    A    
C12   C23   A    
C26   C27   A    
C55   H16   S    
C49   C65   A    
C53   H8    S    
C36   C37   S    
C50   F1    S    
C1    O1    A    
C55   H14   S    
Cu1   O1    S    
C16   C35   S    
C54   H11   S    
C47   N1    A    
C59   O13   S    
C40   O4    S    
C1    C31   S    
C39   N3    A    
C30   C38   S    
C18   C19   A    
C61   H32   S    
C58   H20   S    
C55   H15   S    
C63   H38   S    
C62   H35   S    
C20   C24   A    
C27   H34   S    
C28   O2    A    
C8    C9    A    
C49   O17   S    
Cu1   O21   S    
C37   O11   S    
C53   O7    S    
C60   H27   S    
C9    C10   A    
Cu2   O24   S    
C28   O3    A    
C46   O14   S    
C63   H39   S    
C57   H17   S    
C21   C22   A    
C59   H24   S    
C2    C6    A    
C58   H21   S    
Cu2   N3    S    
C34   C64   A    
C44   C46   S    
C51   H44   S    
C15   O15   S    
C25   C29   A    
C40   C45   A    
C56   F6    S    
C2    C20   A    
Cu1   Cu2   S    
C59   H25   S    
C45   C56   A    
C54   H13   S    
Cu1   O2    S    
C47   C64   A    
C54   H10   S    
C61   O15   S    
C39   C43   A    
C21   C34   A    
C55   O9    S    
C15   C66   A    
C25   H12   S    
C25   C64   A    
C63   H37   S    
C48   H1    S    
C28   C66   S    
C43   C44   S    
C5    C9    A    
C37   C38   S    
C38   H40   S    
C31   C32   A    
C47   O18   S    
C44   H42   S    
C30   C31   A    
C4    O22   A    
C42   F4    S    
C17   C18   A    
C63   O17   S    
C34   C45   A    
C52   H6    S    
C61   H30   S    
C17   H23   S    
Cu2   O3    S    
C26   O5    S    
C39   C46   S    
C33   O8    S    
C48   C49   A    
C57   H18   S    
C16   O23   A    
Cu1   O23   S    
C13   O12   S    
C37   O9    S    
C57   O10   S    
C18   O6    S    
C11   N2    A    
Cu2   O22   S    
C29   F2    S    
C24   H43   S    
C23   C48   A    
C59   H26   S    
C14   C19   A    
C3    C26   A    
C3    C5    A    
C12   C50   A    
C6    F8    S    
C6    C7    A    
C30   C36   A    
C58   O11   S    
C24   C56   A    
C54   O8    S    
C41   F3    S    
C53   H7    S    
C52   O6    S    
C14   F7    S    
C41   N3    A    
C53   H9    S    
C51   H2    S    
C1    O20   A    
C60   H28   S    
C32   C33   A    
C13   N2    A    
C16   O24   A    
C4    C65   S    
C62   H33   S    
C44   H41   S    
C4    O21   A    
C33   C35   A    
C38   O13   S    
Cu2   O20   S    
C46   F5    S    
C17   C66   A    
C52   H5    S    
C61   H31   S    
C50   C65   A    
C51   H3    S    
C10   C11   A    
C2    C5    A    
C7    O16   S    
C62   H36   S    
C20   C21   A    
C57   H19   S    
C14   C15   A    
C3    C22   A    
C12   O10   S    
C62   O16   S    
C52   H4    S    
C11   O19   S    
C43   N4    A    
C32   O7    S    
C60   H29   S    
C60   O14   S    
