data_mof_unit_14157.cif
_audit_creation_date              2012-10-26T21:21:58-0400
_audit_creation_method            fapswitch 2.2
_symmetry_space_group_name_H-M    P1
_symmetry_Int_Tables_number       1
_space_group_crystal_system       triclinic
_cell_length_a                    18.200543
_cell_length_b                    18.477681
_cell_length_c                    11.659896
_cell_angle_alpha                 90.000241
_cell_angle_beta                  75.505641
_cell_angle_gamma                 90.000054
_cell_volume                      3796.46267092

loop_
_atom_site_label
_atom_site_type_symbol
_atom_type_description
_atom_site_fract_x
_atom_site_fract_y
_atom_site_fract_z
_atom_type_partial_charge
C1    C     C_R   0.399928 0.100929 0.521657 0.575639
C2    C     C_R   0.463848 0.999547 0.038969 -0.047634
C3    C     C_3   0.964572 0.168496 0.319307 -0.481288
C4    C     C_R   0.036152 0.499545 0.961031 -0.047638
C5    C     C_R   0.963847 0.499551 0.038969 -0.047634
C6    C     C_R   0.408867 0.998390 0.866520 0.432100
C7    C     C_R   0.591133 0.998394 0.133480 0.432119
C8    C     C_R   0.908867 0.498397 0.866520 0.432130
C9    C     C_R   0.091133 0.498386 0.133480 0.432110
C10   C     C_R   0.400199 0.997459 0.991737 -0.169706
C11   C     C_R   0.599801 0.997463 0.008263 -0.169701
C12   C     C_R   0.900199 0.497467 0.991737 -0.169701
C13   C     C_R   0.599735 0.898815 0.478347 0.529337
C14   C     C_R   0.099800 0.497454 0.008263 -0.169705
C15   C     C_R   0.543191 0.000072 0.837144 -0.002326
C16   C     C_R   0.456809 0.000071 0.162856 -0.002292
C17   C     C_R   0.043191 0.500068 0.837144 -0.002276
C18   C     C_R   0.956809 0.500076 0.162856 -0.002296
C19   C     C_R   0.655293 0.159268 0.465644 0.021149
C20   C     C_R   0.348203 0.837892 0.533120 0.000730
C21   C     C_R   0.344708 0.159269 0.534356 0.021146
C22   C     C_R   0.651763 0.837866 0.466899 0.000783
C23   C     C_R   0.155293 0.659267 0.465645 0.021141
C24   C     C_R   0.600072 0.100929 0.478343 0.575644
C25   C     C_R   0.848241 0.337864 0.533096 0.000749
C26   C     C_R   0.844706 0.659267 0.534357 0.021151
C27   C     C_R   0.151786 0.337885 0.466887 0.000717
C28   C     C_R   0.285535 0.731822 0.635045 -0.113292
C29   C     C_R   0.719477 0.264211 0.362816 -0.113035
C30   C     C_R   0.714412 0.731778 0.365012 -0.113244
C31   C     C_R   0.280508 0.264198 0.637206 -0.113037
C32   C     C_R   0.785605 0.231767 0.634967 -0.113281
C33   C     C_R   0.219502 0.764189 0.362785 -0.113052
C34   C     C_R   0.214447 0.231808 0.364978 -0.113329
C35   C     C_R   0.400257 0.898821 0.521656 0.529370
C36   C     C_R   0.780511 0.764202 0.637196 -0.113064
C37   C     C_R   0.336832 0.788597 0.629151 0.258056
C38   C     C_R   0.666786 0.208299 0.369968 0.262232
C39   C     C_R   0.663092 0.788535 0.370917 0.258182
C40   C     C_R   0.333200 0.208288 0.630050 0.262234
C41   C     C_R   0.836929 0.288522 0.629058 0.258161
C42   C     C_R   0.166806 0.708282 0.369946 0.262234
C43   C     C_R   0.163139 0.288575 0.370879 0.258076
C44   C     C_R   0.833205 0.708294 0.630040 0.262234
C45   C     C_R   0.310355 0.828104 0.443669 -0.181957
C46   C     C_R   0.899927 0.600929 0.521657 0.575638
C47   C     C_R   0.695958 0.166500 0.552238 -0.176966
C48   C     C_R   0.689641 0.828102 0.556322 -0.181943
C49   C     C_R   0.304061 0.166516 0.447741 -0.176948
C50   C     C_R   0.810351 0.328109 0.443686 -0.181919
C51   C     C_R   0.195935 0.666518 0.552267 -0.176946
C52   C     C_R   0.189650 0.328109 0.556324 -0.181939
C53   C     C_R   0.804047 0.666504 0.447755 -0.176970
C54   C     C_R   0.259786 0.771337 0.449635 -0.013249
C55   C     C_R   0.747509 0.222654 0.545610 -0.014313
C56   C     C_R   0.740208 0.771335 0.550366 -0.013247
C57   C     C_R   0.099741 0.398820 0.478345 0.529327
C58   C     C_R   0.252514 0.222673 0.454366 -0.014288
C59   C     C_R   0.759785 0.271340 0.449639 -0.013242
C60   C     C_R   0.247480 0.722676 0.545643 -0.014252
C61   C     C_R   0.240217 0.271342 0.550363 -0.013245
C62   C     C_R   0.752496 0.722657 0.454383 -0.014279
C63   C     C_3   0.723416 0.013870 0.115705 -0.008464
C64   C     C_3   0.769588 0.947013 0.063702 -0.255142
C65   C     C_3   0.847330 0.968290 0.986585 -0.495823
C66   C     C_3   0.276578 0.013840 0.884306 -0.008456
C67   C     C_3   0.230433 0.946966 0.936298 -0.255113
C68   C     C_R   0.100073 0.600929 0.478343 0.575630
C69   C     C_3   0.152692 0.968216 0.013448 -0.495850
C70   C     C_3   0.223420 0.513840 0.115699 -0.008460
C71   C     C_3   0.269577 0.446973 0.063701 -0.255119
C72   C     C_3   0.347320 0.468235 0.986572 -0.495850
C73   C     C_3   0.776583 0.513871 0.884296 -0.008470
C74   C     C_3   0.730414 0.447012 0.936296 -0.255147
C75   C     C_3   0.652672 0.468286 0.013417 -0.495822
C76   C     C_3   0.660058 0.193463 0.176080 0.021746
C77   C     C_3   0.650371 0.256267 0.095725 -0.274690
C78   C     C_3   0.688787 0.239877 0.966205 -0.482867
C79   C     C_R   0.900265 0.398815 0.521652 0.529308
C80   C     C_3   0.446596 0.774322 0.690775 0.039558
C81   C     C_3   0.452557 0.692851 0.711041 -0.293695
C82   C     C_3   0.535410 0.668628 0.681203 -0.481309
C83   C     C_3   0.339909 0.193433 0.823943 0.021756
C84   C     C_3   0.349576 0.256233 0.904321 -0.274693
C85   C     C_3   0.311146 0.239830 0.033830 -0.482865
C86   C     C_3   0.553272 0.774268 0.309421 0.039418
C87   C     C_3   0.547223 0.692637 0.290646 -0.294069
C88   C     C_3   0.464336 0.668521 0.320506 -0.481315
C89   C     C_3   0.160096 0.693420 0.176055 0.021764
C90   C     C_R   0.536152 0.999548 0.961031 -0.047632
C91   C     C_3   0.150454 0.756224 0.095671 -0.274697
C92   C     C_3   0.188870 0.739805 0.966163 -0.482858
C93   C     C_3   0.946763 0.274223 0.690505 0.039369
C94   C     C_3   0.952794 0.192562 0.709020 -0.294090
C95   C     C_3   0.035681 0.168456 0.679382 -0.481286
C96   C     C_3   0.839933 0.693461 0.823929 0.021745
C97   C     C_3   0.849622 0.756265 0.904284 -0.274691
C98   C     C_3   0.811203 0.739878 0.033803 -0.482863
C99   C     C_3   0.053365 0.274256 0.309291 0.039457
C100  C     C_3   0.047427 0.192694 0.289770 -0.293843
Cu1   Cu    Cu3+1 0.507800 0.000000 0.383250 1.010902
Cu2   Cu    Cu3+1 0.492200 0.000000 0.616750 1.010833
Cu3   Cu    Cu3+1 0.007800 0.500000 0.383250 1.010888
Cu4   Cu    Cu3+1 0.992200 0.500000 0.616750 1.010933
H1    H     H_    0.401057 0.000198 0.223666 0.113390
H2    H     H_    0.818938 0.365869 0.370231 0.120617
H3    H     H_    0.821082 0.785258 0.090458 0.161188
H4    H     H_    0.834990 0.689690 0.062782 0.138546
H5    H     H_    0.022733 0.303120 0.251634 0.169231
H6    H     H_    0.023628 0.288497 0.401689 0.106184
H7    H     H_    0.074855 0.179323 0.195865 0.161878
H8    H     H_    0.077088 0.162606 0.347398 0.150135
H9    H     H_    0.936639 0.180252 0.413624 0.150682
H10   H     H_    0.961703 0.109334 0.304369 0.147034
H11   H     H_    0.933457 0.196938 0.261917 0.147571
H12   H     H_    0.813116 0.628730 0.374282 0.115930
H13   H     H_    0.181038 0.365850 0.629808 0.120636
H14   H     H_    0.775443 0.195029 0.709789 0.110360
H15   H     H_    0.227000 0.803422 0.291790 0.102985
H16   H     H_    0.224630 0.195088 0.290132 0.110307
H17   H     H_    0.773026 0.803446 0.708176 0.102987
H18   H     H_    0.275343 0.695110 0.709902 0.110257
H19   H     H_    0.726955 0.303460 0.291844 0.102993
H20   H     H_    0.724585 0.695048 0.290179 0.110331
H21   H     H_    0.598943 0.000201 0.776334 0.113400
H22   H     H_    0.273017 0.303436 0.708195 0.102990
H23   H     H_    0.345020 0.993558 0.053250 0.074287
H24   H     H_    0.654981 0.993564 0.946752 0.074292
H25   H     H_    0.845018 0.493570 0.053248 0.074290
H26   H     H_    0.154980 0.493549 0.946751 0.074290
H27   H     H_    0.753893 0.041313 0.174994 0.142989
H28   H     H_    0.720892 0.054736 0.046775 0.081196
H29   H     H_    0.777301 0.912073 0.137404 0.187299
H30   H     H_    0.738812 0.915086 0.009810 0.162383
H31   H     H_    0.840883 0.001365 0.910133 0.142964
H32   H     H_    0.901057 0.500208 0.223666 0.113394
H33   H     H_    0.880212 0.918850 0.952434 0.146738
H34   H     H_    0.879433 0.999755 0.039140 0.144911
H35   H     H_    0.246086 0.041273 0.825028 0.142972
H36   H     H_    0.279091 0.054707 0.953241 0.081182
H37   H     H_    0.222720 0.912031 0.862591 0.187347
H38   H     H_    0.261230 0.915042 0.990164 0.162408
H39   H     H_    0.159141 0.001283 0.089907 0.142970
H40   H     H_    0.119828 0.918765 0.047587 0.146741
H41   H     H_    0.120570 0.999680 0.960921 0.144916
H42   H     H_    0.253905 0.541276 0.174983 0.142971
H43   H     H_    0.098943 0.500193 0.776334 0.113386
H44   H     H_    0.220904 0.554706 0.046766 0.081179
H45   H     H_    0.277287 0.412034 0.137406 0.187336
H46   H     H_    0.238791 0.415049 0.009819 0.162396
H47   H     H_    0.340876 0.501308 0.910117 0.142977
H48   H     H_    0.380192 0.418789 0.952427 0.146740
H49   H     H_    0.379432 0.499698 0.039117 0.144902
H50   H     H_    0.746104 0.541313 0.825008 0.142990
H51   H     H_    0.779106 0.554736 0.953227 0.081197
H52   H     H_    0.722701 0.412072 0.862594 0.187287
H53   H     H_    0.761192 0.415085 0.990186 0.162384
H54   H     H_    0.686895 0.128722 0.625704 0.115931
H55   H     H_    0.659119 0.501359 0.089870 0.142969
H56   H     H_    0.619792 0.418845 0.047564 0.146737
H57   H     H_    0.620568 0.499752 0.960865 0.144897
H58   H     H_    0.634754 0.144608 0.146343 0.169973
H59   H     H_    0.721789 0.182136 0.164896 0.094426
H60   H     H_    0.588911 0.265988 0.104705 0.178879
H61   H     H_    0.675493 0.306208 0.122770 0.153207
H62   H     H_    0.750926 0.233162 0.954073 0.165297
H63   H     H_    0.678910 0.285257 0.909549 0.161180
H64   H     H_    0.664997 0.189689 0.937230 0.138556
H65   H     H_    0.318978 0.865835 0.370172 0.120627
H66   H     H_    0.477301 0.803447 0.748056 0.169376
H67   H     H_    0.476254 0.788253 0.598203 0.105857
H68   H     H_    0.425363 0.679825 0.805168 0.161824
H69   H     H_    0.422673 0.662509 0.653997 0.150241
H70   H     H_    0.563065 0.679920 0.586620 0.150671
H71   H     H_    0.538301 0.609553 0.696916 0.146974
H72   H     H_    0.566778 0.697428 0.737862 0.147623
H73   H     H_    0.365219 0.144580 0.853676 0.169995
H74   H     H_    0.278182 0.182096 0.835107 0.094405
H75   H     H_    0.411032 0.265960 0.895365 0.178871
H76   H     H_    0.313136 0.128749 0.374259 0.115941
H77   H     H_    0.324452 0.306172 0.877278 0.153208
H78   H     H_    0.249009 0.233108 0.045941 0.165244
H79   H     H_    0.321008 0.285206 0.090503 0.161225
H80   H     H_    0.334936 0.189643 0.062804 0.138525
H81   H     H_    0.522722 0.802925 0.251436 0.169048
H82   H     H_    0.523508 0.788838 0.401649 0.106591
H83   H     H_    0.574592 0.678954 0.196847 0.161848
H84   H     H_    0.576877 0.662744 0.348495 0.150120
H85   H     H_    0.436475 0.680564 0.414748 0.150767
H86   H     H_    0.461388 0.609312 0.306075 0.147105
H87   H     H_    0.681043 0.865854 0.629790 0.120600
H88   H     H_    0.433208 0.696777 0.262942 0.147609
H89   H     H_    0.134771 0.644575 0.146321 0.169992
H90   H     H_    0.221819 0.682063 0.164896 0.094389
H91   H     H_    0.089002 0.765979 0.104635 0.178872
H92   H     H_    0.175605 0.806152 0.122701 0.153194
H93   H     H_    0.251002 0.733039 0.954051 0.165203
H94   H     H_    0.179042 0.785194 0.909487 0.161250
H95   H     H_    0.165040 0.689637 0.937194 0.138525
H96   H     H_    0.977299 0.302787 0.748606 0.169023
H97   H     H_    0.976547 0.288893 0.598332 0.106662
H98   H     H_    0.186853 0.628757 0.625758 0.115944
H99   H     H_    0.925293 0.178752 0.802717 0.161896
H100  H     H_    0.923262 0.162763 0.650903 0.150075
H101  H     H_    0.063705 0.180709 0.585280 0.150738
H102  H     H_    0.038615 0.109210 0.693466 0.147123
H103  H     H_    0.066660 0.196550 0.737318 0.147579
H104  H     H_    0.865239 0.644606 0.853666 0.169972
H105  H     H_    0.778203 0.682133 0.835114 0.094423
H106  H     H_    0.911082 0.765984 0.895306 0.178876
H107  H     H_    0.824501 0.806206 0.877236 0.153209
H108  H     H_    0.749064 0.733165 0.045935 0.165305
N1    N     N_R   0.519530 0.000000 0.207810 -0.214819
N2    N     N_R   0.480470 1.000000 0.792190 -0.214873
N3    N     N_R   0.019530 0.500000 0.207810 -0.214841
N4    N     N_R   0.980470 0.500000 0.792190 -0.214801
O1    O     O_R   0.430030 0.075530 0.417420 -0.524062
O2    O     O_R   0.583140 0.924490 0.385390 -0.419260
O3    O     O_R   0.583140 0.075510 0.385390 -0.434835
O4    O     O_R   0.416860 0.924490 0.614610 -0.419248
O5    O     O_R   0.916860 0.575510 0.614610 -0.434834
O6    O     O_R   0.083140 0.424490 0.385390 -0.419218
O7    O     O_R   0.083140 0.575510 0.385390 -0.434833
O8    O     O_R   0.916860 0.424490 0.614610 -0.419242
O9    O     O_3   0.651621 0.992831 0.186663 -0.515100
O10   O     O_3   0.348380 0.992829 0.813334 -0.515069
O11   O     O_3   0.151620 0.492817 0.186663 -0.515075
O12   O     O_R   0.569970 0.924470 0.582580 -0.551319
O13   O     O_3   0.848379 0.492835 0.813336 -0.515109
O14   O     O_3   0.619027 0.207517 0.294145 -0.549527
O15   O     O_3   0.370155 0.797996 0.722808 -0.558333
O16   O     O_3   0.380949 0.207500 0.705888 -0.549518
O17   O     O_3   0.629734 0.797875 0.277282 -0.558375
O18   O     O_3   0.119057 0.707495 0.294107 -0.549519
O19   O     O_3   0.870307 0.297847 0.722674 -0.558367
O20   O     O_3   0.880964 0.707513 0.705864 -0.549526
O21   O     O_3   0.129799 0.297949 0.277236 -0.558329
O22   O     O_R   0.569970 0.075530 0.582580 -0.524044
O23   O     O_R   0.430030 0.924470 0.417420 -0.551272
O24   O     O_R   0.930030 0.575530 0.417420 -0.524060
O25   O     O_R   0.069970 0.424470 0.582580 -0.551254
O26   O     O_R   0.069970 0.575530 0.582580 -0.524070
O27   O     O_R   0.930030 0.424470 0.417420 -0.551273
O28   O     O_R   0.416860 0.075510 0.614610 -0.434816

loop_
_geom_bond_atom_site_label_1
_geom_bond_atom_site_label_2
_ccdc_geom_bond_type
C75   H56   S    
C95   H101  S    
C22   C48   A    
C87   C88   S    
C1    C21   S    
C93   C94   S    
C91   H92   S    
C55   C59   A    
Cu1   O23   S    
C69   H41   S    
C73   C74   S    
C31   C61   A    
C76   H58   S    
C18   N3    A    
C80   H66   S    
C35   O4    A    
C13   O12   A    
C73   O13   S    
C97   C98   S    
C26   C44   A    
C79   O8    A    
C63   O9    S    
C54   C60   A    
C77   C78   S    
C9    N3    A    
C69   H40   S    
C7    C11   A    
C78   H63   S    
C85   H78   S    
C46   O5    A    
C33   C42   A    
C84   H77   S    
C17   H43   S    
C23   C68   S    
C16   N1    A    
C52   C61   A    
C44   O20   S    
Cu3   O6    S    
C34   C58   A    
C19   C47   A    
C96   H104  S    
C71   H46   S    
C83   O16   S    
C22   C39   A    
C77   H61   S    
Cu4   O25   S    
C99   H5    S    
C6    O10   S    
C98   H4    S    
C31   C40   A    
C37   O15   S    
C53   C62   A    
C81   H68   S    
C2    C90   A    
C25   C50   A    
C48   H87   S    
C57   O25   A    
C43   O21   S    
Cu3   O7    S    
C20   C35   S    
Cu1   O2    S    
Cu2   N2    S    
C66   H35   S    
C82   H70   S    
C68   O26   A    
Cu3   O24   S    
C72   H48   S    
C73   H50   S    
C30   C39   A    
Cu3   O27   S    
C32   C41   A    
C18   H32   S    
C70   C71   S    
C70   H42   S    
C46   O24   A    
C13   O2    A    
C40   O16   S    
C92   H95   S    
C2    C16   A    
C32   C55   A    
C20   C45   A    
C48   C56   A    
C53   H12   S    
Cu2   O4    S    
C49   H76   S    
C65   H33   S    
C52   H13   S    
C95   H102  S    
C66   C67   S    
C94   H100  S    
C85   H79   S    
C95   H103  S    
C66   O10   S    
C96   H105  S    
C74   H53   S    
C15   N2    A    
C92   H94   S    
C3    C100  S    
C21   C49   A    
C81   C82   S    
C57   O6    A    
C28   C60   A    
C34   H16   S    
C88   H85   S    
C64   H30   S    
C78   H62   S    
C86   O17   S    
Cu2   O22   S    
C97   H106  S    
C83   H73   S    
Cu1   Cu2   S    
C29   C59   A    
C93   H96   S    
C35   O23   A    
C76   C77   S    
Cu4   N4    S    
C5    C12   A    
C38   O14   S    
C27   C57   S    
C25   C41   A    
C91   C92   S    
C39   O17   S    
C86   C87   S    
C4    C5    A    
C87   H83   S    
C5    C18   A    
C41   O19   S    
C99   H6    S    
C98   H108  S    
C93   O19   S    
C49   C58   A    
C67   C69   S    
C81   H69   S    
C89   O18   S    
C29   C38   A    
C84   H75   S    
C88   H86   S    
C9    C14   A    
C36   C56   A    
C1    O28   A    
C27   C43   A    
C91   H91   S    
C8    O13   S    
Cu1   O3    S    
C23   C51   A    
C83   C84   S    
C6    N2    A    
C8    C12   A    
C72   H47   S    
C89   H89   S    
C96   C97   S    
C73   H51   S    
Cu2   O12   S    
C96   O20   S    
C74   H52   S    
C9    O11   S    
C65   H31   S    
C63   H28   S    
C70   O11   S    
C65   H34   S    
C23   C42   A    
C7    N1    A    
C16   H1    S    
C86   H81   S    
C4    C17   A    
C30   H20   S    
C45   C54   A    
C86   H82   S    
C85   H80   S    
C63   H27   S    
C30   C62   A    
C3    H9    S    
C56   C62   A    
C36   C44   A    
C68   O7    A    
Cu2   O28   S    
C50   C59   A    
C80   O15   S    
C10   H23   S    
C17   N4    A    
C26   C53   A    
Cu3   N3    S    
Cu4   O5    S    
C24   O22   A    
C27   C52   A    
C77   H60   S    
C47   C55   A    
C14   H26   S    
C28   H18   S    
C75   H55   S    
C33   C54   A    
C88   H88   S    
C64   H29   S    
C72   H49   S    
C97   H107  S    
C83   H74   S    
C25   C79   S    
C84   C85   S    
C82   H72   S    
C80   C81   S    
C8    N4    A    
C3    H10   S    
C45   H65   S    
C6    C10   A    
C51   H98   S    
C100  H8    S    
C87   H84   S    
C51   C60   A    
C93   H97   S    
C69   H39   S    
C7    O9    S    
C70   H44   S    
C78   H64   S    
C31   H22   S    
C99   C100  S    
C75   H57   S    
C64   C65   S    
C36   H17   S    
C71   C72   S    
C3    H11   S    
C15   C90   A    
C76   O14   S    
C20   C37   A    
C42   O18   S    
C11   C90   A    
C71   H45   S    
C21   C40   A    
Cu1   N1    S    
C28   C37   A    
C58   C61   A    
Cu4   O26   S    
C89   H90   S    
C29   H19   S    
C13   C22   S    
C19   C24   S    
C11   H24   S    
C67   H37   S    
C4    C14   A    
C94   C95   S    
C82   H71   S    
C12   H25   S    
C26   C46   S    
C33   H15   S    
C63   C64   S    
C99   O21   S    
C24   O3    A    
Cu1   O1    S    
C19   C38   A    
C66   H36   S    
C74   C75   S    
C100  H7    S    
C89   C91   S    
C15   H21   S    
C79   O27   A    
Cu3   Cu4   S    
C50   H2    S    
C32   H14   S    
C76   H59   S    
C1    O1    A    
C94   H99   S    
C80   H67   S    
C34   C43   A    
C67   H38   S    
Cu4   O8    S    
C92   H93   S    
C98   H3    S    
C47   H54   S    
C2    C10   A    
