data_mof_unit_16881.cif
_audit_creation_date              2013-03-05T15:54:54-0500
_audit_creation_method            fapswitch 2.2
_symmetry_space_group_name_H-M    P1
_symmetry_Int_Tables_number       1
_space_group_crystal_system       triclinic
_cell_length_a                    17.174102
_cell_length_b                    17.172462
_cell_length_c                    17.347687
_cell_angle_alpha                 90.223482
_cell_angle_beta                  90.185569
_cell_angle_gamma                 89.868279
_cell_volume                      5116.12872437

loop_
_atom_site_label
_atom_site_type_symbol
_atom_site_description
_atom_site_fract_x
_atom_site_fract_y
_atom_site_fract_z
_atom_type_partial_charge
C1    C     C_R   0.394599 0.301707 0.899720 -0.152365
C2    C     C_R   0.669264 0.423177 0.856112 -0.016558
C3    C     C_R   0.605286 0.698087 0.899394 -0.163679
C4    C     C_R   0.330376 0.576570 0.856005 -0.019514
C5    C     C_R   0.422873 0.671404 0.142874 -0.019433
C6    C     C_R   0.698309 0.605531 0.100177 -0.162897
C7    C     C_R   0.582025 0.326974 0.141174 -0.024553
C8    C     C_R   0.313436 0.406719 0.126696 -0.097312
C9    C     C_R   0.923527 0.830603 0.355889 -0.012051
C10   C     C_R   0.198185 0.895419 0.399046 -0.126306
C11   C     C_R   0.104840 0.198286 0.401455 -0.118483
C12   C     C_R   0.801730 0.106372 0.401067 -0.165429
C13   C     C_R   0.894241 0.198341 0.600146 -0.165835
C14   C     C_R   0.169425 0.076489 0.643989 -0.025156
C15   C     C_R   0.105575 0.801748 0.600163 -0.163407
C16   C     C_R   0.829909 0.922916 0.643436 -0.016449
H1    H     H_    0.422639 0.246330 0.909199 0.153587
H2    H     H_    0.713030 0.464329 0.839102 0.100066
H3    H     H_    0.577352 0.753596 0.908607 0.149481
H4    H     H_    0.286404 0.535420 0.838832 0.099041
H5    H     H_    0.464351 0.715151 0.159861 0.100055
H6    H     H_    0.753664 0.577582 0.090373 0.148509
H7    H     H_    0.546108 0.279164 0.156466 0.094062
H8    H     H_    0.260121 0.438117 0.134057 0.117637
H9    H     H_    0.964886 0.786711 0.338794 0.100170
H10   H     H_    0.253199 0.924115 0.408212 0.135953
H11   H     H_    0.076640 0.253452 0.412097 0.141912
H12   H     H_    0.746336 0.079274 0.412046 0.146322
H13   H     H_    0.921913 0.253714 0.590541 0.146274
H14   H     H_    0.213439 0.035251 0.660986 0.102273
H15   H     H_    0.077660 0.746421 0.590432 0.148661
H16   H     H_    0.785575 0.963898 0.660312 0.100437
N1    N     N_R   0.425360 0.368540 0.922560 -0.053719
N2    N     N_R   0.631460 0.425360 0.922560 -0.046802
N3    N     N_R   0.574640 0.631460 0.922560 -0.051197
N4    N     N_R   0.368540 0.574640 0.922560 -0.047110
N5    N     N_R   0.425360 0.631460 0.077440 -0.047129
N6    N     N_R   0.631460 0.574640 0.077440 -0.051101
N7    N     N_R   0.574640 0.368540 0.077440 -0.048391
N8    N     N_R   0.368540 0.425360 0.077440 -0.055052
N9    N     N_R   0.925360 0.868540 0.422560 -0.046616
N10   N     N_R   0.131460 0.925360 0.422560 -0.045851
N11   N     N_R   0.074640 0.131460 0.422560 -0.048121
N12   N     N_R   0.868540 0.074640 0.422560 -0.048924
N13   N     N_R   0.925360 0.131460 0.577440 -0.049181
N14   N     N_R   0.131460 0.074640 0.577440 -0.051166
N15   N     N_R   0.074640 0.868540 0.577440 -0.049957
N16   N     N_R   0.868540 0.925360 0.577440 -0.047056
C17   C     C_3   0.864079 0.344406 0.698560 0.011772
C18   C     C_3   0.681145 0.885744 0.738979 0.037259
C19   C     C_3   0.135246 0.655921 0.698080 0.009962
C20   C     C_3   0.318235 0.114229 0.738672 0.045440
C21   C     C_3   0.888187 0.682545 0.258087 0.036459
C22   C     C_3   0.655018 0.136009 0.306098 0.024404
C23   C     C_3   0.125434 0.338687 0.298998 0.031138
C24   C     C_3   0.344448 0.867009 0.301764 0.020327
C25   C     C_3   0.387537 0.820406 0.241049 0.035107
C26   C     C_3   0.165873 0.373830 0.230121 0.050766
C27   C     C_3   0.613997 0.181203 0.243324 0.036121
C28   C     C_3   0.844660 0.635459 0.197958 0.024452
C29   C     C_3   0.365568 0.157589 0.798698 0.000210
C30   C     C_3   0.182242 0.612520 0.758206 0.039024
C31   C     C_3   0.634215 0.842443 0.798823 0.009953
C32   C     C_3   0.817112 0.387683 0.758816 0.035947
H17   H     H_    0.900176 0.296046 0.722122 0.123106
H18   H     H_    0.672508 0.950012 0.739390 0.136355
H19   H     H_    0.099456 0.704485 0.721834 0.122022
H20   H     H_    0.327510 0.050048 0.738175 0.135721
H21   H     H_    0.952496 0.674299 0.257495 0.135491
H22   H     H_    0.702441 0.097587 0.284319 0.119402
H23   H     H_    0.085924 0.289858 0.283249 0.132858
H24   H     H_    0.295862 0.902971 0.278408 0.137504
H25   H     H_    0.451856 0.828303 0.241592 0.135879
H26   H     H_    0.160034 0.438237 0.225643 0.124964
H27   H     H_    0.549533 0.174501 0.242839 0.119817
H28   H     H_    0.796404 0.599713 0.221693 0.121665
H29   H     H_    0.400208 0.206780 0.775228 0.120929
H30   H     H_    0.173999 0.548238 0.757536 0.133793
H31   H     H_    0.598896 0.793579 0.775067 0.121794
H32   H     H_    0.825068 0.452001 0.758530 0.135023
C33   C     C_R   0.419317 0.671674 0.856760 -0.052230
C34   C     C_R   0.302333 0.392072 0.897848 -0.106290
C35   C     C_R   0.580452 0.327986 0.856603 -0.055717
C36   C     C_R   0.697496 0.607638 0.897646 -0.120415
C37   C     C_R   0.403218 0.313071 0.126400 -0.147295
C38   C     C_R   0.325245 0.585871 0.140807 -0.074497
C39   C     C_R   0.607919 0.697728 0.102073 -0.119124
C40   C     C_R   0.674309 0.418349 0.141677 -0.056865
C41   C     C_R   0.893066 0.197580 0.397213 -0.076141
C42   C     C_R   0.828187 0.919645 0.356528 -0.047427
C43   C     C_R   0.108520 0.802529 0.397841 -0.122217
C44   C     C_R   0.197103 0.107344 0.397374 -0.056383
C45   C     C_R   0.919152 0.827690 0.642803 -0.051417
C46   C     C_R   0.802347 0.107948 0.602056 -0.119363
C47   C     C_R   0.080474 0.171917 0.643425 -0.076523
C48   C     C_R   0.197709 0.891897 0.602085 -0.121509
H33   H     H_    0.455434 0.720490 0.841130 0.124998
H34   H     H_    0.245686 0.419310 0.901856 0.128798
H35   H     H_    0.544293 0.279072 0.840738 0.125469
H36   H     H_    0.754154 0.580411 0.901685 0.124383
H37   H     H_    0.429428 0.256355 0.132761 0.128458
H38   H     H_    0.271375 0.557377 0.154057 0.105031
H39   H     H_    0.580722 0.754366 0.097775 0.123846
H40   H     H_    0.722858 0.455129 0.157196 0.126013
H41   H     H_    0.921431 0.253627 0.399938 0.133041
H42   H     H_    0.779298 0.956029 0.340809 0.120667
H43   H     H_    0.081959 0.745713 0.402040 0.127632
H44   H     H_    0.253424 0.079188 0.398838 0.140464
H45   H     H_    0.955310 0.778612 0.658316 0.124309
H46   H     H_    0.745817 0.080720 0.597835 0.122798
H47   H     H_    0.044327 0.220976 0.659182 0.127044
H48   H     H_    0.254336 0.918859 0.597951 0.121506
N17   N     N_R   0.425340 0.631500 0.922560 -0.047946
N18   N     N_R   0.368500 0.425340 0.922560 -0.056885
N19   N     N_R   0.574660 0.368500 0.922560 -0.047904
N20   N     N_R   0.631500 0.574660 0.922560 -0.054069
N21   N     N_R   0.425340 0.368500 0.077440 -0.052688
N22   N     N_R   0.368500 0.574660 0.077440 -0.048238
N23   N     N_R   0.574660 0.631500 0.077440 -0.054240
N24   N     N_R   0.631500 0.425340 0.077440 -0.048869
N25   N     N_R   0.925340 0.131500 0.422560 -0.048341
N26   N     N_R   0.868500 0.925340 0.422560 -0.047370
N27   N     N_R   0.074660 0.868500 0.422560 -0.052608
N28   N     N_R   0.131500 0.074660 0.422560 -0.051311
N29   N     N_R   0.925340 0.868500 0.577440 -0.047684
N30   N     N_R   0.868500 0.074660 0.577440 -0.052708
N31   N     N_R   0.074660 0.131500 0.577440 -0.052543
N32   N     N_R   0.131500 0.925340 0.577440 -0.053127
Ni1   Ni    Ni4+2 0.500000 0.369720 0.000000 0.269866
Ni2   Ni    Ni4+2 0.630280 0.500000 0.000000 0.261183
Ni3   Ni    Ni4+2 0.500000 0.630280 0.000000 0.261257
Ni4   Ni    Ni4+2 0.369720 0.500000 0.000000 0.269471
Ni5   Ni    Ni4+2 1.000000 0.869720 0.500000 0.269957
Ni6   Ni    Ni4+2 0.130280 0.000000 0.500000 0.246601
Ni7   Ni    Ni4+2 1.000000 0.130280 0.500000 0.239823
Ni8   Ni    Ni4+2 0.869720 0.000000 0.500000 0.267953
C49   C     C_R   0.317423 0.314140 0.883095 0.071444
C50   C     C_R   0.639932 0.361662 0.813688 0.034291
C51   C     C_R   0.682361 0.685417 0.882528 0.074749
C52   C     C_R   0.359641 0.637843 0.813705 0.034962
C53   C     C_R   0.360308 0.644309 0.184115 0.044391
C54   C     C_R   0.685899 0.682800 0.116662 0.074839
C55   C     C_R   0.643243 0.356893 0.183303 0.040919
C56   C     C_R   0.337147 0.339898 0.162994 0.105402
C57   C     C_R   0.862090 0.860015 0.313413 0.034914
C58   C     C_R   0.186311 0.818127 0.382942 0.065548
C59   C     C_R   0.181466 0.185526 0.384525 0.056128
C60   C     C_R   0.814721 0.183378 0.384304 0.066937
C61   C     C_R   0.817086 0.185930 0.616598 0.077077
C62   C     C_R   0.140086 0.137963 0.686408 0.050335
C63   C     C_R   0.182787 0.814031 0.616732 0.076932
C64   C     C_R   0.859099 0.861178 0.685495 0.035210
C65   C     C_R   0.745222 0.360859 0.716305 -0.014735
C66   C     C_R   0.710320 0.818321 0.835067 0.054193
C67   C     C_R   0.254046 0.638919 0.716008 -0.017238
C68   C     C_R   0.289736 0.180952 0.835769 0.067808
C69   C     C_R   0.819625 0.711450 0.162425 0.053455
C70   C     C_R   0.641779 0.254222 0.283320 -0.034979
C71   C     C_R   0.240755 0.347860 0.266819 -0.070928
C72   C     C_R   0.360982 0.748526 0.282793 -0.015444
C73   C     C_R   0.320033 0.790718 0.336935 0.047989
C74   C     C_R   0.204774 0.315151 0.329334 0.069438
C75   C     C_R   0.681290 0.212968 0.339098 0.058213
C76   C     C_R   0.861198 0.754318 0.215790 -0.014648
C77   C     C_R   0.246732 0.139461 0.782514 -0.014844
C78   C     C_R   0.211292 0.680440 0.662663 0.054300
C79   C     C_R   0.752991 0.859632 0.781925 -0.012562
C80   C     C_R   0.788007 0.319503 0.662819 0.053854
C81   C     C_R   0.672242 0.334474 0.740848 0.083976
C82   C     C_R   0.737499 0.745731 0.860321 0.033639
C83   C     C_R   0.327247 0.664911 0.740858 0.082870
C84   C     C_R   0.262324 0.253398 0.861564 0.045124
C85   C     C_R   0.746596 0.738267 0.137725 0.031979
C86   C     C_R   0.670067 0.325660 0.256515 0.082209
C87   C     C_R   0.308138 0.314490 0.236359 0.098212
C88   C     C_R   0.334190 0.675974 0.257312 0.081359
C89   C     C_R   0.247518 0.763322 0.361962 0.029546
C90   C     C_R   0.234445 0.245176 0.359189 0.051251
C91   C     C_R   0.754465 0.239270 0.363706 0.026633
C92   C     C_R   0.834966 0.827588 0.240476 0.084655
C93   C     C_R   0.172915 0.165126 0.759021 0.080005
C94   C     C_R   0.238170 0.753233 0.638099 0.033791
C95   C     C_R   0.826346 0.833571 0.757727 0.083948
C96   C     C_R   0.761431 0.246549 0.637797 0.033413
C97   C     C_R   0.230562 0.683807 0.351449 -0.109496
C98   C     C_R   0.312147 0.225164 0.343315 -0.085919
C99   C     C_R   0.773392 0.318019 0.351578 -0.107907
C100  C     C_R   0.773671 0.862688 0.199226 -0.112970
C101  C     C_R   0.137645 0.225821 0.800997 -0.124341
C102  C     C_R   0.317620 0.770561 0.648767 -0.118717
C103  C     C_R   0.861602 0.772502 0.799008 -0.115114
C104  C     C_R   0.682085 0.228816 0.648111 -0.120423
C105  C     C_R   0.637250 0.273254 0.699366 -0.120146
C106  C     C_R   0.816957 0.728114 0.849971 -0.118349
C107  C     C_R   0.362413 0.725885 0.699803 -0.118017
C108  C     C_R   0.182623 0.270497 0.851990 -0.088985
C109  C     C_R   0.728974 0.817770 0.148158 -0.118887
C110  C     C_R   0.730680 0.361528 0.298056 -0.114131
C111  C     C_R   0.349133 0.259797 0.280964 -0.156933
C112  C     C_R   0.274457 0.639801 0.299235 -0.132498
H49   H     H_    0.178468 0.658156 0.375184 0.159359
H50   H     H_    0.340032 0.175837 0.370593 0.176618
H51   H     H_    0.826201 0.343005 0.374992 0.166614
H52   H     H_    0.754271 0.921115 0.212900 0.142628
H53   H     H_    0.078924 0.244762 0.787992 0.144096
H54   H     H_    0.342788 0.823202 0.625730 0.149088
H55   H     H_    0.920070 0.753199 0.785663 0.142100
H56   H     H_    0.657095 0.176024 0.624657 0.149608
H57   H     H_    0.579021 0.253754 0.712913 0.141951
H58   H     H_    0.842312 0.675557 0.873419 0.149529
H59   H     H_    0.420820 0.745067 0.713557 0.141849
H60   H     H_    0.157302 0.322968 0.875911 0.154346
H61   H     H_    0.676100 0.842885 0.124978 0.150428
H62   H     H_    0.751125 0.419065 0.283135 0.145983
H63   H     H_    0.405853 0.238368 0.263927 0.132984
H64   H     H_    0.255537 0.581296 0.285393 0.136343
N33   N     N_R   0.907997 0.397109 0.648816 0.255704
O1    O     O_R   0.983255 0.390086 0.644071 -0.337236
O2    O     O_R   0.873061 0.452107 0.610388 -0.307364
N34   N     N_R   0.672847 0.850562 0.662217 0.247124
O3    O     O_R   0.648384 0.892891 0.604984 -0.338836
O4    O     O_R   0.686585 0.776766 0.650940 -0.354268
N35   N     N_R   0.090898 0.603308 0.647925 0.255867
O5    O     O_R   0.015624 0.610488 0.643231 -0.329391
O6    O     O_R   0.125459 0.548182 0.609142 -0.310467
N36   N     N_R   0.325211 0.149933 0.662313 0.244104
O7    O     O_R   0.349129 0.108126 0.604317 -0.362334
O8    O     O_R   0.310561 0.223638 0.652088 -0.377850
N37   N     N_R   0.853700 0.673694 0.334798 0.247435
O9    O     O_R   0.896477 0.648553 0.391535 -0.325818
O10   O     O_R   0.780015 0.687348 0.346394 -0.356006
N38   N     N_R   0.600471 0.095649 0.356853 0.254285
O11   O     O_R   0.606005 0.020632 0.365465 -0.325428
O12   O     O_R   0.545283 0.133472 0.392303 -0.345368
N39   N     N_R   0.088019 0.397654 0.347701 0.260024
O13   O     O_R   0.013960 0.392635 0.362269 -0.357365
O14   O     O_R   0.127572 0.455852 0.375890 -0.348728
N40   N     N_R   0.397335 0.911060 0.351891 0.255512
O15   O     O_R   0.390403 0.986347 0.356898 -0.353229
O16   O     O_R   0.452581 0.876227 0.390203 -0.314416
N41   N     N_R   0.352444 0.829826 0.164439 0.250572
O17   O     O_R   0.395007 0.854138 0.107553 -0.330666
O18   O     O_R   0.278579 0.817005 0.152957 -0.347439
N42   N     N_R   0.147530 0.332439 0.158210 0.251993
O19   O     O_R   0.119802 0.370916 0.099769 -0.332001
O20   O     O_R   0.156405 0.257290 0.152506 -0.363025
N43   N     N_R   0.650065 0.167697 0.167866 0.247830
O21   O     O_R   0.608369 0.139762 0.111522 -0.331066
O22   O     O_R   0.724104 0.179762 0.157271 -0.348545
N44   N     N_R   0.897150 0.591015 0.147912 0.250586
O23   O     O_R   0.890134 0.515749 0.143126 -0.344811
O24   O     O_R   0.951921 0.625498 0.109197 -0.335047
N45   N     N_R   0.411572 0.104983 0.847185 0.257454
O25   O     O_R   0.486813 0.112846 0.850633 -0.334999
O26   O     O_R   0.378540 0.049046 0.885502 -0.297575
N46   N     N_R   0.173355 0.647523 0.834954 0.247351
O27   O     O_R   0.148306 0.605183 0.891676 -0.345614
O28   O     O_R   0.187018 0.721217 0.846623 -0.351912
N47   N     N_R   0.589314 0.895172 0.848295 0.254783
O29   O     O_R   0.514065 0.887873 0.852229 -0.333966
O30   O     O_R   0.623348 0.950561 0.887184 -0.309672
N48   N     N_R   0.826489 0.352886 0.835389 0.247673
O31   O     O_R   0.851481 0.395491 0.892432 -0.341232
O32   O     O_R   0.813240 0.279148 0.846608 -0.350806

loop_
_geom_bond_atom_site_label_1
_geom_bond_atom_site_label_2
_geom_bond_distance
_ccdc_geom_bond_type
N12   Ni8   1.860422 S    
C33   C52   1.392890 A    
C4    N4    1.326283 A    
C62   C93   1.454046 S    
C108  H60   1.081498 S    
C5    N5    1.324739 A    
C60   C91   1.454483 S    
C2    H2    1.075603 S    
N39   O14   1.302510 A    
C100  H52   1.082175 S    
N35   O5    1.300672 A    
C78   C94   1.401908 A    
C15   N15   1.323852 A    
C13   H13   1.077792 S    
C21   H21   1.113248 S    
C16   N16   1.325939 A    
N34   O4    1.302647 A    
C37   H37   1.077905 S    
N15   N32   1.381800 A    
C14   N14   1.324335 A    
C31   H31   1.113515 S    
C30   C67   1.507684 S    
C46   C61   1.385463 A    
C30   N46   1.466934 S    
C43   N27   1.341746 A    
C48   H48   1.080774 S    
C66   C82   1.401409 A    
N1    N18   1.378625 A    
N37   O9    1.300779 A    
C9    C57   1.380853 A    
C17   H17   1.113406 S    
N27   Ni5   1.860126 S    
C67   C83   1.401086 A    
C111  H63   1.082150 S    
N35   O6    1.302364 A    
N6    Ni2   1.853252 S    
C24   N40   1.465027 S    
N31   Ni7   1.854185 S    
C34   C49   1.385582 A    
C31   N47   1.464965 S    
C26   C71   1.500774 S    
N4    Ni4   1.860422 S    
C69   C85   1.401462 A    
N45   O25   1.300697 A    
C27   C70   1.508373 S    
C32   N48   1.466946 S    
C91   C99   1.408320 A    
C67   C78   1.379227 A    
N44   O24   1.302419 A    
N7    N24   1.381798 A    
C6    H6    1.077666 S    
C99   H51   1.081505 S    
N12   N25   1.381799 A    
C23   C74   1.513760 S    
C89   C97   1.407877 A    
N42   O19   1.300700 A    
C48   N32   1.342133 A    
C51   C82   1.458719 S    
N41   O17   1.300689 A    
C12   N12   1.322284 A    
C25   H25   1.113230 S    
C49   C84   1.456775 S    
C25   N41   1.466865 S    
C92   C100  1.406800 A    
C98   H50   1.081957 S    
C8    H8    1.069283 S    
N16   N29   1.378625 A    
C32   H32   1.113257 S    
C93   C101  1.406255 A    
C44   H44   1.080650 S    
C79   C95   1.401078 A    
N5    N22   1.381798 A    
C27   H27   1.113334 S    
C36   C51   1.386015 A    
C29   H29   1.113482 S    
C80   C96   1.401196 A    
N46   O28   1.302545 A    
C95   C103  1.406896 A    
C72   C88   1.398723 A    
C53   C88   1.451364 S    
N23   Ni3   1.854185 S    
N39   O13   1.300683 A    
C96   C104  1.409105 A    
C3    H3    1.077754 S    
C3    N3    1.324879 A    
C22   C75   1.507678 S    
C40   N24   1.338685 A    
N21   Ni1   1.860312 S    
C40   C55   1.389569 A    
C20   H20   1.113245 S    
C61   C96   1.458505 S    
C10   H10   1.077665 S    
C46   N30   1.340951 A    
N8    N21   1.378625 A    
N8    Ni4   1.860582 S    
N30   Ni8   1.853527 S    
C36   N20   1.341712 A    
C17   C32   1.514022 S    
C71   C87   1.394767 A    
C39   C54   1.385643 A    
N15   Ni5   1.853991 S    
C50   C81   1.456477 S    
C28   N44   1.464779 S    
C18   C31   1.514767 S    
C42   N26   1.339918 A    
C19   C30   1.514164 S    
C88   C112  1.406575 A    
C41   N25   1.337039 A    
N4    N17   1.381799 A    
C37   C56   1.379404 A    
C7    C55   1.377685 A    
N34   O3    1.300828 A    
C40   H40   1.079936 S    
C21   C28   1.513882 S    
C102  H54   1.081422 S    
N10   N27   1.381798 A    
C45   C64   1.393485 A    
C54   C85   1.458367 S    
C45   N29   1.339955 A    
C22   C27   1.511164 S    
N43   O22   1.302526 A    
C30   H30   1.113244 S    
N40   O16   1.302358 A    
C11   N11   1.314240 A    
N13   Ni7   1.859885 S    
C86   C110  1.406049 A    
C34   H34   1.080822 S    
C99   C110  1.398894 A    
C9    H9    1.075995 S    
C36   H36   1.080763 S    
C35   N19   1.340648 A    
N14   N31   1.378626 A    
C28   C69   1.506544 S    
C34   N18   1.341417 A    
C17   C80   1.506459 S    
C83   C107  1.407070 A    
C101  H53   1.082273 S    
C106  H58   1.081462 S    
N45   O26   1.302411 A    
C81   C105  1.406574 A    
N7    Ni1   1.853991 S    
C24   H24   1.113192 S    
N2    N19   1.381798 A    
C14   H14   1.075884 S    
C48   C63   1.386664 A    
C85   C109  1.408827 A    
C32   C65   1.508127 S    
C68   C84   1.401403 A    
N5    Ni3   1.859885 S    
C58   C89   1.455480 S    
C17   N33   1.464958 S    
N41   O18   1.302573 A    
N20   Ni2   1.860829 S    
C2    C50   1.380333 A    
N9    N26   1.378625 A    
C37   N21   1.334844 A    
C22   N38   1.465022 S    
C39   N23   1.341622 A    
C76   C92   1.401405 A    
N11   Ni7   1.860063 S    
N32   Ni6   1.860666 S    
C20   C77   1.508378 S    
C4    C52   1.381699 A    
C33   N17   1.339649 A    
C107  H59   1.082119 S    
C57   C92   1.455989 S    
C105  H57   1.082167 S    
C22   H22   1.113089 S    
C11   H11   1.078504 S    
N13   N30   1.381798 A    
N26   Ni8   1.853497 S    
N46   O27   1.300668 A    
C14   C62   1.379753 A    
N38   O12   1.302398 A    
C71   C74   1.372651 A    
C5    H5    1.076109 S    
N3    N20   1.378627 A    
C8    C56   1.371450 A    
C47   C62   1.392784 A    
C19   H19   1.113423 S    
C15   C63   1.372533 A    
N25   Ni7   1.854238 S    
C64   C95   1.456621 S    
C26   N42   1.467048 S    
C10   N10   1.320090 A    
C18   H18   1.113227 S    
C69   C76   1.378956 A    
C87   C111  1.405579 A    
C102  C107  1.400864 A    
C10   C58   1.370878 A    
C39   H39   1.080724 S    
N9    Ni5   1.853943 S    
C70   C75   1.377503 A    
C20   N36   1.467205 S    
N1    Ni1   1.853943 S    
C25   C72   1.505892 S    
C12   H12   1.077846 S    
C104  H56   1.081376 S    
C52   C83   1.456517 S    
C28   H28   1.113426 S    
C38   N22   1.341747 A    
C65   C80   1.379155 A    
C75   C91   1.401142 A    
N24   Ni2   1.860666 S    
C66   C79   1.379152 A    
C84   C108  1.408700 A    
C16   H16   1.076140 S    
C24   C25   1.514330 S    
N6    N23   1.378625 A    
C41   H41   1.080527 S    
N47   O29   1.300728 A    
C110  H62   1.081994 S    
C29   C68   1.507203 S    
N3    Ni3   1.860063 S    
C1    C49   1.371944 A    
C26   H26   1.113338 S    
C63   C94   1.458863 S    
C82   C106  1.408975 A    
N19   Ni1   1.860126 S    
N29   Ni5   1.860312 S    
N42   O20   1.302531 A    
N40   O15   1.300666 A    
C29   N45   1.464975 S    
N17   Ni3   1.854238 S    
C103  H55   1.082192 S    
N18   Ni4   1.853497 S    
N16   Ni8   1.860582 S    
C5    C53   1.375779 A    
C31   C66   1.506469 S    
C23   N39   1.464903 S    
N47   O30   1.302500 A    
C70   C86   1.402087 A    
N48   O32   1.302547 A    
N43   O21   1.300652 A    
C16   C64   1.381623 A    
C21   C76   1.508161 S    
C15   H15   1.077673 S    
N48   O31   1.300685 A    
N14   Ni6   1.853252 S    
C4    H4    1.075984 S    
C9    N9    1.325554 A    
C42   C57   1.393244 A    
C8    N8    1.317943 A    
N36   O8    1.302598 A    
N28   Ni6   1.860829 S    
C20   C29   1.513549 S    
C41   C60   1.385320 A    
C104  C105  1.400807 A    
C12   C60   1.373984 A    
C44   N28   1.335412 A    
C45   H45   1.080102 S    
N44   O23   1.300689 A    
C103  C106  1.401018 A    
C77   C93   1.401069 A    
N37   O10   1.302595 A    
C47   H47   1.080146 S    
C72   C73   1.377805 A    
C13   N13   1.324723 A    
C101  C108  1.400298 A    
C2    N2    1.325172 A    
C33   H33   1.079927 S    
C100  C109  1.400738 A    
C7    H7    1.063022 S    
C24   C73   1.508254 S    
N33   O1    1.300683 A    
C18   N34   1.466788 S    
N38   O11   1.300657 A    
C112  H64   1.082476 S    
C46   H46   1.080699 S    
N10   Ni6   1.853284 S    
C11   C59   1.366300 A    
C56   C87   1.438002 S    
C35   C50   1.393970 A    
C97   C112  1.398663 A    
N33   O2    1.302346 A    
C98   C111  1.392232 A    
C73   C89   1.403059 A    
C68   C77   1.378225 A    
C74   C90   1.404355 A    
C6    C54   1.372602 A    
N22   Ni4   1.853527 S    
C1    N1    1.323314 A    
C42   H42   1.080331 S    
C13   C61   1.373636 A    
C90   C98   1.405079 A    
C47   N31   1.339915 A    
C109  H61   1.081431 S    
C3    C51   1.373242 A    
C1    H1    1.077890 S    
N2    Ni2   1.853284 S    
C59   C90   1.442442 S    
N36   O7    1.300794 A    
C23   C26   1.512342 S    
C65   C81   1.401807 A    
C18   C79   1.507548 S    
C7    N7    1.323957 A    
C97   H49   1.081490 S    
C19   C78   1.506725 S    
C35   H35   1.080015 S    
C94   C102  1.408686 A    
C55   C86   1.453737 S    
C6    N6    1.324114 A    
C19   N35   1.464982 S    
N11   N28   1.378627 A    
C43   C58   1.388480 A    
C23   H23   1.112561 S    
C38   C53   1.388557 A    
C21   N37   1.466954 S    
C27   N43   1.467400 S    
C44   C59   1.387307 A    
C43   H43   1.080791 S    
C38   H38   1.073564 S    
