data_mof_unit_38907.cif
_audit_creation_date              2012-12-11T21:20:07-0500
_audit_creation_method            fapswitch 2.2
_symmetry_space_group_name_H-M    P1
_symmetry_Int_Tables_number       1
_space_group_crystal_system       triclinic
_cell_length_a                    8.236237
_cell_length_b                    18.709899
_cell_length_c                    19.084113
_cell_angle_alpha                 103.296525
_cell_angle_beta                  92.431531
_cell_angle_gamma                 91.323757
_cell_volume                      2857.79986062

loop_
_atom_site_label
_atom_site_type_symbol
_atom_type_description
_atom_site_fract_x
_atom_site_fract_y
_atom_site_fract_z
_atom_type_partial_charge
Ba1   Ba    Ba6+2 0.155460 0.532000 0.467920 1.646217
Ba2   Ba    Ba6+2 0.654730 0.467990 0.532020 1.653070
C1    C     C_3   0.416630 0.727514 0.222910 -0.368406
C2    C     C_R   0.075312 0.910517 0.578522 -0.096242
C3    C     C_R   0.214132 0.052047 0.564427 -0.109107
C4    C     C_3   0.915461 0.716150 0.268998 0.388675
C5    C     C_R   0.056524 0.026311 0.536265 0.018889
C6    C     C_R   0.272171 0.122160 0.563720 -0.087611
C7    C     C_R   0.176202 0.170278 0.535076 -0.029629
C8    C     C_R   0.022678 0.144337 0.501220 -0.004057
C9    C     C_R   0.962642 0.072050 0.501503 0.021528
C10   C     C_R   0.229310 0.243517 0.538848 -0.014268
C11   C     C_R   0.128099 0.290322 0.511221 -0.306200
C12   C     C_3   0.438480 0.702508 0.293060 0.371406
C13   C     C_R   0.982830 0.264505 0.472505 0.037806
C14   C     C_R   0.930378 0.190273 0.466115 -0.040832
C15   C     C_R   0.838771 0.930166 0.505762 0.021830
C16   C     C_3   0.970001 0.762577 0.217538 -0.354128
C17   C     C_R   0.778750 0.857840 0.505874 0.007156
C18   C     C_R   0.873608 0.811013 0.538809 -0.033718
C19   C     C_R   0.016637 0.840247 0.578268 -0.036537
C20   C     C_R   0.789157 0.160292 0.425545 -0.026137
C21   C     C_R   0.728939 0.090529 0.426584 -0.090243
C22   C     C_R   0.809430 0.046193 0.466944 0.010477
C23   C     C_3   0.497030 0.698472 0.651206 0.324533
C24   C     C_R   0.744725 0.976011 0.471229 0.017187
C25   C     C_R   0.586526 0.950618 0.443636 -0.104958
C26   C     C_R   0.624399 0.832171 0.472652 -0.031408
C27   C     C_R   0.528206 0.880462 0.444285 -0.098344
C28   C     C_3   0.808956 0.367297 0.310048 0.319378
C29   C     C_R   0.571773 0.758707 0.468308 -0.019812
C30   C     C_R   0.673526 0.711635 0.495345 -0.302641
C31   C     C_R   0.822306 0.736529 0.531254 0.040137
C32   C     C_R   0.349059 0.532787 0.811675 -0.152842
C33   C     C_R   0.314967 0.524949 0.737192 0.014587
C34   C     C_3   0.493175 0.781894 0.672075 -0.403991
C35   C     C_R   0.164017 0.429990 0.808520 -0.167754
C36   C     C_R   0.096919 0.439760 0.743162 0.005995
C37   C     C_R   0.634017 0.561788 0.192063 -0.159531
C38   C     C_R   0.700531 0.559392 0.260111 -0.029824
C39   C     C_R   0.452649 0.460361 0.197313 -0.154669
C40   C     C_3   0.790281 0.345213 0.228251 -0.393325
C41   C     C_R   0.485975 0.474439 0.272283 0.061160
C42   C     C_R   0.282573 0.480912 0.848490 -0.005531
C43   C     C_R   0.183264 0.480549 0.704410 -0.243968
C44   C     C_R   0.516101 0.508345 0.155962 0.012847
C45   C     C_3   0.897004 0.270993 0.673681 0.353108
C46   C     C_R   0.615559 0.521873 0.302537 -0.230441
C47   C     C_R   0.076236 0.435366 0.963121 -0.064255
C48   C     C_R   0.983121 0.415159 0.014869 -0.077519
C49   C     C_R   0.029836 0.440217 0.086652 -0.072837
C50   C     C_R   0.175354 0.480133 0.105434 -0.080392
C51   C     C_R   0.292353 0.481970 0.054092 0.010521
C52   C     C_3   0.992968 0.630915 0.690271 0.365735
C53   C     C_R   0.237240 0.465355 0.979623 0.040618
C54   C     C_R   0.457739 0.502556 0.076948 -0.014534
C55   C     C_R   0.564846 0.512845 0.022598 0.038878
C56   C     C_3   0.865570 0.196772 0.691271 -0.351924
C57   C     C_R   0.508359 0.498166 0.948505 0.006472
C58   C     C_R   0.342233 0.479625 0.925978 -0.016704
C59   C     C_R   0.730117 0.536558 0.038395 -0.083280
C60   C     C_R   0.825979 0.555581 0.986931 -0.093860
C61   C     C_R   0.775844 0.533745 0.915226 -0.038018
C62   C     C_R   0.624645 0.498646 0.896673 -0.077413
C63   C     C_3   0.986102 0.649579 0.772243 0.289483
C64   C     C_3   0.307522 0.304703 0.364469 0.320007
C65   C     C_3   0.305028 0.221153 0.342602 -0.392945
C66   C     C_3   0.797377 0.734021 0.823451 0.196024
C67   C     C_3   0.425257 0.314574 0.714521 0.378202
C68   C     C_3   0.917205 0.763395 0.345919 -0.287513
C69   C     C_3   0.386873 0.162999 0.770666 0.174732
C70   C     C_3   0.440917 0.288076 0.784399 0.283330
C71   C     C_R   0.992663 0.955767 0.539831 0.010903
H1    H     H_    0.416034 0.642120 0.281525 0.046164
H2    H     H_    0.388514 0.322913 0.413701 0.067989
H3    H     H_    0.300821 0.703986 0.194072 0.129743
H4    H     H_    0.221505 0.201214 0.294459 0.121390
H5    H     H_    0.262813 0.197511 0.387076 0.059542
H6    H     H_    0.429250 0.201928 0.329788 0.119025
H7    H     H_    0.564840 0.717188 0.315060 -0.085743
H8    H     H_    0.517743 0.708647 0.187454 0.062707
H9    H     H_    0.624976 0.682386 0.643312 0.026795
H10   H     H_    0.423422 0.679311 0.599838 0.051837
H11   H     H_    0.566524 0.803431 0.723037 0.106689
H12   H     H_    0.691422 0.302567 0.211241 0.121959
H13   H     H_    0.544104 0.805401 0.629021 0.058939
H14   H     H_    0.365887 0.799387 0.679532 0.116367
H15   H     H_    0.415882 0.788446 0.234155 0.111888
H16   H     H_    0.881407 0.806059 0.215563 0.070098
H17   H     H_    0.850627 0.268150 0.617537 0.066168
H18   H     H_    0.030637 0.281724 0.677882 -0.039916
H19   H     H_    0.734223 0.181157 0.683397 0.128441
H20   H     H_    0.934396 0.154100 0.655340 0.075674
H21   H     H_    0.905920 0.199156 0.748059 0.126766
H22   H     H_    0.294934 0.322507 0.702581 -0.064769
H23   H     H_    0.759940 0.393637 0.206638 0.064701
H24   H     H_    0.493558 0.367958 0.722074 0.023901
H25   H     H_    0.420735 0.335062 0.830170 -0.004002
H26   H     H_    0.567781 0.271088 0.793311 0.039646
H27   H     H_    0.168038 0.346805 0.515988 0.072904
H28   H     H_    0.393805 0.137815 0.586099 0.104585
H29   H     H_    0.086411 0.809289 0.609451 0.092181
H30   H     H_    0.721699 0.190368 0.392713 0.096262
H31   H     H_    0.406519 0.864737 0.421812 0.105109
H32   H     H_    0.633878 0.655077 0.490374 0.073202
H33   H     H_    0.298040 0.018809 0.586601 0.064002
H34   H     H_    0.905901 0.323225 0.205624 0.125151
H35   H     H_    0.185792 0.928044 0.610735 0.055139
H36   H     H_    0.619683 0.072299 0.393643 0.057472
H37   H     H_    0.788995 0.697758 0.251344 -0.044594
H38   H     H_    0.502648 0.984293 0.421982 0.071559
H39   H     H_    0.435004 0.575843 0.838858 0.085468
H40   H     H_    0.125839 0.381213 0.825211 0.089313
H41   H     H_    0.677553 0.604541 0.167716 0.052440
H42   H     H_    0.370373 0.414736 0.172838 0.071595
H43   H     H_    0.142314 0.481007 0.649893 0.060028
H44   H     H_    0.658126 0.525252 0.357660 0.063518
H45   H     H_    0.116580 0.615088 0.675137 -0.096425
H46   H     H_    0.010533 0.430581 0.913088 0.066534
H47   H     H_    0.864089 0.388890 0.999899 0.075008
H48   H     H_    0.947688 0.432957 0.127239 0.100393
H49   H     H_    0.091221 0.789237 0.235402 0.125799
H50   H     H_    0.198214 0.508554 0.160633 0.132566
H51   H     H_    0.795033 0.536788 0.087972 0.076876
H52   H     H_    0.948172 0.578213 0.001758 0.075774
H53   H     H_    0.858802 0.539786 0.874434 0.117363
H54   H     H_    0.596091 0.472362 0.841415 0.116918
H55   H     H_    0.976622 0.727322 0.162348 0.101436
H56   H     H_    0.906851 0.583903 0.668261 0.078243
H57   H     H_    0.692100 0.386947 0.331898 0.000338
H58   H     H_    0.902984 0.412171 0.325459 0.091607
H59   H     H_    0.828023 0.769780 0.786358 0.040513
H60   H     H_    0.868834 0.751987 0.875601 0.006679
H61   H     H_    0.666754 0.740302 0.834631 0.068836
H62   H     H_    0.880733 0.729303 0.383298 0.080767
H63   H     H_    0.039816 0.788356 0.363595 0.159401
H64   H     H_    0.829855 0.808194 0.348800 0.049077
H65   H     H_    0.472502 0.157966 0.815797 0.023023
H66   H     H_    0.448846 0.150737 0.718861 0.048073
H67   H     H_    0.071243 0.697151 0.795979 -0.009732
H68   H     H_    0.287025 0.121187 0.766470 0.057631
H69   H     H_    0.031325 0.602481 0.792681 -0.027130
H70   H     H_    0.182688 0.322918 0.375748 0.005205
O1    O     O_2   0.114280 0.679350 0.549180 -0.458132
O2    O     O_2   0.769524 0.467963 0.750692 -0.493656
O3    O     O_3   0.816579 0.325402 0.722043 -0.601067
O4    O     O_3   0.866400 0.589600 0.543550 -0.496951
O5    O     O_3   0.444420 0.455520 0.411210 -0.492530
O6    O     O_2   0.612810 0.550740 0.677950 -0.431256
O7    O     O_3   0.433138 0.669845 0.706514 -0.635785
O8    O     O_2   0.563817 0.246085 0.525827 -0.485247
O9    O     O_3   0.490567 0.262458 0.658893 -0.616619
O10   O     O_3   0.362150 0.623490 0.415650 -0.471745
O11   O     O_2   0.233198 0.752359 0.471401 -0.480901
O12   O     O_3   0.364016 0.332295 0.307457 -0.634617
O13   O     O_3   0.955204 0.692941 0.664326 -0.662728
O14   O     O_3   0.326420 0.737348 0.341593 -0.586549
O15   O     O_2   0.197490 0.449210 0.322030 -0.460104
O16   O     O_3   0.950520 0.583920 0.376610 -0.457288
O17   O     O_2   0.010713 0.514265 0.249643 -0.502339
O18   O     O_3   0.822891 0.659567 0.791961 -0.623645
O19   O     O_3   0.319547 0.233175 0.784312 -0.644629
O20   O     O_3   0.020032 0.656704 0.264813 -0.561112
O21   O     O_2   0.696020 0.320600 0.450800 -0.463798
O22   O     O_3   0.943900 0.410390 0.456390 -0.498878
O23   O     O_3   0.448150 0.376500 0.584290 -0.477150
O24   O     O_3   0.853729 0.306014 0.335763 -0.641878
O25   O     O_3   0.365880 0.544470 0.588730 -0.480696
O26   O     O_3   0.859790 0.416060 0.623340 -0.472420
P1    P     P_3+3 0.941030 0.670050 0.569830 0.971565
P2    P     P_3+3 0.370400 0.428500 0.331430 0.980082
P3    P     P_3+3 0.916596 0.581787 0.286019 0.943646
P4    P     P_3+3 0.869270 0.329940 0.430110 0.966185
P5    P     P_3+3 0.887178 0.411083 0.711945 0.933248
P6    P     P_3+3 0.374204 0.718715 0.425559 0.960847
P7    P     P_3+3 0.430348 0.573748 0.680349 0.975653
P8    P     P_3+3 0.432020 0.281742 0.576294 0.944850

loop_
_geom_bond_atom_site_label_1
_geom_bond_atom_site_label_2
_ccdc_geom_bond_type
O7    P7    S    
C15   C24   A    
C2    C19   A    
C69   O19   S    
C25   C27   A    
C32   H39   S    
Ba1   P1    S    
C17   C18   A    
C65   H4    S    
C4    O20   S    
C5    C71   A    
C52   C63   S    
C70   H25   S    
C66   O18   S    
C5    C9    A    
C2    H35   S    
C57   C62   A    
C35   C36   A    
O11   P6    D    
C59   H51   S    
C40   H23   S    
C33   P7    S    
C12   H1    S    
C26   C27   A    
C56   H20   S    
C22   C24   A    
C28   O24   S    
C32   C33   A    
Ba2   P4    S    
C52   O13   S    
C64   O12   S    
C50   H50   S    
O15   P2    D    
C55   C57   A    
C35   H40   S    
O22   P4    S    
C28   H58   S    
O1    P1    D    
C9    C22   A    
O5    P2    S    
C54   C55   A    
O8    P8    D    
C4    C68   S    
Ba1   Ba2   S    
O9    P8    S    
C66   H59   S    
C36   C43   A    
C16   H55   S    
C63   H67   S    
C6    C7    A    
C1    H8    S    
O26   P5    S    
C12   H7    S    
C40   H34   S    
Ba2   O23   S    
O4    P1    S    
O24   P4    S    
C62   H54   S    
Ba2   O6    S    
C64   C65   S    
C45   O3    S    
C25   H38   S    
C57   C58   A    
C53   C58   A    
C15   C71   A    
C4    H37   S    
C65   H5    S    
C39   H42   S    
C21   H36   S    
C31   P1    S    
C7    C8    A    
C69   H65   S    
C3    H33   S    
C51   C53   A    
C34   H14   S    
C4    C16   S    
C42   C58   S    
O16   P3    S    
C13   P4    S    
C12   O14   S    
C49   C50   A    
Ba1   O16   S    
C32   C42   A    
Ba2   O21   S    
C37   C38   A    
C3    C5    A    
C41   P2    S    
C29   P6    S    
C64   H70   S    
C16   H16   S    
Ba1   O25   S    
C34   H13   S    
Ba2   O4    S    
C47   C53   A    
Ba1   P2    S    
C20   H30   S    
C27   H31   S    
C23   O7    S    
C67   C70   S    
C60   C61   A    
C1    H3    S    
C68   H63   S    
C60   H52   S    
C29   C30   A    
Ba1   O22   S    
C39   C44   A    
C37   H41   S    
C48   C49   A    
O17   P3    D    
C65   H6    S    
O21   P4    D    
C40   H12   S    
C10   C11   A    
Ba1   O10   S    
C17   C26   A    
Ba2   O22   S    
C2    C71   A    
C1    C12   S    
C23   C34   S    
O14   P6    S    
C37   C44   A    
O25   P7    S    
C18   C31   A    
C16   H49   S    
O23   P8    S    
C30   H32   S    
C52   H45   S    
C24   C25   A    
C23   H9    S    
C49   H48   S    
C45   H17   S    
C48   H47   S    
Ba1   O4    S    
C19   H29   S    
C44   C54   S    
C33   C43   A    
Ba2   O25   S    
C38   P3    S    
C50   C51   A    
C6    H28   S    
C51   C54   A    
C38   C46   A    
C52   H56   S    
C66   H60   S    
C14   C20   A    
O2    P5    D    
C21   C22   A    
C1    H15   S    
C67   O9    S    
C45   H18   S    
C26   C29   A    
O20   P3    S    
C39   C41   A    
C67   H22   S    
C3    C6    A    
C69   H66   S    
C55   C59   A    
C46   H44   S    
O10   P6    S    
C69   H68   S    
O6    P7    D    
C41   C46   A    
C30   C31   A    
C11   H27   S    
C11   C13   A    
C56   H21   S    
Ba1   O1    S    
C28   H57   S    
C45   C56   S    
C63   H69   S    
C43   H43   S    
Ba1   O15   S    
C47   H46   S    
C56   H19   S    
C34   H11   S    
C64   H2    S    
O3    P5    S    
O13   P1    S    
C15   C17   A    
C66   H61   S    
C10   P8    S    
C59   C60   A    
C7    C10   A    
C61   H53   S    
C36   P5    S    
C8    C9    A    
Ba2   O26   S    
C61   C62   A    
C35   C42   A    
O12   P2    S    
C18   C19   A    
C68   H64   S    
C47   C48   A    
C68   H62   S    
C63   O18   S    
C23   H10   S    
C70   O19   S    
C20   C21   A    
C28   C40   S    
Ba1   O5    S    
C8    C14   A    
Ba2   O5    S    
C13   C14   A    
C70   H26   S    
C67   H24   S    
