data_mof_unit_35439.cif
_audit_creation_date              2012-12-10T16:56:35-0500
_audit_creation_method            fapswitch 2.2
_symmetry_space_group_name_H-M    P1
_symmetry_Int_Tables_number       1
_space_group_crystal_system       triclinic
_cell_length_a                    7.857496
_cell_length_b                    8.567186
_cell_length_c                    15.667029
_cell_angle_alpha                 90.509786
_cell_angle_beta                  88.637335
_cell_angle_gamma                 92.733731
_cell_volume                      1053.12162078

loop_
_atom_site_label
_atom_site_type_symbol
_atom_type_description
_atom_site_fract_x
_atom_site_fract_y
_atom_site_fract_z
_atom_type_partial_charge
C1    C     C_R   0.544724 0.793969 0.497853 0.961316
C2    C     C_3   0.372974 0.370917 0.024042 -0.218798
C3    C     C_1   0.520045 0.493277 0.750593 -0.171206
C4    C     C_1   0.477492 0.493907 0.249842 -0.184821
C5    C     C_3   0.349167 0.512941 0.966392 0.174765
C6    C     C_3   0.641622 0.444424 0.034613 0.168900
C7    C     C_3   0.514239 0.479699 0.917460 0.162071
C8    C     C_3   0.477046 0.479990 0.083480 0.177224
C9    C     C_1   0.524699 0.486471 0.826057 -0.083296
C10   C     C_1   0.469651 0.487230 0.174563 -0.084492
C11   C     C_3   0.808789 0.400139 0.074475 -0.459464
C12   C     C_R   0.455273 0.206033 0.502116 0.958895
C13   C     C_3   0.786120 0.251961 0.128890 -0.330603
C14   C     C_3   0.957745 0.191741 0.153321 -0.822937
C15   C     C_3   0.183142 0.548553 0.923374 -0.435905
C16   C     C_3   0.116322 0.407409 0.870473 -0.347885
C17   C     C_3   0.949790 0.440418 0.828737 -0.868476
C18   C     C_2   0.011151 0.426321 0.393794 0.706101
C19   C     C_2   0.989435 0.571757 0.606333 0.700452
C20   C     C_R   0.506112 0.499627 0.661732 0.901966
C21   C     C_R   0.493735 0.499561 0.338417 0.900623
C22   C     C_2   0.568348 0.957263 0.496583 -0.364514
C23   C     C_2   0.431643 0.042744 0.503323 -0.361182
C24   C     C_3   0.451175 0.622459 0.027190 -0.229258
C25   C     C_3   0.539209 0.336278 0.973146 -0.227679
C26   C     C_3   0.618321 0.587682 0.977494 -0.249147
H1    H     H_    0.720021 0.675055 0.957429 0.147469
H2    H     H_    0.712826 0.277072 0.188370 0.244037
H3    H     H_    0.715096 0.158155 0.093121 0.215392
H4    H     H_    0.901792 0.378757 0.022190 0.214381
H5    H     H_    0.859132 0.499228 0.114190 0.202849
H6    H     H_    0.849884 0.449297 0.878528 0.265941
H7    H     H_    0.961735 0.551590 0.792882 0.285370
H8    H     H_    0.912291 0.342999 0.784827 0.248833
H9    H     H_    0.209034 0.378247 0.819188 0.240724
H10   H     H_    0.096145 0.302972 0.911679 0.213277
H11   H     H_    0.087788 0.579546 0.973292 0.190122
H12   H     H_    0.272649 0.283496 0.044947 0.135140
H13   H     H_    0.207051 0.651344 0.881253 0.215232
H14   H     H_    0.057439 0.521236 0.352774 0.009373
H15   H     H_    0.938311 0.476168 0.645296 0.014464
H16   H     H_    0.412280 0.738501 0.050537 0.137979
H17   H     H_    0.577263 0.220510 0.949001 0.141104
H18   H     H_    0.698114 0.006655 0.490088 0.203769
H19   H     H_    0.301875 0.993353 0.509806 0.204287
H20   H     H_    0.024754 0.146553 0.095751 0.231417
H21   H     H_    0.038096 0.286313 0.183319 0.280829
H22   H     H_    0.937407 0.094570 0.199432 0.267234
N1    N     N_2   0.950320 0.457950 0.477300 -0.190003
N2    N     N_2   0.049680 0.542050 0.522700 -0.187627
O1    O     O_R   0.389250 0.738570 0.505570 -0.604059
O2    O     O_2   0.005653 0.703044 0.636700 -0.614517
O3    O     O_R   0.610750 0.261430 0.494430 -0.606155
O4    O     O_R   0.678390 0.711630 0.491020 -0.625279
O5    O     O_R   0.321610 0.288370 0.508980 -0.623546
O6    O     O_R   0.355460 0.513480 0.630490 -0.619756
O7    O     O_R   0.644540 0.486520 0.369510 -0.625934
O8    O     O_R   0.644600 0.486540 0.615950 -0.651595
O9    O     O_R   0.355400 0.513460 0.384050 -0.649664
O10   O     O_2   0.001362 0.293056 0.365708 -0.618850
Zn1   Zn    Zn3+2 0.306940 0.517990 0.509710 0.970193
Zn2   Zn    Zn3+2 0.693060 0.482010 0.490290 0.964921

loop_
_geom_bond_atom_site_label_1
_geom_bond_atom_site_label_2
_ccdc_geom_bond_type
O8    Zn2   S    
C6    C8    S    
C1    O4    A    
C13   H2    S    
C21   O7    A    
C14   H21   S    
C3    C9    T    
C24   H16   S    
O3    Zn2   S    
C2    H12   S    
C12   O3    A    
O1    Zn1   S    
C20   O6    A    
C19   O2    D    
C25   H17   S    
C5    C24   S    
C11   H5    S    
C1    C22   S    
C14   H20   S    
C3    C20   S    
C13   C14   S    
C16   H10   S    
C4    C21   S    
C1    O1    A    
C12   C23   S    
C15   H13   S    
C26   H1    S    
C6    C26   S    
C7    C26   S    
C17   H7    S    
C23   H19   S    
O5    Zn1   S    
C18   O10   D    
C8    C24   S    
C24   C26   S    
C21   O9    A    
C2    C25   S    
C7    C9    S    
C16   H9    S    
C2    C8    S    
C5    C15   S    
C12   O5    A    
O9    Zn1   S    
C17   H8    S    
C4    C10   T    
C15   C16   S    
C2    C5    S    
C19   N2    S    
C11   C13   S    
C11   H4    S    
C8    C10   S    
N1    N2    D    
C6    C25   S    
C13   H3    S    
C6    C11   S    
C5    C7    S    
C17   H6    S    
C18   H14   S    
C22   C23   D    
C15   H11   S    
C14   H22   S    
N1    Zn2   S    
O4    Zn2   S    
O7    Zn2   S    
O6    Zn1   S    
C20   O8    A    
N2    Zn1   S    
C22   H18   S    
C19   H15   S    
C18   N1    S    
C16   C17   S    
C7    C25   S    
