data_mof_unit_65347.cif
_audit_creation_date              2012-10-26T19:51:58-0400
_audit_creation_method            fapswitch 2.2
_symmetry_space_group_name_H-M    P1
_symmetry_Int_Tables_number       1
_space_group_crystal_system       triclinic
_cell_length_a                    17.076074
_cell_length_b                    18.136283
_cell_length_c                    19.418594
_cell_angle_alpha                 90.57836
_cell_angle_beta                  87.934854
_cell_angle_gamma                 93.630754
_cell_volume                      5997.7180783

loop_
_atom_site_label
_atom_site_type_symbol
_atom_type_description
_atom_site_fract_x
_atom_site_fract_y
_atom_site_fract_z
_atom_type_partial_charge
Br1   Br    Br    0.348241 0.567863 0.085763 -0.478577
Br2   Br    Br    0.648914 0.423533 0.917585 -0.527644
Br3   Br    Br    0.374610 0.849333 0.598784 -0.450143
Br4   Br    Br    0.624524 0.150580 0.400557 -0.461328
Br5   Br    Br    0.373000 0.668622 0.602917 -0.386866
Br6   Br    Br    0.621584 0.331154 0.392560 -0.397589
Br7   Br    Br    0.539948 0.661952 0.710567 -0.495527
Br8   Br    Br    0.637283 0.602866 0.294184 -0.509285
C1    C     C_R   0.500587 0.499687 0.367774 0.628056
C2    C     C_R   0.554959 0.542220 0.253159 0.114607
C3    C     C_R   0.505250 0.499357 0.709298 0.014656
C4    C     C_R   0.499512 0.498292 0.292649 0.052498
C5    C     C_R   0.436809 0.523465 0.966406 -0.110827
C6    C     C_R   0.557421 0.463363 0.036741 -0.106913
C7    C     C_R   0.433968 0.523370 0.038253 0.176321
C8    C     C_R   0.559996 0.462972 0.964967 0.177348
C9    C     C_R   0.494768 0.493255 0.073613 -0.003574
C10   C     C_R   0.499382 0.493362 0.929589 0.001378
C11   C     C_R   0.552687 0.722430 0.457736 -0.011638
C12   C     C_R   0.502677 0.500278 0.632830 0.555482
C13   C     C_R   0.449422 0.277765 0.544250 0.019316
C14   C     C_R   0.555419 0.801033 0.455035 0.189389
C15   C     C_R   0.444876 0.199881 0.545068 0.199678
C16   C     C_R   0.651367 0.509265 0.498738 0.592017
C17   C     C_R   0.349074 0.490841 0.501902 0.587036
C18   C     C_R   0.504252 0.839300 0.499116 0.003949
C19   C     C_R   0.496457 0.160701 0.501937 -0.020014
C20   C     C_R   0.449875 0.798509 0.542072 0.122570
C21   C     C_R   0.549739 0.201332 0.457772 0.108426
C22   C     C_R   0.448598 0.720627 0.541991 0.353257
C23   C     C_R   0.492164 0.429918 0.816626 -0.089792
C24   C     C_R   0.549864 0.279209 0.456676 0.292574
C25   C     C_R   0.478170 0.959307 0.442220 -0.056546
C26   C     C_R   0.522542 0.040775 0.559318 -0.052092
C27   C     C_R   0.473107 0.036345 0.444134 -0.091481
C28   C     C_R   0.527558 0.963663 0.557426 -0.065835
C29   C     C_R   0.495534 0.078023 0.502585 0.074946
C30   C     C_R   0.505221 0.922024 0.498912 0.099289
C31   C     C_R   0.737937 0.514887 0.497530 -0.012805
C32   C     C_R   0.263311 0.484888 0.504835 -0.011114
C33   C     C_R   0.776890 0.450737 0.508628 -0.207997
C34   C     C_R   0.441055 0.450655 0.187866 -0.068940
C35   C     C_R   0.223233 0.531817 0.464309 -0.197214
C36   C     C_R   0.857876 0.451795 0.503499 -0.150561
C37   C     C_R   0.142177 0.524542 0.462855 -0.149001
C38   C     C_R   0.902669 0.517760 0.488332 0.184835
C39   C     C_R   0.098928 0.471580 0.504076 0.175624
C40   C     C_R   0.864799 0.584301 0.480734 0.304784
C41   C     C_R   0.138895 0.426261 0.548566 0.294340
C42   C     C_R   0.781709 0.582744 0.484277 0.284213
C43   C     C_R   0.221772 0.432195 0.547477 0.262658
C44   C     C_R   0.497136 0.430587 0.744539 0.227742
C45   C     C_R   0.501226 0.495353 0.854289 -0.024694
C46   C     C_R   0.443448 0.451033 0.259856 0.228763
C47   C     C_3   0.626064 0.808986 0.350041 0.000665
C48   C     C_3   0.660442 0.867882 0.299961 -0.245414
C49   C     C_3   0.679904 0.834373 0.229467 -0.452084
C50   C     C_3   0.323352 0.139588 0.556530 0.005254
C51   C     C_3   0.266524 0.201743 0.554174 -0.263539
C52   C     C_3   0.187775 0.174050 0.525835 -0.456360
C53   C     C_3   0.966355 0.673975 0.508026 0.009879
C54   C     C_3   0.945980 0.663514 0.585779 -0.311631
C55   C     C_3   0.012746 0.695293 0.629446 -0.455151
C56   C     C_R   0.495776 0.494901 0.148895 -0.017294
C57   C     C_3   0.038435 0.395590 0.633187 0.011414
C58   C     C_3   0.055272 0.470161 0.670914 -0.295472
C59   C     C_3   0.985171 0.489235 0.717167 -0.462085
C60   C     C_3   0.751974 0.704697 0.509531 0.011252
C61   C     C_3   0.714925 0.690195 0.581832 -0.287979
C62   C     C_3   0.723366 0.759405 0.627025 -0.452204
C63   C     C_3   0.258284 0.397472 0.656348 0.000989
C64   C     C_3   0.286270 0.476763 0.677057 -0.272662
C65   C     C_3   0.289956 0.485341 0.755136 -0.460762
C66   C     C_3   0.550886 0.319859 0.717149 0.016181
C67   C     C_R   0.513471 0.562631 0.820448 -0.083241
C68   C     C_3   0.619106 0.341738 0.666273 -0.256231
C69   C     C_3   0.687751 0.293002 0.674182 -0.474457
C70   C     C_3   0.401130 0.334735 0.293978 0.022079
C71   C     C_3   0.353939 0.293348 0.351542 -0.243342
C72   C     C_3   0.366532 0.210824 0.348872 -0.489274
C73   C     C_R   0.552965 0.539895 0.181545 -0.080598
C74   C     C_R   0.516180 0.565476 0.748704 0.127921
Cu1   Cu    Cu3+1 0.500020 0.573360 0.500000 1.042536
Cu2   Cu    Cu3+1 0.499980 0.426640 0.500000 1.006165
H1    H     H_    0.255002 0.572528 0.431690 0.164554
H2    H     H_    0.885222 0.400236 0.510227 0.162979
H3    H     H_    0.481166 0.377974 0.843454 0.145153
H4    H     H_    0.396563 0.416177 0.162384 0.149273
H5    H     H_    0.521964 0.613201 0.850211 0.170422
H6    H     H_    0.595931 0.573357 0.151163 0.163676
H7    H     H_    0.390344 0.547234 0.939113 0.152476
H8    H     H_    0.604602 0.440714 0.063974 0.162837
H9    H     H_    0.571577 0.782730 0.327876 0.151828
H10   H     H_    0.670138 0.767073 0.355788 0.184892
H11   H     H_    0.617417 0.910692 0.293998 0.188923
H12   H     H_    0.744520 0.398668 0.519827 0.171095
H13   H     H_    0.714845 0.894875 0.321043 0.196892
H14   H     H_    0.723883 0.792262 0.234119 0.187142
H15   H     H_    0.704717 0.878469 0.194295 0.163404
H16   H     H_    0.626044 0.808145 0.206866 0.171577
H17   H     H_    0.294318 0.092925 0.586381 0.184348
H18   H     H_    0.335577 0.117533 0.503682 0.119855
H19   H     H_    0.256752 0.224466 0.606939 0.206080
H20   H     H_    0.292068 0.246861 0.520480 0.180729
H21   H     H_    0.196158 0.151971 0.472690 0.146567
H22   H     H_    0.148483 0.220482 0.524369 0.200134
H23   H     H_    0.593233 0.691790 0.426699 0.188936
H24   H     H_    0.159377 0.130007 0.559281 0.157887
H25   H     H_    0.978307 0.734163 0.499450 0.156741
H26   H     H_    0.022410 0.649407 0.493330 0.170689
H27   H     H_    0.892033 0.691657 0.600372 0.149484
H28   H     H_    0.935920 0.604109 0.598518 0.159064
H29   H     H_    0.067334 0.666942 0.616867 0.165044
H30   H     H_    0.996858 0.686847 0.684888 0.159156
H31   H     H_    0.023560 0.755462 0.620122 0.165234
H32   H     H_    0.027274 0.352820 0.673510 0.150829
H33   H     H_    0.982829 0.394819 0.605468 0.163174
H34   H     H_    0.411239 0.307516 0.578718 0.197357
H35   H     H_    0.107096 0.467176 0.703273 0.150196
H36   H     H_    0.067197 0.515988 0.633855 0.165801
H37   H     H_    0.932392 0.493692 0.686000 0.148825
H38   H     H_    0.998394 0.543083 0.743330 0.161693
H39   H     H_    0.972649 0.446148 0.756999 0.164241
H40   H     H_    0.721932 0.750714 0.486801 0.170216
H41   H     H_    0.813818 0.725752 0.512606 0.173626
H42   H     H_    0.651517 0.674046 0.577943 0.231305
H43   H     H_    0.743784 0.644820 0.606919 0.144864
H44   H     H_    0.786178 0.778412 0.630867 0.139587
H45   H     H_    0.459899 0.928568 0.396828 0.122515
H46   H     H_    0.698950 0.747028 0.679665 0.206624
H47   H     H_    0.690810 0.804349 0.605178 0.168396
H48   H     H_    0.296824 0.358933 0.680798 0.172957
H49   H     H_    0.198454 0.382799 0.677705 0.168932
H50   H     H_    0.345289 0.490349 0.653428 0.201082
H51   H     H_    0.245606 0.516880 0.658129 0.162313
H52   H     H_    0.230411 0.475755 0.779542 0.148466
H53   H     H_    0.313127 0.542168 0.768186 0.188218
H54   H     H_    0.329340 0.445414 0.776192 0.160694
H55   H     H_    0.530308 0.261757 0.706031 0.166335
H56   H     H_    0.540880 0.071567 0.604656 0.130077
H57   H     H_    0.571878 0.320496 0.770816 0.150789
H58   H     H_    0.598891 0.335869 0.612708 0.204512
H59   H     H_    0.639826 0.400266 0.675158 0.164978
H60   H     H_    0.710314 0.298594 0.727044 0.174859
H61   H     H_    0.735901 0.310214 0.636654 0.150506
H62   H     H_    0.669010 0.234244 0.663997 0.158537
H63   H     H_    0.464556 0.325392 0.299854 0.172497
H64   H     H_    0.382133 0.312112 0.243337 0.133787
H65   H     H_    0.372222 0.315942 0.402294 0.200569
H66   H     H_    0.290429 0.301555 0.346628 0.183750
H67   H     H_    0.452323 0.063751 0.399634 0.120176
H68   H     H_    0.346438 0.186503 0.299343 0.163115
H69   H     H_    0.332311 0.182705 0.391763 0.135490
H70   H     H_    0.429594 0.201271 0.354179 0.171047
H71   H     H_    0.548235 0.936193 0.601938 0.137226
H72   H     H_    0.113392 0.560103 0.428612 0.170437
N1    N     N_2   0.985654 0.519804 0.481375 -0.239506
N2    N     N_2   0.015821 0.464346 0.503433 -0.244944
N3    N     N_R   0.500010 0.683620 0.500020 -0.273289
N4    N     N_R   0.499990 0.316380 0.499980 -0.297980
O1    O     O_R   0.500030 0.561980 0.400180 -0.487978
O2    O     O_3   0.392455 0.163184 0.590816 -0.566051
O3    O     O_3   0.906344 0.650029 0.462075 -0.549034
O4    O     O_3   0.100627 0.371362 0.589366 -0.569809
O5    O     O_3   0.742223 0.643348 0.464007 -0.518098
O6    O     O_3   0.263937 0.383833 0.584349 -0.571013
O7    O     O_3   0.486507 0.364318 0.708669 -0.565099
O8    O     O_3   0.386854 0.410527 0.298907 -0.560699
O9    O     O_R   0.499970 0.438020 0.599820 -0.483292
O10   O     O_R   0.500000 0.438070 0.400190 -0.456974
O11   O     O_R   0.500000 0.561930 0.599810 -0.444884
O12   O     O_R   0.613940 0.568730 0.499360 -0.475747
O13   O     O_R   0.386060 0.431270 0.500640 -0.483457
O14   O     O_R   0.613910 0.444830 0.499370 -0.489936
O15   O     O_R   0.386090 0.555170 0.500630 -0.478842
O16   O     O_3   0.610487 0.842692 0.414595 -0.573352

loop_
_geom_bond_atom_site_label_1
_geom_bond_atom_site_label_2
_ccdc_geom_bond_type
C48   H11   S    
Br6   C24   S    
C47   C48   S    
N1    N2    D    
Cu1   O15   S    
C19   C21   A    
C26   C29   A    
C23   C44   A    
C47   H9    S    
C16   O14   A    
C60   H40   S    
Cu2   N4    S    
C72   H69   S    
C39   C41   A    
C40   O3    S    
C57   H32   S    
C54   C55   S    
C66   C68   S    
C5    C10   A    
C51   H20   S    
Br3   C20   S    
C27   C29   A    
C21   C24   A    
Cu2   O10   S    
C17   C32   S    
C36   H2    S    
C33   H12   S    
C65   H54   S    
C25   H45   S    
C49   H15   S    
C62   H46   S    
C16   C31   S    
C48   C49   S    
C72   H68   S    
C26   H56   S    
C41   O4    S    
C3    C44   A    
C10   C45   S    
C63   H48   S    
C55   H30   S    
C32   C35   A    
C54   H27   S    
C60   C61   S    
C41   C43   A    
C63   O6    S    
Cu1   O11   S    
C50   H18   S    
C15   C19   A    
Br2   C8    S    
Br4   C21   S    
C52   H24   S    
C70   H64   S    
C71   H65   S    
C15   O2    S    
C55   H31   S    
C60   O5    S    
C53   C54   S    
C40   C42   A    
C58   C59   S    
Cu1   O1    S    
C53   H25   S    
C51   C52   S    
C58   H36   S    
C5    H7    S    
C6    C9    A    
C1    O10   A    
C45   C67   A    
C27   H67   S    
C48   H13   S    
C47   H10   S    
Cu2   O14   S    
C53   H26   S    
C59   H37   S    
C66   O7    S    
C36   C38   A    
C37   C39   A    
C3    C74   A    
C22   N3    A    
C47   O16   S    
C38   C40   A    
C3    C12   S    
C23   H3    S    
C35   H1    S    
C11   C14   A    
C68   C69   S    
C31   C33   A    
Cu2   O9    S    
C37   H72   S    
C70   C71   S    
C18   C30   S    
C64   H51   S    
C50   C51   S    
C38   N1    S    
C13   H34   S    
C17   O15   A    
C64   H50   S    
Cu1   Cu2   S    
C65   H52   S    
Cu1   O12   S    
C12   O11   A    
C42   O5    S    
Cu1   N3    S    
C50   H17   S    
C23   C45   A    
C1    O1    A    
C35   C37   A    
C6    H8    S    
C2    C4    A    
C70   H63   S    
C71   H66   S    
Br1   C7    S    
C73   H6    S    
Br8   C2    S    
C66   H57   S    
C61   H42   S    
C58   H35   S    
C13   C15   A    
C13   N4    A    
C6    C8    A    
C34   H4    S    
Br7   C74   S    
Cu2   O13   S    
C50   O2    S    
C59   H38   S    
C34   C56   A    
C52   H22   S    
Br5   C22   S    
C62   H44   S    
C7    C9    A    
C53   O3    S    
C70   O8    S    
C46   O8    S    
C64   C65   S    
C59   H39   S    
C63   H49   S    
C14   O16   S    
C67   C74   A    
C72   H70   S    
C32   C43   A    
C66   H55   S    
C2    C73   A    
C18   C20   A    
C25   C30   A    
C51   H19   S    
C5    C7    A    
C69   H60   S    
C11   N3    A    
C63   C64   S    
C44   O7    S    
C34   C46   A    
C28   C30   A    
C49   H16   S    
C69   H61   S    
C65   H53   S    
C19   C29   S    
C33   C36   A    
C49   H14   S    
C60   H41   S    
C57   O4    S    
C20   C22   A    
C62   H47   S    
C25   C27   A    
C12   O9    A    
C26   C28   A    
C61   C62   S    
C16   O12   A    
C1    C4    S    
C56   C73   A    
C67   H5    S    
C71   C72   S    
C55   H29   S    
C68   H59   S    
C17   O13   A    
C31   C42   A    
C54   H28   S    
C61   H43   S    
C8    C10   A    
C57   C58   S    
C14   C18   A    
C57   H33   S    
C43   O6    S    
C9    C56   S    
C69   H62   S    
C4    C46   A    
C52   H21   S    
C28   H71   S    
C11   H23   S    
C24   N4    A    
C39   N2    S    
C68   H58   S    
