data_mof_unit_46824.cif
_audit_creation_date              2012-12-10T20:43:19-0500
_audit_creation_method            fapswitch 2.2
_symmetry_space_group_name_H-M    P1
_symmetry_Int_Tables_number       1
_space_group_crystal_system       triclinic
_cell_length_a                    15.761716
_cell_length_b                    10.706796
_cell_length_c                    9.904168
_cell_angle_alpha                 89.893267
_cell_angle_beta                  88.96266
_cell_angle_gamma                 90.752005
_cell_volume                      1670.98085971

loop_
_atom_site_label
_atom_site_type_symbol
_atom_type_description
_atom_site_fract_x
_atom_site_fract_y
_atom_site_fract_z
_atom_type_partial_charge
C1    C     C_R   0.496249 0.260611 0.500503 0.932600
C2    C     C_R   0.043293 0.519318 0.614618 -0.242165
C3    C     C_1   0.822716 0.464723 0.509143 0.094451
C4    C     C_1   0.175873 0.469670 0.508290 0.062262
C5    C     C_1   0.250655 0.484578 0.504427 -0.099168
C6    C     C_1   0.748641 0.480726 0.500516 -0.091703
C7    C     C_R   0.547413 0.066181 0.585614 -0.055940
C8    C     C_R   0.492232 0.128551 0.501179 -0.105011
C9    C     C_R   0.442312 0.061521 0.407712 -0.014254
C10   C     C_R   0.449033 0.932139 0.404522 -0.266657
C11   C     C_R   0.500074 0.871370 0.497416 -0.038820
C12   C     C_R   0.339215 0.498739 0.501149 0.916329
C13   C     C_R   0.551197 0.939365 0.583956 0.067834
C14   C     C_3   0.567850 0.927432 0.732384 0.262681
C15   C     C_3   0.562167 0.072705 0.735925 -0.284751
C16   C     C_R   0.425976 0.506981 0.072843 0.097220
C17   C     C_R   0.574094 0.511153 0.068771 0.497346
C18   C     C_R   0.573771 0.505493 0.925150 -0.185901
C19   C     C_R   0.425991 0.508907 0.931046 0.203618
C20   C     C_3   0.350627 0.423928 0.926092 -0.476311
C21   C     C_3   0.351878 0.419457 0.079551 -0.412727
C22   C     C_R   0.500238 0.739545 0.499781 0.910166
C23   C     C_R   0.660674 0.497628 0.499340 0.940919
C24   C     C_R   0.955105 0.515648 0.622441 -0.070849
C25   C     C_R   0.911271 0.449333 0.522116 -0.046556
C26   C     C_R   0.954342 0.378764 0.423597 0.426871
C27   C     C_R   0.043506 0.377588 0.421088 -0.141576
C28   C     C_R   0.086661 0.454196 0.513702 -0.011562
H1    H     H_    0.078815 0.573384 0.687550 0.193020
H2    H     H_    0.633325 0.508437 0.869339 0.190250
H3    H     H_    0.294135 0.472021 0.886481 0.202376
H4    H     H_    0.364804 0.333610 0.876887 0.234302
H5    H     H_    0.295476 0.463164 0.127777 0.236946
H6    H     H_    0.368822 0.326512 0.120019 0.246371
H7    H     H_    0.408880 0.877883 0.338385 0.180621
N1    N     N_R   0.499440 0.499140 0.142800 -0.139404
N2    N     N_R   0.499440 0.499180 0.857150 -0.113814
O1    O     O_R   0.500010 0.316790 0.614690 -0.617189
O2    O     O_R   0.500000 0.316760 0.385350 -0.596179
O3    O     O_R   0.378030 0.499990 0.614640 -0.630555
O4    O     O_R   0.378020 0.499950 0.385300 -0.592171
O5    O     O_R   0.500000 0.683240 0.614650 -0.558155
O6    O     O_R   0.499990 0.683210 0.385310 -0.660027
O7    O     O_R   0.621980 0.500050 0.614700 -0.592494
O8    O     O_R   0.621970 0.500010 0.385360 -0.569711
Zn1   Zn    Zn3+2 0.500010 0.500020 0.653130 1.013662
Zn2   Zn    Zn3+2 0.499990 0.499980 0.346870 1.009405
C29   C     C_2   0.643989 0.142145 0.769158 0.939253
O9    O     O_2   0.684696 0.197846 0.680950 -0.608513
O10   O     O_R   0.671935 0.144066 0.902340 -0.738351
H8    H     H_    0.726484 0.194068 0.912482 0.353195
O11   O     O_3   0.650401 0.528599 0.132534 -0.596492
C30   C     C_3   0.673591 0.656332 0.121101 0.071838
H9    H     H_    0.627223 0.715342 0.177304 0.162711
H10   H     H_    0.677605 0.686612 0.013671 0.152324
C31   C     C_3   0.760940 0.678568 0.179370 -0.739975
H11   H     H_    0.809120 0.628525 0.117897 0.236070
H12   H     H_    0.776651 0.779960 0.176526 0.242796
H13   H     H_    0.762469 0.646035 0.285500 0.241843
C32   C     C_2   0.910845 0.582835 0.734571 0.916519
O12   O     O_2   0.946306 0.670047 0.791063 -0.611147
O13   O     O_R   0.829760 0.544517 0.778578 -0.817081
H14   H     H_    0.807029 0.597032 0.855878 0.338656
O14   O     O_3   0.908247 0.311632 0.329764 -0.561700
C33   C     C_3   0.902138 0.383606 0.210625 0.083336
H15   H     H_    0.962266 0.378862 0.150408 0.160241
H16   H     H_    0.888400 0.483408 0.232612 0.119877
C34   C     C_3   0.830383 0.331466 0.125981 -0.678555
H17   H     H_    0.769433 0.335816 0.183838 0.282902
H18   H     H_    0.824929 0.387204 0.031921 0.219715
H19   H     H_    0.843200 0.232804 0.098787 0.263897
C35   C     C_2   0.089720 0.298020 0.321506 0.946001
O15   O     O_2   0.059828 0.196628 0.289169 -0.560275
O16   O     O_R   0.166667 0.338869 0.263420 -0.808628
H20   H     H_    0.190904 0.276663 0.196524 0.344466
C36   C     C_2   0.376261 0.120281 0.324256 0.935152
O17   O     O_2   0.339415 0.213256 0.364437 -0.630658
O18   O     O_R   0.353246 0.065400 0.202126 -0.823879
H21   H     H_    0.306264 0.111755 0.155703 0.334963
O19   O     O_3   0.498421 0.863843 0.796793 -0.579070
C37   C     C_3   0.508908 0.851768 0.937451 0.119022
H22   H     H_    0.541119 0.934231 0.983217 0.182964
H23   H     H_    0.546132 0.767137 0.957583 0.113852
C38   C     C_3   0.422147 0.835107 0.004833 -0.725023
H24   H     H_    0.386132 0.758659 0.955542 0.244001
H25   H     H_    0.429610 0.811738 0.113018 0.204686
H26   H     H_    0.385591 0.922345 0.995738 0.293584
C39   C     C_2   0.654044 0.867932 0.753208 0.838780
O20   O     O_2   0.691965 0.885269 0.858240 -0.634439
O21   O     O_R   0.689484 0.791944 0.652775 -0.814006
H27   H     H_    0.746762 0.758132 0.678376 0.359756
C40   C     C_2   0.485309 0.120404 0.814860 0.984742
O22   O     O_2   0.494661 0.187045 0.913820 -0.629017
O23   O     O_R   0.403511 0.084959 0.775986 -0.762959
H28   H     H_    0.357689 0.116977 0.839548 0.327026

loop_
_geom_bond_atom_site_label_1
_geom_bond_atom_site_label_2
_ccdc_geom_bond_type
C16   C21   S    
C23   O8    A    
C1    C8    S    
C19   C20   S    
C38   H26   S    
C3    C6    T    
C37   H22   S    
C7    C8    A    
C30   H9    S    
O3    Zn1   S    
C26   C27   A    
C12   O4    A    
C2    H1    S    
C18   N2    A    
C38   H25   S    
C16   C19   A    
O19   C37   S    
C21   H5    S    
C31   H11   S    
N1    Zn2   S    
C32   O13   S    
O5    Zn1   S    
C26   O14   S    
C19   N2    A    
C37   H23   S    
C15   C40   S    
C34   H17   S    
C8    C9    A    
C33   H16   S    
C10   H7    S    
C18   H2    S    
C17   N1    A    
C14   O19   S    
C9    C10   A    
O8    Zn2   S    
C13   C14   S    
C15   C29   S    
C17   O11   S    
C4    C28   S    
O7    Zn1   S    
O10   H8    S    
C36   O17   D    
C30   H10   S    
O16   H20   S    
C3    C25   S    
C24   C25   A    
C5    C12   S    
C35   O16   S    
O18   H21   S    
C4    C5    T    
C21   H6    S    
C25   C26   A    
C23   O7    A    
C32   O12   D    
C12   O3    A    
O13   H14   S    
C22   O6    A    
C24   C32   S    
C33   C34   S    
C20   C21   S    
C40   O23   S    
C17   C18   A    
O4    Zn2   S    
C38   H24   S    
C1    O1    A    
C29   O9    D    
C9    C36   S    
C39   O21   S    
C2    C24   A    
C37   C38   S    
O11   C30   S    
O2    Zn2   S    
C20   H4    S    
C30   C31   S    
C36   O18   S    
C35   O15   D    
C11   C22   S    
C31   H13   S    
O14   C33   S    
C14   C39   S    
C16   N1    A    
C11   C13   A    
O21   H27   S    
C22   O5    A    
C34   H19   S    
C6    C23   S    
C7    C15   S    
C29   O10   S    
C40   O22   D    
C31   H12   S    
O23   H28   S    
O1    Zn1   S    
C10   C11   A    
C1    O2    A    
C7    C13   A    
C39   O20   D    
C34   H18   S    
C33   H15   S    
C27   C28   A    
C14   C15   S    
C2    C28   A    
N2    Zn1   S    
O6    Zn2   S    
C27   C35   S    
C20   H3    S    
