data_mof_unit_23826.cif
_audit_creation_date              2013-03-05T15:58:17-0500
_audit_creation_method            fapswitch 2.2
_symmetry_space_group_name_H-M    P1
_symmetry_Int_Tables_number       1
_space_group_crystal_system       triclinic
_cell_length_a                    14.817684
_cell_length_b                    14.875153
_cell_length_c                    15.107249
_cell_angle_alpha                 110.205886
_cell_angle_beta                  109.114027
_cell_angle_gamma                 108.427727
_cell_volume                      2583.71237309

loop_
_atom_site_label
_atom_site_type_symbol
_atom_site_description
_atom_site_fract_x
_atom_site_fract_y
_atom_site_fract_z
_atom_type_partial_charge
C1    C     C_R   0.917488 0.199739 0.003788 -0.168935
C2    C     C_R   0.017641 0.740471 0.929205 -0.143879
H1    H     H_    0.859943 0.172010 0.029930 0.097176
H2    H     H_    0.051501 0.751153 0.878637 0.098910
N1    N     N_R   0.947560 0.293820 0.002910 -0.038720
N2    N     N_R   0.052440 0.706180 0.997090 -0.042554
C3    C     C_R   0.297443 0.802399 0.205839 -0.155842
C4    C     C_R   0.684832 0.242869 0.776498 -0.142151
H3    H     H_    0.351274 0.829371 0.175478 0.135225
H4    H     H_    0.618948 0.222012 0.794737 0.117604
N3    N     N_R   0.208960 0.706170 0.152110 -0.040980
N4    N     N_R   0.791040 0.293830 0.847890 -0.047270
C5    C     C_R   0.224791 0.406948 0.973842 -0.144310
C6    C     C_R   0.789333 0.589637 0.098659 -0.138482
H5    H     H_    0.205765 0.322230 0.939272 0.120627
H6    H     H_    0.816390 0.673400 0.155540 0.118990
N5    N     N_R   0.154330 0.443160 0.946140 -0.039001
N6    N     N_R   0.845670 0.556840 0.053860 -0.041103
C7    C     C_R   0.058442 0.590297 0.313892 -0.125036
C8    C     C_R   0.005873 0.408623 0.702397 -0.157855
H7    H     H_    0.103661 0.674265 0.379144 0.129707
H8    H     H_    0.985669 0.325052 0.652673 0.095240
N7    N     N_R   0.002190 0.556820 0.208880 -0.042077
N8    N     N_R   0.997810 0.443180 0.791120 -0.036995
C9    C     C_R   0.315460 0.590438 0.065215 -0.152781
C10   C     C_R   0.700816 0.407772 0.006569 -0.129125
H9    H     H_    0.379244 0.674719 0.115747 0.124636
H10   H     H_    0.647663 0.323151 0.978451 0.092974
N9    N     N_R   0.210550 0.556810 0.002910 -0.038679
N10   N     N_R   0.789450 0.443190 0.997090 -0.037379
C11   C     C_R   0.977357 0.407290 0.218733 -0.103898
C12   C     C_R   0.087133 0.590479 0.787696 -0.141367
H11   H     H_    0.952913 0.323048 0.195764 0.113317
H12   H     H_    0.134590 0.674987 0.812675 0.121113
N11   N     N_R   0.945970 0.443180 0.152110 -0.040763
N12   N     N_R   0.054030 0.556820 0.847890 -0.039084
C13   C     C_R   0.208547 0.803426 0.299764 -0.125109
C14   C     C_R   0.780542 0.253536 0.688313 -0.119508
H13   H     H_    0.181734 0.831080 0.357470 0.136485
H14   H     H_    0.803611 0.248742 0.626962 0.104516
N13   N     N_R   0.151530 0.706170 0.208880 -0.044329
N14   N     N_R   0.848470 0.293830 0.791120 -0.043140
C15   C     C_R   0.005534 0.199193 0.909520 -0.140376
C16   C     C_R   0.925246 0.741978 0.019922 -0.132381
H15   H     H_    0.023979 0.170005 0.845219 0.116925
H16   H     H_    0.870820 0.751078 0.050799 0.124110
N15   N     N_R   0.004980 0.293810 0.946140 -0.039123
N16   N     N_R   0.995020 0.706190 0.053860 -0.042447
C17   C     C_R   0.954835 0.139026 0.947272 0.053307
C18   C     C_R   0.935908 0.762374 0.939213 0.055236
C19   C     C_R   0.299522 0.864296 0.298356 0.057370
C20   C     C_R   0.677223 0.215178 0.675642 0.050729
C21   C     C_R   0.326125 0.497717 0.049261 0.034217
C22   C     C_R   0.701006 0.497533 0.072554 0.023155
C23   C     C_R   0.041402 0.496328 0.321302 0.030546
C24   C     C_R   0.060702 0.498988 0.697334 0.063722
H17   H     H_    0.348023 0.148723 0.861695 0.151417
H18   H     H_    0.499915 0.690793 0.984422 0.135104
C25   C     C_R   0.943658 0.862882 0.841149 -0.240217
C26   C     C_R   0.847557 0.966350 0.934309 -0.229009
C27   C     C_R   0.177848 0.024787 0.764719 0.425904
C28   C     C_R   0.663842 0.822831 0.061550 0.423281
Ni1   Ni    Ni4+2 0.869690 0.369690 0.000000 0.211457
Ni2   Ni    Ni4+2 0.130310 0.630310 0.000000 0.213862
Ni3   Ni    Ni4+2 0.001390 0.369680 0.869810 0.211214
Ni4   Ni    Ni4+2 0.998610 0.630320 0.130190 0.228870
C29   C     C_R   0.079175 0.982240 0.765658 -0.336440
C30   C     C_R   0.753266 0.863831 0.046672 -0.349411
H19   H     H_    0.338169 0.225865 0.029811 0.144323
H20   H     H_    0.487978 0.600344 0.808235 0.132521
H21   H     H_    0.590624 0.120009 0.052518 0.093022
H22   H     H_    0.442510 0.947141 0.996394 0.127193
C31   C     C_R   0.694073 0.285196 0.186065 -0.138830
C32   C     C_R   0.369325 0.772595 0.909748 -0.080572
H23   H     H_    0.638279 0.313729 0.157425 0.108475
H24   H     H_    0.399529 0.768479 0.982723 0.145742
C33   C     C_R   0.794347 0.358466 0.280771 -0.111224
C34   C     C_R   0.306081 0.677067 0.808469 -0.183461
H25   H     H_    0.815790 0.443750 0.323900 0.116961
H26   H     H_    0.292314 0.599260 0.803968 0.120191
C35   C     C_R   0.868172 0.322367 0.317627 0.091222
C36   C     C_R   0.249480 0.681026 0.715965 0.073790
C37   C     C_R   0.838085 0.211041 0.261534 -0.170019
C38   C     C_R   0.269273 0.784068 0.725609 -0.129093
H27   H     H_    0.893782 0.181788 0.289351 0.128986
H28   H     H_    0.226664 0.790123 0.656321 0.176474
C39   C     C_R   0.738137 0.138435 0.165867 -0.050787
C40   C     C_R   0.341403 0.880010 0.825896 -0.127595
H29   H     H_    0.716601 0.053704 0.120263 0.130395
H30   H     H_    0.357076 0.958943 0.833189 0.158639
C41   C     C_R   0.666788 0.175742 0.127637 -0.129618
C42   C     C_R   0.390136 0.873898 0.918037 -0.141340
C43   C     C_R   0.993281 0.402337 0.507255 -0.241765
C44   C     C_R   0.151824 0.572289 0.515525 -0.249706
H31   H     H_    0.927764 0.337879 0.501986 0.130418
H32   H     H_    0.213413 0.636620 0.516610 0.127018
C45   C     C_R   0.077826 0.493039 0.606967 0.066709
C46   C     C_R   0.059075 0.488110 0.417216 0.081241
C47   C     C_R   0.160842 0.579122 0.612713 0.038943
C48   C     C_R   0.978226 0.402253 0.413167 0.018354
H33   H     H_    0.007140 0.911613 0.693192 0.165370
H34   H     H_    0.826503 0.939498 0.111614 0.156290
H35   H     H_    0.470983 0.432783 0.198776 0.112911
H36   H     H_    0.564020 0.547766 0.960064 0.138799
H37   H     H_    0.167985 0.147152 0.032226 0.128221
H38   H     H_    0.645103 0.674909 0.781953 0.117541
C49   C     C_R   0.074148 0.026772 0.861402 0.068444
C50   C     C_R   0.747064 0.810488 0.946310 0.081189
C51   C     C_R   0.266080 0.159078 0.955407 -0.189658
C52   C     C_R   0.562217 0.673946 0.874569 -0.182061
H39   H     H_    0.011851 0.066149 0.325777 0.135105
H40   H     H_    0.950917 0.007881 0.593379 0.143547
C53   C     C_R   0.139666 0.065131 0.288000 -0.174907
C54   C     C_R   0.810984 0.977264 0.617207 -0.170410
H41   H     H_    0.100616 0.065210 0.213562 0.120494
H42   H     H_    0.835069 0.943407 0.667960 0.132592
C55   C     C_R   0.240982 0.066782 0.321415 0.052733
C56   C     C_R   0.714079 0.983562 0.593083 0.046829
C57   C     C_R   0.289742 0.065637 0.418692 0.017338
C58   C     C_R   0.683710 0.027729 0.526422 0.026821
C59   C     C_R   0.240206 0.071687 0.483762 -0.140268
C60   C     C_R   0.747081 0.057700 0.479385 -0.102336
H43   H     H_    0.278790 0.075571 0.560051 0.192324
H44   H     H_    0.723505 0.089470 0.426185 0.149218
C61   C     C_R   0.140361 0.071470 0.450287 -0.066844
C62   C     C_R   0.843829 0.051941 0.504888 -0.054007
H45   H     H_    0.102252 0.074602 0.500616 0.129108
H46   H     H_    0.894160 0.078573 0.471261 0.134888
C63   C     C_R   0.089420 0.066655 0.351802 -0.122157
C64   C     C_R   0.876111 0.012522 0.574268 -0.140611
C65   C     C_R   0.485109 0.138147 0.547710 -0.251519
C66   C     C_R   0.491740 0.960066 0.411096 -0.204821
H47   H     H_    0.484377 0.208567 0.601021 0.131144
H48   H     H_    0.493815 0.888969 0.360571 0.147202
C67   C     C_R   0.581803 0.131633 0.573846 0.078233
C68   C     C_R   0.394363 0.963675 0.386798 0.080898
C69   C     C_R   0.585668 0.042501 0.503757 0.026534
C70   C     C_R   0.390167 0.054772 0.451791 0.049335
C71   C     C_R   0.271083 0.114563 0.860348 -0.270880
C72   C     C_R   0.568519 0.727282 0.974503 -0.241424
C73   C     C_R   0.831622 0.865877 0.925210 0.058225
C74   C     C_R   0.975395 0.970935 0.866685 0.040005
H49   H     H_    0.979018 0.821907 0.801281 0.132325
H50   H     H_    0.800519 0.999902 0.961079 0.122655
C75   C     C_R   0.168825 0.114667 0.956497 -0.121835
C76   C     C_R   0.651678 0.714869 0.860576 -0.115952
C77   C     C_R   0.891785 0.820279 0.890883 0.046843
C78   C     C_R   0.926736 0.024734 0.915567 0.047529
C79   C     C_3   0.504451 0.392538 0.049467 -0.172200
C80   C     C_3   0.534457 0.596647 0.113376 -0.165776
C81   C     C_3   0.438317 0.426712 0.978961 -0.137795
C82   C     C_3   0.600923 0.562443 0.184206 -0.133750
H51   H     H_    0.371135 0.370982 0.893918 0.115756
H52   H     H_    0.670118 0.617707 0.268219 0.126365
H53   H     H_    0.496808 0.309966 0.023693 0.094839
H54   H     H_    0.548327 0.681415 0.143685 0.167376
C83   C     C_3   0.429274 0.495561 0.074943 0.178993
C84   C     C_3   0.608304 0.494267 0.087060 0.178054
C85   C     C_3   0.493626 0.460613 0.146096 -0.163688
C86   C     C_3   0.542480 0.527653 0.016679 -0.157371
N17   N     N_R   0.184610 0.974067 0.668814 0.206119
O1    O     O_R   0.279201 0.994461 0.674847 -0.489403
O2    O     O_R   0.096577 0.901134 0.576330 -0.456610
N18   N     N_R   0.669251 0.879783 0.163366 0.216346
O3    O     O_R   0.580604 0.867529 0.168696 -0.485393
O4    O     O_R   0.763266 0.950537 0.250239 -0.466869
C87   C     C_R   0.296652 0.075826 0.256864 0.108625
C88   C     C_R   0.241151 0.002680 0.145110 -0.171568
C89   C     C_R   0.292375 0.012585 0.083506 -0.097321
C90   C     C_R   0.398573 0.097498 0.132752 -0.085166
C91   C     C_R   0.454542 0.170964 0.243884 -0.105454
C92   C     C_R   0.403936 0.160339 0.305900 -0.143221
H55   H     H_    0.158249 0.938585 0.106209 0.135464
H56   H     H_    0.248855 0.955957 0.997221 0.126218
H57   H     H_    0.436748 0.107748 0.084509 0.094932
H58   H     H_    0.536630 0.236928 0.281736 0.119181
H59   H     H_    0.447569 0.219264 0.391604 0.114087
C93   C     C_R   0.643195 0.937566 0.632843 0.115595
C94   C     C_R   0.552578 0.832207 0.563983 -0.129732
C95   C     C_R   0.489938 0.785019 0.603635 -0.123123
C96   C     C_R   0.517196 0.842983 0.711851 -0.057811
C97   C     C_R   0.605452 0.949072 0.779915 -0.099185
C98   C     C_R   0.668937 0.995927 0.740763 -0.150080
H60   H     H_    0.531919 0.785990 0.480452 0.111445
H61   H     H_    0.421125 0.703079 0.550879 0.109856
H62   H     H_    0.470552 0.805388 0.743154 0.135173
H63   H     H_    0.625650 0.994252 0.863399 0.100095
H64   H     H_    0.738457 0.077009 0.794376 0.132200

loop_
_geom_bond_atom_site_label_1
_geom_bond_atom_site_label_2
_geom_bond_distance
_ccdc_geom_bond_type
C92   H59   1.082681 S    
C18   C77   1.476592 S    
C37   C39   1.399042 A    
C91   C92   1.397326 A    
C80   C83   1.532938 S    
C39   C41   1.397036 A    
C31   H23   1.079477 S    
C89   C90   1.397390 A    
C6    N6    1.338775 A    
C2    H2    1.070069 S    
C8    C24   1.376248 A    
H35   C85   1.109959 S    
N17   O1    1.301264 A    
N18   O4    1.300900 A    
C96   C97   1.396995 A    
C3    N3    1.319373 A    
N1    N15   1.391880 A    
N1    Ni1   1.852386 S    
N8    N12   1.388288 A    
C32   H24   1.077151 S    
C1    N1    1.334059 A    
C81   C83   1.535429 S    
N7    Ni4   1.872056 S    
N18   O3    1.301190 A    
C7    H7    1.080997 S    
C30   H34   1.083875 S    
C14   N14   1.317694 A    
C65   C67   1.400652 A    
C79   C81   1.535788 S    
C13   C19   1.377651 A    
C49   C75   1.401561 A    
C34   H26   1.083086 S    
C14   C20   1.373463 A    
C90   C91   1.395876 A    
C44   C46   1.397538 A    
N13   Ni4   1.874478 S    
C32   C42   1.389997 A    
N5    N9    1.388412 A    
H17   C71   1.081581 S    
C3    H3    1.082583 S    
C36   C47   1.490696 S    
N2    Ni2   1.852385 S    
C27   C29   1.404734 A    
C97   C98   1.398279 A    
C27   N17   1.437427 S    
N4    N14   1.392005 A    
H20   C52   1.082475 S    
C35   C37   1.405567 A    
H19   C51   1.078340 S    
H39   C63   1.082704 S    
C28   N18   1.437443 S    
C40   C42   1.392121 A    
C25   C74   1.388664 A    
C16   H16   1.076153 S    
N14   Ni3   1.874475 S    
N5    Ni3   1.874048 S    
C89   H56   1.082662 S    
C11   H11   1.073428 S    
N6    N10   1.388411 A    
C6    H6    1.081935 S    
C2    C18   1.389632 A    
C79   C84   1.530443 S    
C4    C20   1.388704 A    
C5    C21   1.382379 A    
C93   C98   1.401050 A    
C20   C67   1.432985 S    
C4    N4    1.335656 A    
C97   H63   1.082594 S    
N12   Ni2   1.880355 S    
C33   H25   1.083267 S    
N9    Ni2   1.852500 S    
C25   H49   1.078790 S    
C83   C85   1.537239 S    
C80   H54   1.103430 S    
N10   Ni1   1.852497 S    
C9    C21   1.385085 A    
C84   C86   1.523255 S    
C54   C64   1.397191 A    
C2    N2    1.326341 A    
C24   C45   1.446921 S    
H36   C86   1.103672 S    
C10   C22   1.361198 A    
C50   C73   1.463107 S    
N17   O2    1.302043 A    
C58   C60   1.405927 A    
C93   C94   1.403529 A    
C50   C76   1.398527 A    
C90   H57   1.080116 S    
C57   C59   1.402275 A    
C9    N9    1.333279 A    
C88   H55   1.078472 S    
C82   C84   1.530170 S    
C8    N8    1.320161 A    
C31   C41   1.396724 A    
C68   C70   1.406528 A    
N3    Ni2   1.880322 S    
C45   C47   1.420496 A    
C62   C64   1.394554 A    
C87   C88   1.402349 A    
N4    Ni1   1.880323 S    
C27   C71   1.404602 A    
C66   C69   1.363680 A    
C17   C78   1.467139 S    
C1    H1    1.078838 S    
C12   H12   1.075536 S    
C60   C62   1.396300 A    
C7    N7    1.336190 A    
C59   C61   1.396589 A    
C74   C78   1.418052 A    
C26   C73   1.386371 A    
C22   C84   1.448978 S    
C79   C85   1.554679 S    
C19   C68   1.427563 S    
C34   C36   1.407245 A    
C33   C35   1.404996 A    
C66   C68   1.391151 A    
H37   C75   1.083399 S    
C49   C74   1.480324 S    
C44   H32   1.084486 S    
C15   H15   1.079071 S    
C43   C48   1.364229 A    
C54   C56   1.403331 A    
N2    N16   1.391881 A    
N8    Ni3   1.872058 S    
C53   C55   1.407505 A    
C56   C93   1.474750 S    
C4    H4    1.081185 S    
C88   C89   1.396631 A    
C37   H27   1.083183 S    
C82   H52   1.109991 S    
C10   N10   1.326949 A    
C36   C38   1.410729 A    
C5    H5    1.079177 S    
C80   C82   1.541604 S    
C9    H9    1.079365 S    
C8    H8    1.082428 S    
C60   H44   1.083592 S    
C43   C45   1.396603 A    
C95   C96   1.397477 A    
C29   H33   1.082973 S    
C35   C48   1.484349 S    
C94   H60   1.083276 S    
C80   C86   1.535130 S    
H18   C72   1.075882 S    
C67   C69   1.414313 A    
C62   H46   1.082402 S    
C6    C22   1.378637 A    
C57   C70   1.486968 S    
C21   C83   1.462501 S    
C15   C17   1.377969 A    
C38   C40   1.398590 A    
C40   H30   1.079894 S    
C65   H47   1.084503 S    
C54   H42   1.081703 S    
C96   H62   1.080021 S    
C12   N12   1.330265 A    
C87   C92   1.406521 A    
C51   C75   1.390917 A    
C7    C23   1.390549 A    
N6    Ni4   1.874046 S    
C26   C78   1.397913 A    
C91   H58   1.082423 S    
C10   H10   1.081649 S    
H38   C76   1.083290 S    
C5    N5    1.334364 A    
C51   C71   1.396465 A    
C28   C72   1.402760 A    
C81   C86   1.526201 S    
C11   C23   1.371307 A    
C55   C57   1.418342 A    
C79   H53   1.107195 S    
C3    C19   1.366425 A    
C13   H13   1.081420 S    
C65   C70   1.391947 A    
C52   C76   1.390954 A    
C98   H64   1.079413 S    
C26   H50   1.078692 S    
C14   H14   1.076188 S    
C29   C49   1.405831 A    
C43   H31   1.084592 S    
C82   C85   1.558588 S    
C15   N15   1.326431 A    
C44   C47   1.394187 A    
C55   C87   1.482168 S    
H22   C42   1.078642 S    
C23   C46   1.441241 S    
C52   C72   1.396734 A    
N15   Ni3   1.871637 S    
N3    N13   1.392003 A    
C11   N11   1.317550 A    
C28   C30   1.398955 A    
C81   H51   1.110755 S    
C13   N13   1.336910 A    
N7    N11   1.388290 A    
C56   C58   1.412611 A    
C59   H43   1.077081 S    
C46   C48   1.414485 A    
C95   H61   1.082380 S    
C73   C77   1.402065 A    
C94   C95   1.398472 A    
C61   C63   1.394729 A    
H21   C41   1.081044 S    
C16   C18   1.398232 A    
C66   H48   1.086427 S    
C32   C34   1.398439 A    
C61   H45   1.082822 S    
C39   H29   1.080259 S    
C31   C33   1.396203 A    
C38   H28   1.081986 S    
N11   Ni1   1.880353 S    
C58   C69   1.484610 S    
C30   C50   1.403032 A    
N16   Ni4   1.871637 S    
H40   C64   1.081370 S    
C53   C63   1.396230 A    
C1    C17   1.394113 A    
C12   C24   1.377900 A    
C16   N16   1.343332 A    
C53   H41   1.083804 S    
C25   C77   1.398608 A    
