data_mof_unit_64029.cif
_audit_creation_date              2012-12-10T19:42:22-0500
_audit_creation_method            fapswitch 2.2
_symmetry_space_group_name_H-M    P1
_symmetry_Int_Tables_number       1
_space_group_crystal_system       triclinic
_cell_length_a                    23.297546
_cell_length_b                    22.460721
_cell_length_c                    27.631475
_cell_angle_alpha                 89.050415
_cell_angle_beta                  90.200259
_cell_angle_gamma                 90.000667
_cell_volume                      14456.9153632

loop_
_atom_site_label
_atom_site_type_symbol
_atom_type_description
_atom_site_fract_x
_atom_site_fract_y
_atom_site_fract_z
_atom_type_partial_charge
C1    C     C_R   0.389076 0.499962 0.500526 0.924216
C2    C     C_R   0.568271 0.422055 0.897939 -0.093059
C3    C     C_R   0.556583 0.478330 0.125964 -0.173932
C4    C     C_R   0.444790 0.523278 0.874038 -0.175749
C5    C     C_R   0.506672 0.502108 0.353335 -0.236170
C6    C     C_R   0.493720 0.498092 0.646662 -0.237619
C7    C     C_R   0.451919 0.526549 0.976171 -0.082854
C8    C     C_R   0.549601 0.475312 0.023829 -0.083070
C9    C     C_R   0.540120 0.466317 0.973873 0.102275
C10   C     C_R   0.461403 0.535535 0.026129 0.102361
C11   C     C_R   0.493880 0.495556 0.949761 0.072431
C12   C     C_R   0.610934 0.499977 0.500379 0.921409
C13   C     C_R   0.507616 0.506257 0.050239 0.072214
C14   C     C_R   0.400438 0.543783 0.951912 0.074347
C15   C     C_R   0.601070 0.458072 0.048100 0.075057
C16   C     C_R   0.501746 0.500561 0.405885 0.955335
C17   C     C_R   0.498319 0.499465 0.594110 0.976415
C18   C     C_R   0.399108 0.547578 0.901075 0.414570
C19   C     C_R   0.602345 0.454177 0.098936 0.414423
C20   C     C_R   0.429288 0.577210 0.052142 -0.159630
C21   C     C_R   0.572236 0.424619 0.947886 -0.159673
C22   C     C_R   0.879286 0.528740 0.445445 0.566598
C23   C     C_R   0.512146 0.504418 0.252613 0.075277
C24   C     C_R   0.119987 0.447520 0.505882 0.561401
C25   C     C_R   0.879320 0.447609 0.502514 0.560771
C26   C     C_R   0.120300 0.527649 0.447876 0.563596
C27   C     C_R   0.938974 0.444360 0.501201 -0.047529
C28   C     C_R   0.060598 0.526000 0.444474 -0.048538
C29   C     C_R   0.969505 0.485212 0.471927 -0.036863
C30   C     C_R   0.030000 0.484511 0.473121 -0.037162
C31   C     C_R   0.939644 0.527395 0.442336 -0.091677
C32   C     C_R   0.059773 0.443231 0.503597 -0.090509
C33   C     C_R   0.968325 0.402005 0.529487 -0.166489
C34   C     C_R   0.488736 0.496426 0.747386 0.070123
C35   C     C_R   0.031228 0.565753 0.413761 -0.166961
C36   C     C_R   0.027965 0.400706 0.531018 0.213962
C37   C     C_R   0.971524 0.566961 0.412163 0.213929
C38   C     C_R   0.534223 0.314989 0.531752 -0.034973
C39   C     C_R   0.469369 0.684991 0.465696 -0.026550
C40   C     C_R   0.465615 0.316328 0.468334 -0.056033
C41   C     C_R   0.530465 0.683727 0.534329 -0.041931
C42   C     C_R   0.534875 0.252433 0.532474 0.316917
C43   C     C_R   0.468661 0.747548 0.464914 0.319270
C44   C     C_R   0.464820 0.253807 0.467649 0.317632
C45   C     C_R   0.512387 0.509385 0.101099 -0.104579
C46   C     C_R   0.531116 0.746233 0.535026 0.319605
C47   C     C_R   0.243815 0.459307 0.456447 -0.092653
C48   C     C_R   0.754997 0.460807 0.453509 -0.089101
C49   C     C_R   0.302649 0.461304 0.462518 -0.209382
C50   C     C_R   0.696316 0.462589 0.460403 -0.187324
C51   C     C_R   0.326983 0.499422 0.496490 -0.123199
C52   C     C_R   0.672910 0.499561 0.495515 -0.119122
C53   C     C_R   0.292013 0.535826 0.525270 0.106522
C54   C     C_R   0.708640 0.535220 0.524439 0.097208
C55   C     C_R   0.232130 0.533567 0.518982 0.182224
C56   C     C_R   0.489028 0.492292 0.898911 -0.104225
C57   C     C_R   0.768322 0.533277 0.517265 0.192474
C58   C     C_R   0.208685 0.495109 0.484407 0.205887
C59   C     C_R   0.790867 0.495757 0.481735 0.202519
C60   C     C_R   0.539236 0.874426 0.472462 0.626459
C61   C     C_R   0.460461 0.125584 0.527534 0.627242
C62   C     C_R   0.460421 0.873270 0.527390 0.621877
C63   C     C_R   0.539168 0.126738 0.472497 0.621162
C64   C     C_R   0.459634 0.936179 0.527976 -0.045596
C65   C     C_R   0.539975 0.063829 0.471934 -0.043587
C66   C     C_R   0.540000 0.937358 0.471906 -0.048810
C67   C     C_R   0.472491 0.543499 0.127045 -0.008385
C68   C     C_R   0.459648 0.062651 0.528042 -0.049493
C69   C     C_R   0.499814 0.968353 0.499951 0.001756
C70   C     C_R   0.499811 0.031656 0.499975 0.001675
C71   C     C_R   0.419733 0.967650 0.555842 -0.102410
C72   C     C_R   0.579876 0.032359 0.444069 -0.104914
C73   C     C_R   0.579894 0.970000 0.444061 -0.101513
C74   C     C_R   0.419747 0.030009 0.555881 -0.101531
C75   C     C_R   0.473876 0.541836 0.177432 0.601768
C76   C     C_R   0.527315 0.459484 0.822598 0.600677
C77   C     C_R   0.499830 0.221048 0.500056 0.129892
C78   C     C_R   0.528861 0.458073 0.872983 -0.008757
C79   C     C_R   0.499886 0.778964 0.499942 0.124009
C80   C     C_R   0.554298 0.475885 0.177030 0.658736
C81   C     C_R   0.446927 0.525478 0.822962 0.657976
C82   C     C_R   0.543812 0.546029 0.278978 0.383131
C83   C     C_R   0.456805 0.454755 0.721294 0.385269
C84   C     C_R   0.541432 0.544936 0.329554 0.310932
C85   C     C_R   0.458952 0.455527 0.670709 0.317049
C86   C     C_R   0.476443 0.459928 0.326619 -0.281752
C87   C     C_R   0.524197 0.540347 0.673099 -0.263619
C88   C     C_R   0.478854 0.461055 0.276412 0.204137
C89   C     C_R   0.433158 0.579628 0.102104 -0.094341
C90   C     C_R   0.522054 0.539528 0.723302 0.205883
Cl1   Cl    Cl    0.579481 0.214460 0.574087 -0.482082
Cl2   Cl    Cl    0.664410 0.423523 0.127062 -0.395302
Cl3   Cl    Cl    0.428506 0.785473 0.420138 -0.479151
Cl4   Cl    Cl    0.420076 0.217613 0.426091 -0.503944
Cl5   Cl    Cl    0.571184 0.782422 0.579810 -0.479308
Cl6   Cl    Cl    0.415642 0.405105 0.638240 -0.434253
Cl7   Cl    Cl    0.584441 0.595346 0.362331 -0.442899
Cl8   Cl    Cl    0.414289 0.401727 0.752584 -0.409318
Cl9   Cl    Cl    0.586295 0.599397 0.248036 -0.412510
Cl10  Cl    Cl    0.337057 0.578300 0.872970 -0.385147
H1    H     H_    0.401475 0.608998 0.034063 0.184388
H2    H     H_    0.445347 0.660694 0.438880 0.186841
H3    H     H_    0.438720 0.341661 0.443511 0.171951
H4    H     H_    0.554292 0.658485 0.561315 0.189087
H5    H     H_    0.450076 0.426757 0.344794 0.197531
H6    H     H_    0.550524 0.573369 0.654710 0.209477
H7    H     H_    0.405254 0.609935 0.121032 0.207323
H8    H     H_    0.596145 0.391695 0.879037 0.207775
H9    H     H_    0.388312 0.944192 0.577761 0.206739
H10   H     H_    0.611288 0.055817 0.422139 0.205079
H11   H     H_    0.611320 0.947464 0.422127 0.207291
H12   H     H_    0.600091 0.392883 0.965980 0.184221
H13   H     H_    0.388334 0.052545 0.577828 0.207614
H14   H     H_    0.944800 0.369879 0.551341 0.215474
H15   H     H_    0.054774 0.596991 0.391089 0.214671
H16   H     H_    0.225238 0.429538 0.430229 0.170440
H17   H     H_    0.772879 0.431770 0.426529 0.173276
H18   H     H_    0.329407 0.433335 0.440309 0.172290
H19   H     H_    0.668944 0.435304 0.438003 0.183459
H20   H     H_    0.561084 0.339281 0.556615 0.187145
I1    I     I_    0.062214 0.331675 0.576634 -0.074357
I2    I     I_    0.682952 0.459729 0.011834 -0.122314
I3    I     I_    0.937194 0.631408 0.362361 -0.070197
I4    I     I_    0.329088 0.589763 0.580360 -0.119348
I5    I     I_    0.673144 0.587360 0.581110 -0.198513
I6    I     I_    0.175600 0.586007 0.561463 -0.118138
I7    I     I_    0.825930 0.584786 0.559854 -0.123394
I8    I     I_    0.430917 0.397211 0.237726 -0.178551
I9    I     I_    0.570417 0.603461 0.761508 -0.142007
I10   I     I_    0.318570 0.542214 0.988212 -0.123011
N1    N     N_R   0.513170 0.506978 0.201035 -0.339388
N2    N     N_R   0.487940 0.494212 0.798970 -0.340363
N3    N     N_R   0.851313 0.490251 0.475978 -0.355562
N4    N     N_R   0.148120 0.489856 0.479037 -0.355102
N5    N     N_R   0.500000 0.345660 0.500000 -0.141344
N6    N     N_R   0.500000 0.654340 0.500000 -0.142782
N7    N     N_R   0.499837 0.843589 0.499920 -0.320299
N8    N     N_R   0.499817 0.156422 0.500030 -0.319451
O1    O     O_R   0.416150 0.549570 0.500020 -0.609621
O2    O     O_2   0.422229 0.155641 0.554345 -0.483780
O3    O     O_2   0.422071 0.842089 0.554056 -0.495757
O4    O     O_2   0.577404 0.157917 0.445712 -0.504535
O5    O     O_2   0.435810 0.573990 0.202867 -0.507522
O6    O     O_2   0.565294 0.427195 0.797183 -0.505489
O7    O     O_2   0.409350 0.558766 0.797050 -0.432807
O8    O     O_2   0.591827 0.442503 0.202911 -0.440646
O9    O     O_2   0.848278 0.568482 0.419405 -0.473236
O10   O     O_2   0.150767 0.411007 0.535092 -0.477617
O11   O     O_2   0.849264 0.409338 0.530860 -0.514790
O12   O     O_R   0.583850 0.450430 0.499980 -0.627260
O13   O     O_2   0.150523 0.567308 0.420984 -0.514384
O14   O     O_R   0.583850 0.549570 0.499980 -0.578632
O15   O     O_R   0.416150 0.450430 0.500020 -0.599866
O16   O     O_R   0.500010 0.549550 0.428760 -0.579279
O17   O     O_R   0.499990 0.450450 0.571240 -0.577829
O18   O     O_R   0.499990 0.549550 0.571240 -0.622858
O19   O     O_R   0.500010 0.450450 0.428760 -0.632789
O20   O     O_2   0.577603 0.844368 0.445786 -0.482779
Zn1   Zn    Zn3+2 0.500000 0.566180 0.500000 1.034047
Zn2   Zn    Zn3+2 0.500000 0.433820 0.500000 1.014056

loop_
_geom_bond_atom_site_label_1
_geom_bond_atom_site_label_2
_ccdc_geom_bond_type
C7    C10   A    
C30   C32   A    
C63   C65   A    
C8    C13   A    
C23   C82   A    
C27   C29   A    
C82   Cl9   S    
C14   C18   A    
C34   C90   A    
C47   C49   A    
C27   C33   A    
C7    C11   A    
C33   H14   S    
C6    C85   A    
O12   Zn2   S    
C39   H2    S    
C2    C78   A    
C84   Cl7   S    
C32   C36   A    
C44   C77   A    
C15   I2    S    
C60   O20   S    
C38   C42   A    
C46   C79   A    
C85   Cl6   S    
C86   C88   A    
C61   N8    A    
C57   C59   A    
C66   C69   A    
C43   C79   A    
C65   C70   A    
C67   C89   A    
C33   C36   A    
C56   C78   A    
C25   O11   S    
C42   Cl1   S    
C64   C71   A    
C12   O14   A    
C5    C16   S    
C62   C64   A    
C19   Cl2   S    
C12   C52   S    
C37   I3    S    
N6    Zn1   S    
C7    C14   A    
C4    C81   A    
C28   C35   A    
C10   C20   A    
C8    C9    A    
C49   C51   A    
C83   Cl8   S    
C45   C67   A    
C50   C52   A    
C41   C46   A    
C10   C13   A    
C3    C19   A    
C25   N3    A    
C1    O1    A    
C60   N7    A    
C38   H20   S    
C48   C50   A    
O17   Zn2   S    
O14   Zn1   S    
O1    Zn1   S    
C80   N1    A    
C4    C56   A    
C90   I9    S    
C18   Cl10  S    
C3    C80   A    
C40   N5    A    
C52   C54   A    
C73   H11   S    
C39   N6    A    
C53   C55   A    
C47   H16   S    
C54   I5    S    
C72   H10   S    
C22   C31   A    
C46   Cl5   S    
C22   N3    A    
C50   H19   S    
C12   O12   A    
C77   N8    S    
C24   O10   S    
C5    C84   A    
C81   N2    A    
C39   C43   A    
C20   H1    S    
C64   C69   A    
C74   H13   S    
C59   N3    S    
C58   N4    S    
C6    C87   A    
C31   C37   A    
C51   C53   A    
C15   C19   A    
C24   C32   A    
C29   C30   A    
C26   N4    A    
C9    C11   A    
C49   H18   S    
C55   I6    S    
C89   H7    S    
C2    C21   A    
C23   N1    S    
C38   N5    A    
C1    O15   A    
C1    C51   S    
C75   O5    S    
C5    C86   A    
C76   O6    S    
C68   C70   A    
C79   N7    S    
C8    C15   A    
C81   O7    S    
C23   C88   A    
C16   O16   A    
C63   N8    A    
C55   C58   A    
C86   H5    S    
C67   C75   A    
C34   C83   A    
C62   O3    S    
C17   O17   A    
C21   H12   S    
C48   C59   A    
C14   I10   S    
C24   N4    A    
C6    C17   S    
C26   O13   S    
N5    Zn2   S    
C35   C37   A    
C16   O19   A    
C26   C28   A    
O18   Zn1   S    
C76   C78   A    
C72   C73   A    
C53   I4    S    
C57   I7    S    
C71   C74   A    
C61   O2    S    
C48   H17   S    
O19   Zn2   S    
C25   C27   A    
C65   C72   A    
C20   C89   A    
C82   C84   A    
C41   H4    S    
C83   C85   A    
C66   C73   A    
O15   Zn2   S    
C28   C30   A    
C36   I1    S    
C4    C18   A    
O16   Zn1   S    
C29   C31   A    
C40   H3    S    
C13   C45   A    
C76   N2    A    
C61   C68   A    
C9    C21   A    
C87   H6    S    
C71   H9    S    
C2    H8    S    
C43   Cl3   S    
C63   O4    S    
C3    C45   A    
C62   N7    A    
C69   C70   A    
C44   Cl4   S    
C60   C66   A    
C34   N2    S    
C40   C44   A    
C22   O9    S    
C75   N1    A    
C42   C77   A    
C88   I8    S    
C87   C90   A    
C80   O8    S    
C35   H15   S    
C17   O18   A    
C68   C74   A    
C41   N6    A    
C11   C56   A    
C47   C58   A    
C54   C57   A    
