data_mof_unit_10798.cif
_audit_creation_date              2012-12-11T14:15:38-0500
_audit_creation_method            fapswitch 2.2
_symmetry_space_group_name_H-M    P1
_symmetry_Int_Tables_number       1
_space_group_crystal_system       triclinic
_cell_length_a                    11.151425
_cell_length_b                    12.691387
_cell_length_c                    23.553359
_cell_angle_alpha                 90.406564
_cell_angle_beta                  96.972511
_cell_angle_gamma                 68.543477
_cell_volume                      3076.95862136

loop_
_atom_site_label
_atom_site_type_symbol
_atom_type_description
_atom_site_fract_x
_atom_site_fract_y
_atom_site_fract_z
_atom_type_partial_charge
C1    C     C_R   0.149687 0.617017 0.429038 0.557643
C2    C     C_R   0.636922 0.574784 0.312282 -0.100357
C3    C     C_R   0.694867 0.742866 0.317188 -0.040276
C4    C     C_R   0.659314 0.759171 0.257290 -0.015643
C5    C     C_R   0.656343 0.664708 0.225906 -0.052539
C6    C     C_R   0.686111 0.657845 0.169454 -0.029146
C7    C     C_R   0.666483 0.855754 0.169983 -0.027770
C8    C     C_R   0.643292 0.860867 0.227537 0.001886
C9    C     C_1   0.235283 0.163965 0.122279 0.021264
C10   C     C_2   0.175712 0.238770 0.224669 0.052890
C11   C     C_2   0.160180 0.166330 0.263384 0.021633
C12   C     C_R   0.749709 0.605022 0.403473 0.549189
C13   C     C_1   0.134484 0.199124 0.321154 0.043243
C14   C     C_1   0.208381 0.200569 0.168403 -0.052833
C15   C     C_1   0.116521 0.231617 0.368812 0.039440
C16   C     C_1   0.167123 0.749071 0.123297 -0.010534
C17   C     C_2   0.134736 0.689008 0.226399 0.003072
C18   C     C_2   0.230360 0.673724 0.270387 -0.073042
C19   C     C_1   0.215360 0.651651 0.328847 -0.017204
C20   C     C_1   0.152454 0.720165 0.169895 -0.039489
C21   C     C_1   0.193090 0.634962 0.376191 0.015925
C22   C     C_1   0.603266 0.767429 0.861320 -0.005609
C23   C     C_R   0.101239 0.281857 0.423570 0.549271
C24   C     C_2   0.604055 0.751247 0.750077 0.018466
C25   C     C_2   0.677766 0.652684 0.728648 -0.002811
C26   C     C_1   0.685426 0.642131 0.668412 0.052188
C27   C     C_1   0.609032 0.760979 0.810949 -0.095781
C28   C     C_1   0.704770 0.628840 0.619519 0.064496
C29   C     C_R   0.190666 0.192085 0.856989 0.042808
C30   C     C_R   0.109057 0.232708 0.643036 -0.021354
C31   C     C_R   0.037034 0.141983 0.715757 -0.013631
C32   C     C_R   0.035996 0.168530 0.657146 0.026377
C33   C     C_R   0.183256 0.267167 0.685725 -0.123988
C34   C     C_R   0.150103 0.616321 0.591425 0.576579
C35   C     C_R   0.179206 0.247265 0.742615 0.007956
C36   C     C_R   0.098792 0.191469 0.758729 -0.010133
C37   C     C_R   0.088611 0.183910 0.817663 -0.015155
C38   C     C_R   0.268183 0.248719 0.840263 -0.089031
C39   C     C_R   0.256919 0.282035 0.783642 -0.119162
C40   C     C_R   0.119278 0.738583 0.854766 -0.026213
C41   C     C_R   0.191006 0.636152 0.651210 0.018980
C42   C     C_R   0.321460 0.573734 0.744324 -0.036548
C43   C     C_R   0.307528 0.566146 0.683799 0.016893
C44   C     C_R   0.095872 0.716969 0.678302 -0.148276
C45   C     C_R   0.749032 0.602255 0.565351 0.553203
C46   C     C_R   0.099022 0.715799 0.737288 -0.002107
C47   C     C_R   0.212414 0.643010 0.771541 0.020896
C48   C     C_R   0.212107 0.646134 0.831549 0.007065
C49   C     C_R   0.999961 0.799817 0.821413 0.002558
C50   C     C_R   0.987327 0.783563 0.762144 -0.016630
C51   C     C_R   0.265915 0.110039 0.069341 0.557368
C52   C     C_R   0.602308 0.774563 0.080924 0.585119
C53   C     C_R   0.189794 0.787617 0.069785 0.542613
C54   C     C_R   0.239154 0.118161 0.908675 0.568154
C55   C     C_R   0.573316 0.776918 0.918365 0.554817
C56   C     C_R   0.100131 0.279341 0.585586 0.512146
C57   C     C_R   0.161953 0.784772 0.907958 0.528042
C58   C     C_R   0.671206 0.758113 0.139523 0.022214
C59   C     C_R   0.687265 0.645795 0.344662 -0.001652
C60   C     C_R   0.624420 0.580960 0.252709 -0.017940
Cr1   Cr    Cr6+3 0.189770 0.415650 0.511620 1.094994
Cr2   Cr    Cr6+3 0.930400 0.667320 0.496770 1.030403
Cr3   Cr    Cr6+3 0.879870 0.417010 0.491650 1.067937
Cr4   Cr    Cr6+3 0.149500 0.973980 0.985330 1.094318
Cr5   Cr    Cr6+3 0.457000 0.976510 0.994660 1.038381
Cr6   Cr    Cr6+3 0.411170 0.724270 0.995270 1.063497
H1    H     H_    0.342713 0.261396 0.870416 0.173193
H2    H     H_    0.318216 0.325194 0.771349 0.115693
H3    H     H_    0.240767 0.315298 0.674796 0.134337
H4    H     H_    0.012262 0.776898 0.652563 0.155851
H5    H     H_    0.618163 0.507801 0.333366 0.190301
H6    H     H_    0.320666 0.682113 0.262739 0.121997
O1    O     O_R   0.196340 0.303200 0.448500 -0.489269
O2    O     O_R   0.811960 0.658090 0.547150 -0.503031
O3    O     O_R   0.757930 0.506140 0.547110 -0.481973
O4    O     O_R   0.988670 0.321620 0.556040 -0.504004
O5    O     O_3   0.000020 0.499990 0.500010 -0.265627
O6    O     O_R   0.113660 0.883270 0.047820 -0.509876
O7    O     O_R   0.186930 0.068530 0.043990 -0.488789
O8    O     O_R   0.377770 0.089040 0.054220 -0.509448
O9    O     O_R   0.562800 0.872960 0.056970 -0.520346
O10   O     O_R   0.555390 0.700940 0.062700 -0.470499
O11   O     O_R   0.295020 0.731920 0.049950 -0.494575
O12   O     O_R   0.199310 0.519670 0.454880 -0.465040
O13   O     O_R   0.094290 0.884230 0.921550 -0.501189
O14   O     O_R   0.168980 0.069410 0.926940 -0.443257
O15   O     O_R   0.358400 0.089990 0.927950 -0.523196
O16   O     O_R   0.544850 0.873850 0.939920 -0.492094
O17   O     O_R   0.536020 0.701900 0.936430 -0.506572
O18   O     O_R   0.277070 0.732810 0.932890 -0.501619
O19   O     O_3   0.339220 0.891590 0.991750 -0.269841
O20   O     O_R   0.045660 0.691380 0.441680 -0.531099
O21   O     O_R   0.811930 0.659460 0.430950 -0.509805
O22   O     O_R   0.757900 0.507620 0.421760 -0.505614
O23   O     O_R   0.988630 0.322990 0.439840 -0.496128
O24   O     O_R   0.196380 0.301720 0.573850 -0.510320
O25   O     O_R   0.199350 0.518300 0.571080 -0.465873
O26   O     O_R   0.045700 0.689900 0.567030 -0.524250
C61   C     C_2   0.753304 0.545559 0.145076 0.224472
H7    H     H_    0.774111 0.467525 0.169549 0.123107
O27   O     O_2   0.793817 0.538785 0.098752 -0.481842
C62   C     C_3   0.005458 0.681054 0.233278 -0.347673
H8    H     H_    0.984258 0.623313 0.201398 0.159434
H9    H     H_    0.001686 0.648536 0.276317 0.166545
H10   H     H_    0.928418 0.766414 0.225605 0.127621
C63   C     C_3   0.772964 0.555550 0.767078 -0.399575
H11   H     H_    0.813012 0.477975 0.742526 0.138491
H12   H     H_    0.854898 0.579273 0.786596 0.156528
H13   H     H_    0.725034 0.534433 0.801601 0.150201
C64   C     C_2   0.511828 0.851836 0.714889 0.234385
H14   H     H_    0.461175 0.928770 0.736087 0.117063
O28   O     O_2   0.489542 0.850660 0.662901 -0.493719
C65   C     C_2   0.962788 0.192381 0.836944 0.253913
H15   H     H_    0.883969 0.187576 0.806704 0.129285
O29   O     O_2   0.941056 0.214710 0.886058 -0.465930
C66   C     C_3   0.995660 0.045902 0.731091 -0.355247
H16   H     H_    0.037315 0.009456 0.774944 0.141544
H17   H     H_    0.888160 0.075590 0.726991 0.189447
H18   H     H_    0.033097 0.974809 0.702304 0.158840
C67   C     C_2   0.965313 0.125903 0.610351 0.246565
H19   H     H_    0.998114 0.113384 0.568419 0.116181
O30   O     O_2   0.868071 0.107368 0.617433 -0.514845
C68   C     C_2   0.291673 0.547993 0.870628 0.240577
H20   H     H_    0.393893 0.529790 0.883891 0.121772
O31   O     O_2   0.239876 0.490266 0.891217 -0.512206
C69   C     C_3   0.695854 0.949472 0.142450 -0.309828
H21   H     H_    0.760067 0.978187 0.173289 0.155129
H22   H     H_    0.749629 0.918881 0.105169 0.125301
H23   H     H_    0.604796 0.022113 0.128190 0.211713
C70   C     C_2   0.890683 0.878946 0.849283 0.250195
H24   H     H_    0.873704 0.855836 0.891025 0.125035
O32   O     O_2   0.823684 0.972261 0.827555 -0.525775
C71   C     C_3   0.455195 0.519231 0.778046 -0.414584
H25   H     H_    0.534548 0.499497 0.750984 0.139882
H26   H     H_    0.473796 0.579227 0.809191 0.138742
H27   H     H_    0.464126 0.438920 0.799717 0.125094
C72   C     C_3   0.856091 0.834014 0.725513 -0.357519
H28   H     H_    0.773445 0.862057 0.750728 0.181447
H29   H     H_    0.851354 0.906947 0.698600 0.160982
H30   H     H_    0.840514 0.768870 0.697194 0.128542
C73   C     C_2   0.415123 0.486646 0.655219 0.242188
H31   H     H_    0.474130 0.404212 0.675242 0.102722
O33   O     O_2   0.441431 0.514032 0.610108 -0.474952
C74   C     C_2   0.566662 0.507355 0.219348 0.201153
H32   H     H_    0.534004 0.525071 0.173912 0.122597
O34   O     O_2   0.552727 0.427343 0.242322 -0.477688
C75   C     C_2   0.577996 0.971901 0.253771 0.213025
H33   H     H_    0.540948 0.973091 0.294403 0.119385
O35   O     O_2   0.560901 0.062633 0.230387 -0.496935
C76   C     C_3   0.765393 0.813612 0.348001 -0.370071
H34   H     H_    0.867448 0.758691 0.361773 0.183051
H35   H     H_    0.777105 0.879102 0.321033 0.118806
H36   H     H_    0.715535 0.855364 0.384722 0.151309
C77   C     C_3   0.176143 0.046207 0.248746 -0.401477
H37   H     H_    0.156485 0.000981 0.284617 0.131375
H38   H     H_    0.107133 0.046456 0.210498 0.145532
H39   H     H_    0.277094 0.998800 0.239796 0.138232
C78   C     C_2   0.162104 0.358092 0.235907 0.257448
H40   H     H_    0.180823 0.407933 0.203207 0.127753
O36   O     O_2   0.129558 0.402702 0.280504 -0.519846

loop_
_geom_bond_atom_site_label_1
_geom_bond_atom_site_label_2
_ccdc_geom_bond_type
C1    C21   S    
C69   H21   S    
C56   O4    A    
C39   H2    S    
C6    C58   A    
Cr2   O5    S    
C35   C39   A    
C35   C36   A    
C9    C51   S    
C24   C27   S    
C4    C8    A    
C17   C20   S    
C48   C68   S    
Cr1   O24   S    
C68   H20   S    
Cr6   O18   S    
Cr3   O4    S    
C16   C53   S    
C1    O12   A    
C72   H29   S    
Cr3   O22   S    
Cr3   O3    S    
C42   C71   S    
C5    C6    A    
C36   C37   A    
C75   O35   D    
C23   O1    A    
C73   O33   D    
C54   O15   A    
C2    C60   A    
C68   O31   D    
C37   C65   S    
C63   H11   S    
C40   C49   A    
Cr3   O23   S    
C34   O25   A    
C66   H16   S    
C62   H10   S    
C56   O24   A    
C18   C19   S    
C55   O16   A    
C64   H14   S    
C11   C77   S    
C34   O26   A    
Cr6   O11   S    
Cr2   O26   S    
C12   C59   S    
C75   H33   S    
C67   O30   D    
C76   H36   S    
Cr2   O20   S    
C29   C38   A    
C71   H27   S    
C44   H4    S    
C52   O10   A    
C10   C78   S    
C7    C58   A    
C77   H38   S    
C5    C60   A    
C33   H3    S    
C15   C23   S    
C72   H28   S    
Cr5   O8    S    
Cr5   O19   S    
C78   O36   D    
C41   C43   A    
C12   O22   A    
C62   H8    S    
C34   C41   S    
C32   C67   S    
Cr4   O14   S    
C44   C46   A    
C25   C63   S    
Cr5   O15   S    
Cr6   O17   S    
C64   O28   D    
C18   H6    S    
C72   H30   S    
C28   C45   S    
C50   C72   S    
C57   O18   A    
C7    C8    A    
C24   C64   S    
C24   C25   D    
C77   H39   S    
C74   O34   D    
C10   C14   S    
Cr1   O5    S    
C54   O14   A    
C9    C14   T    
C2    C59   A    
C74   H32   S    
C69   H23   S    
Cr1   O1    S    
C25   C26   S    
C30   C56   S    
C45   O2    A    
C78   H40   S    
C70   O32   D    
C17   C62   S    
Cr6   O10   S    
Cr5   O9    S    
C47   C48   A    
C16   C20   T    
C31   C66   S    
C17   C18   D    
C62   H9    S    
C77   H37   S    
C22   C55   S    
C52   C58   S    
C66   H17   S    
C61   O27   D    
C1    O20   A    
C22   C27   T    
C13   C15   T    
C71   H25   S    
Cr4   O7    S    
C76   H35   S    
C12   O21   A    
C43   C73   S    
C8    C75   S    
C42   C43   A    
C3    C4    A    
Cr4   O13   S    
C67   H19   S    
Cr5   O16   S    
C65   H15   S    
Cr3   O5    S    
C40   C48   A    
C46   C47   A    
C3    C76   S    
C69   H22   S    
C40   C57   S    
C30   C33   A    
C19   C21   T    
C31   C36   A    
Cr4   O6    S    
C31   C32   A    
Cr1   O25   S    
C4    C5    A    
Cr1   O12   S    
C66   H18   S    
Cr6   O19   S    
C49   C70   S    
C46   C50   A    
C26   C28   T    
C61   H7    S    
C53   O11   A    
C45   O3    A    
C6    C61   S    
C70   H24   S    
C55   O17   A    
C73   H31   S    
C60   C74   S    
C30   C32   A    
C11   C13   S    
C38   C39   A    
C63   H12   S    
C41   C44   A    
C51   O8    A    
C33   C35   A    
C23   O23   A    
C53   O6    A    
C42   C47   A    
C7    C69   S    
C52   O9    A    
C51   O7    A    
C10   C11   D    
C38   H1    S    
C49   C50   A    
C29   C54   S    
Cr2   O21   S    
C29   C37   A    
C71   H26   S    
C76   H34   S    
Cr2   O2    S    
Cr4   O19   S    
C57   O13   A    
C2    H5    S    
C65   O29   D    
C63   H13   S    
C3    C59   A    
