data_mof_unit_20204.cif
_audit_creation_date              2012-12-10T16:58:40-0500
_audit_creation_method            fapswitch 2.2
_symmetry_space_group_name_H-M    P1
_symmetry_Int_Tables_number       1
_space_group_crystal_system       triclinic
_cell_length_a                    13.129605
_cell_length_b                    13.043173
_cell_length_c                    15.610414
_cell_angle_alpha                 108.290782
_cell_angle_beta                  73.523487
_cell_angle_gamma                 91.509667
_cell_volume                      2428.24143706

loop_
_atom_site_label
_atom_site_type_symbol
_atom_type_description
_atom_site_fract_x
_atom_site_fract_y
_atom_site_fract_z
_atom_type_partial_charge
C1    C     C_R   0.218274 0.542543 0.535638 0.466381
C2    C     C_R   0.508215 0.503376 0.121210 0.264629
C3    C     C_R   0.623209 0.341235 0.083549 -0.144743
C4    C     C_R   0.781317 0.457302 0.463321 0.502211
C5    C     C_R   0.435645 0.583203 0.856402 -0.014320
C6    C     C_2   0.896803 0.447539 0.449763 0.315875
C7    C     C_2   0.937069 0.525949 0.508250 0.339838
C8    C     C_2   0.101438 0.552771 0.557278 0.217119
C9    C     C_2   0.054431 0.533743 0.487247 0.272802
C10   C     C_2   0.534181 0.897691 0.530508 0.279333
C11   C     C_2   0.445168 0.953697 0.537824 0.287240
C12   C     C_R   0.300743 0.640173 0.009655 0.291542
C13   C     C_2   0.447838 0.104356 0.471334 0.274924
C14   C     C_2   0.452603 0.070731 0.544148 0.275926
C15   C     C_R   0.467696 0.218603 0.474633 0.512491
C16   C     C_R   0.528955 0.782353 0.526417 0.519039
C17   C     C_R   0.544567 0.443659 0.247959 0.488961
C18   C     C_R   0.458315 0.558616 0.753025 0.565138
C19   C     C_R   0.652977 0.331670 0.988365 0.235890
C20   C     C_R   0.557312 0.429682 0.150048 -0.008891
C21   C     C_R   0.339018 0.642479 0.917002 0.247681
C22   C     C_3   0.880515 0.702612 0.596046 0.000861
C23   C     C_R   0.353679 0.571542 0.038938 0.238135
C24   C     C_3   0.800795 0.773458 0.685209 -0.347123
C25   C     C_3   0.914156 0.283255 0.328701 -0.009464
C26   C     C_3   0.996964 0.198530 0.253117 -0.339099
C27   C     C_3   0.259981 0.969122 0.586708 -0.001624
C28   C     C_3   0.164065 0.901205 0.598908 -0.367664
C29   C     C_3   0.702489 0.911788 0.552759 -0.015706
C30   C     C_3   0.791624 0.988624 0.555058 -0.354430
C31   C     C_3   0.656994 0.166039 0.882628 0.014596
C32   C     C_3   0.726911 0.064295 0.819929 -0.363772
C33   C     C_3   0.394556 0.614036 0.267473 0.036644
C34   C     C_R   0.460536 0.531532 0.987159 -0.051495
C35   C     C_3   0.320900 0.716204 0.302963 -0.319903
C36   C     C_3   0.192755 0.659131 0.868208 0.030518
C37   C     C_3   0.128052 0.738902 0.847749 -0.349926
C38   C     C_R   0.501985 0.537222 0.894582 -0.070171
C39   C     C_R   0.525216 0.481150 0.023331 -0.029324
C40   C     C_R   0.613027 0.410530 0.959398 -0.042143
C41   C     C_R   0.660230 0.425244 0.871019 0.241963
C42   C     C_R   0.608829 0.497665 0.843418 0.310717
H1    H     H_    0.656618 0.282475 0.106000 0.133829
H2    H     H_    0.052064 0.170989 0.285137 0.174544
H3    H     H_    0.956943 0.127850 0.219114 0.104243
H4    H     H_    0.043416 0.233207 0.198586 0.179734
H5    H     H_    0.469697 0.105039 0.669385 0.307175
H6    H     H_    0.247328 0.024612 0.548647 0.163986
H7    H     H_    0.264987 0.017053 0.658234 0.124861
H8    H     H_    0.174486 0.844330 0.636379 0.171578
H9    H     H_    0.090719 0.954714 0.640703 0.095920
H10   H     H_    0.154881 0.854088 0.528999 0.147671
H11   H     H_    0.429424 0.067372 0.346457 0.336499
H12   H     H_    0.865582 0.717603 0.534112 0.109705
H13   H     H_    0.738581 0.829448 0.508164 0.160691
H14   H     H_    0.662756 0.912391 0.626170 0.099910
H15   H     H_    0.758632 0.071482 0.601257 0.184780
H16   H     H_    0.851269 0.960962 0.582589 0.079170
H17   H     H_    0.831903 0.990832 0.482812 0.174636
H18   H     H_    0.803803 0.374231 0.854673 0.363925
H19   H     H_    0.620586 0.196495 0.838105 0.159964
H20   H     H_    0.592843 0.143779 0.936745 0.125764
H21   H     H_    0.763274 0.030730 0.862452 0.161099
H22   H     H_    0.677605 0.003076 0.786553 0.087642
H23   H     H_    0.961449 0.726732 0.599688 0.143101
H24   H     H_    0.791049 0.082939 0.764142 0.167673
H25   H     H_    0.437160 0.623235 0.321121 0.149878
H26   H     H_    0.345554 0.542643 0.263065 0.161733
H27   H     H_    0.368303 0.788597 0.308950 0.210447
H28   H     H_    0.273237 0.713684 0.254200 0.188873
H29   H     H_    0.265915 0.723586 0.373601 0.092212
H30   H     H_    0.140830 0.637067 0.928768 0.176520
H31   H     H_    0.215019 0.584756 0.805664 0.117571
H32   H     H_    0.173511 0.755380 0.782214 0.172702
H33   H     H_    0.051731 0.705199 0.839133 0.112549
H34   H     H_    0.811464 0.756717 0.747763 0.196071
H35   H     H_    0.109952 0.816080 0.907285 0.174655
H36   H     H_    0.321944 0.461737 0.100276 0.325582
H37   H     H_    0.192227 0.694325 0.131359 0.360150
H38   H     H_    0.738703 0.509006 0.747089 0.392846
H39   H     H_    0.178186 0.557098 0.392255 0.303032
H40   H     H_    0.814105 0.859563 0.692665 0.069964
H41   H     H_    0.718315 0.757406 0.681708 0.155229
H42   H     H_    0.085677 0.569967 0.688506 0.318066
H43   H     H_    0.859996 0.308501 0.294429 0.133762
H44   H     H_    0.868474 0.245511 0.381577 0.133140
O1    O     O_3   0.500000 0.500000 0.500000 -0.455870
O2    O     O_R   0.468210 0.402800 0.293550 -0.556610
O3    O     O_R   0.410220 0.615430 0.721590 -0.519060
O4    O     O_R   0.602670 0.506150 0.290200 -0.525745
O5    O     O_R   0.518910 0.475630 0.694660 -0.478337
O6    O     O_3   0.867786 0.593394 0.591107 -0.546397
O7    O     O_3   0.038701 0.570941 0.649037 -0.700436
O8    O     O_3   0.966275 0.372658 0.371004 -0.537208
O9    O     O_3   0.469768 0.143890 0.623994 -0.702968
O10   O     O_3   0.352440 0.899668 0.534298 -0.569616
O11   O     O_3   0.425715 0.030962 0.394126 -0.725881
O12   O     O_R   0.526920 0.270960 0.524520 -0.485784
O13   O     O_3   0.630580 0.946385 0.513691 -0.571045
O14   O     O_3   0.759151 0.377496 0.813895 -0.684588
O15   O     O_3   0.719777 0.243913 0.925046 -0.547472
O16   O     O_3   0.467792 0.608307 0.179609 -0.524559
O17   O     O_3   0.284783 0.708136 0.887356 -0.503212
O18   O     O_3   0.295146 0.536627 0.111804 -0.705359
O19   O     O_3   0.206996 0.699800 0.067205 -0.678711
O20   O     O_3   0.663367 0.537657 0.772011 -0.656366
O21   O     O_3   0.111404 0.519738 0.394294 -0.668949
O22   O     O_R   0.454490 0.752910 0.584610 -0.527197
O23   O     O_R   0.270990 0.462040 0.468400 -0.524291
O24   O     O_R   0.747590 0.514090 0.422470 -0.554170
O25   O     O_R   0.265290 0.607490 0.589320 -0.564227
O26   O     O_R   0.716130 0.416380 0.519810 -0.519533
O27   O     O_R   0.423930 0.265320 0.430520 -0.559996
O28   O     O_R   0.594650 0.710810 0.460350 -0.539615
Zn1   Zn    Zn3+2 0.564370 0.417180 0.558730 1.004421
Zn2   Zn    Zn3+2 0.417220 0.409120 0.424430 0.932021
Zn3   Zn    Zn3+2 0.609330 0.556780 0.419650 0.948894
Zn4   Zn    Zn3+2 0.409080 0.616930 0.597190 0.944122

loop_
_geom_bond_atom_site_label_1
_geom_bond_atom_site_label_2
_ccdc_geom_bond_type
C27   H6    S    
C11   O10   S    
C37   H32   S    
H39   O21   S    
C17   O2    A    
C19   O15   S    
C41   C42   A    
C31   H19   S    
C26   H2    S    
C22   H12   S    
C12   C23   A    
C3    H1    S    
C36   O17   S    
C18   O5    A    
C31   O15   S    
C36   C37   S    
C24   H41   S    
O1    Zn3   S    
C12   O19   S    
C33   C35   S    
C11   C14   S    
C2    O16   S    
C1    C8    S    
C30   H15   S    
H38   O20   S    
C17   C20   S    
H37   O19   S    
C24   H40   S    
C26   H3    S    
C1    O23   A    
C28   H8    S    
C2    C39   A    
C23   O18   S    
C35   H28   S    
C8    C9    D    
C6    O8    S    
C15   O27   A    
C3    C19   A    
O1    Zn1   S    
O23   Zn2   S    
O27   Zn2   S    
C4    O26   A    
C35   H29   S    
C25   O8    S    
C13   C14   D    
C13   O11   S    
C31   H20   S    
C27   O10   S    
O24   Zn3   S    
C29   O13   S    
C2    C20   A    
C34   C39   A    
H36   O18   S    
O22   Zn4   S    
O25   Zn4   S    
C32   H22   S    
O1    Zn4   S    
C4    C6    S    
C19   C40   A    
C39   C40   A    
C16   O22   A    
C24   H34   S    
C5    C18   S    
C29   H13   S    
H11   O11   S    
C25   C26   S    
C37   H35   S    
C12   C21   A    
C33   O16   S    
O2    Zn2   S    
O4    Zn3   S    
C22   H23   S    
C29   C30   S    
C31   C32   S    
C23   C34   A    
C30   H17   S    
C25   H43   S    
C41   O14   S    
C3    C20   A    
C42   O20   S    
O1    Zn2   S    
C40   C41   A    
C13   C15   S    
C22   C24   S    
C15   O12   A    
C14   O9    S    
C33   H25   S    
C32   H24   S    
C7    C9    S    
C4    O24   A    
H5    O9    S    
C34   C38   A    
C18   O3    A    
C17   O4    A    
C32   H21   S    
H18   O14   S    
C16   O28   A    
C38   C42   A    
C6    C7    D    
C29   H14   S    
C9    O21   S    
C10   C16   S    
C1    O25   A    
C28   H10   S    
O12   Zn1   S    
C7    O6    S    
C30   H16   S    
C25   H44   S    
C28   H9    S    
O5    Zn1   S    
H42   O7    S    
C37   H33   S    
C10   O13   S    
O28   Zn3   S    
C10   C11   D    
C26   H4    S    
C21   O17   S    
C27   H7    S    
C5    C21   A    
O3    Zn4   S    
C35   H27   S    
C8    O7    S    
C27   C28   S    
C22   O6    S    
C5    C38   A    
C36   H31   S    
O26   Zn1   S    
C36   H30   S    
C33   H26   S    
