data_mof_unit_28590.cif
_audit_creation_date              2012-12-11T15:37:32-0500
_audit_creation_method            fapswitch 2.2
_symmetry_space_group_name_H-M    P1
_symmetry_Int_Tables_number       1
_space_group_crystal_system       triclinic
_cell_length_a                    17.443007
_cell_length_b                    24.248376
_cell_length_c                    14.848738
_cell_angle_alpha                 89.885738
_cell_angle_beta                  125.830239
_cell_angle_gamma                 90.417086
_cell_volume                      5091.78407727

loop_
_atom_site_label
_atom_site_type_symbol
_atom_type_description
_atom_site_fract_x
_atom_site_fract_y
_atom_site_fract_z
_atom_type_partial_charge
C1    C     C_R   0.811319 0.627460 0.906370 -0.121768
C2    C     C_3   0.592014 0.498797 0.559672 0.111167
C3    C     C_3   0.029924 0.005585 0.434405 0.584953
C4    C     C_3   0.747136 0.371456 0.623754 0.125803
C5    C     C_3   0.701376 0.389459 0.503142 -0.260733
C6    C     C_3   0.719783 0.347665 0.441252 -1.020992
C7    C     C_3   0.293149 0.606334 0.448864 0.191164
C8    C     C_3   0.211452 0.593233 0.457182 -0.300577
C9    C     C_3   0.240311 0.602386 0.574875 -0.998622
C10   C     C_3   0.221505 0.379559 0.365110 0.141366
C11   C     C_3   0.252669 0.399074 0.480347 -0.245241
C12   C     C_3   0.195050 0.370820 0.514670 -1.040422
C13   C     C_3   0.908827 0.001133 0.436798 0.116789
C14   C     C_3   0.706914 0.603233 0.547971 0.220291
C15   C     C_3   0.736101 0.659339 0.529617 -0.299855
C16   C     C_3   0.697781 0.667376 0.407991 -1.042015
C17   C     C_3   0.247136 0.871456 0.623752 0.125809
C18   C     C_3   0.201377 0.889459 0.503141 -0.260736
C19   C     C_3   0.219784 0.847665 0.441251 -1.020985
C20   C     C_3   0.793152 0.106332 0.448870 0.191174
C21   C     C_3   0.711464 0.093224 0.457202 -0.300577
C22   C     C_3   0.740336 0.102371 0.574902 -0.998624
C23   C     C_3   0.721505 0.879558 0.365108 0.141350
C24   C     C_3   0.092015 0.998799 0.559667 0.111147
C25   C     C_3   0.752670 0.899071 0.480347 -0.245205
C26   C     C_3   0.695049 0.870817 0.514668 -1.040442
C27   C     C_3   0.206914 0.103233 0.547970 0.220289
C28   C     C_3   0.236104 0.159338 0.529615 -0.299854
C29   C     C_3   0.197780 0.167376 0.407987 -1.042017
C30   C     C_3   0.506332 0.484820 0.736518 0.155478
C31   C     C_3   0.464129 0.475377 0.801011 -0.247285
C32   C     C_3   0.541324 0.470177 0.925400 -1.016717
C33   C     C_3   0.506567 0.535114 0.272188 0.162663
C34   C     C_3   0.547136 0.533489 0.204762 -0.244193
C35   C     C_R   0.790392 0.231107 0.899224 -0.168183
C36   C     C_3   0.486709 0.566655 0.097702 -1.010461
C37   C     C_3   0.006350 0.984900 0.736537 0.155425
C38   C     C_3   0.964173 0.975329 0.801026 -0.247214
C39   C     C_3   0.041384 0.970245 0.925435 -1.016687
C40   C     C_3   0.006566 0.035128 0.272190 0.162663
C41   C     C_3   0.047117 0.033499 0.204747 -0.244201
C42   C     C_3   0.986703 0.066684 0.097712 -1.010419
C43   C     C_R   0.343237 0.684385 0.099149 -0.188548
C44   C     C_R   0.208730 0.232928 0.097158 -0.162311
C45   C     C_R   0.663351 0.691445 0.896609 -0.176809
C46   C     C_R   0.290391 0.731108 0.899223 -0.168183
C47   C     C_R   0.843236 0.184386 0.099150 -0.188531
C48   C     C_R   0.708730 0.732928 0.097158 -0.162308
C49   C     C_R   0.149352 0.347533 0.090891 -0.102589
C50   C     C_R   0.163350 0.191444 0.896609 -0.176841
C51   C     C_R   0.241883 0.685398 0.898217 -0.154185
C52   C     C_R   0.891195 0.230499 0.100287 -0.167303
C53   C     C_R   0.760920 0.690137 0.097777 -0.162266
C54   C     C_R   0.111770 0.234507 0.895991 -0.161533
C55   C     C_R   0.741884 0.185398 0.898219 -0.154184
C56   C     C_R   0.391196 0.730498 0.100286 -0.167291
C57   C     C_R   0.260919 0.190136 0.097777 -0.162268
C58   C     C_R   0.611770 0.734507 0.895991 -0.161540
C59   C     C_R   0.261200 0.665923 0.998256 0.153251
C60   C     C_R   0.191250 0.624333 0.091735 -0.115164
C61   C     C_R   0.858357 0.257397 0.000401 0.143870
C62   C     C_R   0.744926 0.673713 0.997857 0.146046
C63   C     C_R   0.141415 0.259330 0.996545 0.139059
C64   C     C_R   0.761200 0.165923 0.998257 0.153246
C65   C     C_R   0.358357 0.757397 0.000400 0.143866
C66   C     C_R   0.244925 0.173712 0.997857 0.146047
C67   C     C_R   0.641415 0.759330 0.996545 0.139056
C68   C     C_R   0.894995 0.447682 0.465844 -0.153253
C69   C     C_R   0.891683 0.547072 0.369353 -0.170276
C70   C     C_R   0.899673 0.447361 0.376401 -0.170263
C71   C     C_R   0.850581 0.347056 0.908619 -0.078011
C72   C     C_R   0.887209 0.547424 0.459260 -0.192779
C73   C     C_R   0.394995 0.947682 0.465845 -0.153250
C74   C     C_R   0.391684 0.047072 0.369353 -0.170271
C75   C     C_R   0.399674 0.947361 0.376402 -0.170265
C76   C     C_R   0.387209 0.047424 0.459260 -0.192778
C77   C     C_R   0.910139 0.497393 0.337492 0.145822
C78   C     C_R   0.899885 0.497983 0.515298 0.143027
C79   C     C_R   0.410140 0.997393 0.337493 0.145826
C80   C     C_R   0.399884 0.997983 0.515298 0.143024
C81   C     C_R   0.945029 0.348102 0.093024 -0.143582
C82   C     C_R   0.311319 0.127459 0.906369 -0.121768
C83   C     C_R   0.096251 0.623571 0.905692 -0.107158
C84   C     C_R   0.055277 0.349100 0.905612 -0.121958
C85   C     C_R   0.909246 0.632669 0.091612 -0.107523
C86   C     C_R   0.445029 0.848102 0.093024 -0.143589
C87   C     C_R   0.596251 0.123571 0.905693 -0.107158
C88   C     C_R   0.555276 0.849100 0.905612 -0.121958
C89   C     C_R   0.409245 0.132669 0.091612 -0.107519
C90   C     C_R   0.990016 0.544798 0.260705 -0.149761
C91   C     C_R   0.953818 0.453383 0.697049 -0.150901
C92   C     C_R   0.949011 0.545471 0.693827 -0.139692
C93   C     C_R   0.649352 0.847532 0.090891 -0.102587
C94   C     C_R   0.983280 0.452568 0.251172 -0.151420
C95   C     C_R   0.490018 0.044798 0.260707 -0.149750
C96   C     C_R   0.453818 0.953383 0.697049 -0.150900
C97   C     C_R   0.449011 0.045471 0.693827 -0.139688
C98   C     C_R   0.483280 0.952568 0.251173 -0.151428
C99   C     C_R   0.744385 0.454451 0.694943 0.489429
C100  C     C_R   0.255349 0.545806 0.305203 0.440678
C101  C     C_R   0.257189 0.455592 0.304414 0.474956
C102  C     C_R   0.745908 0.544943 0.693769 0.438404
C103  C     C_R   0.244386 0.954451 0.694941 0.489416
C104  C     C_R   0.691250 0.124333 0.091736 -0.115164
C105  C     C_R   0.755349 0.045806 0.305204 0.440675
C106  C     C_R   0.757189 0.955592 0.304415 0.474965
C107  C     C_R   0.245910 0.044944 0.693768 0.438420
C108  C     C_R   0.818131 0.644493 0.999166 0.009058
C109  C     C_R   0.116902 0.316509 0.997216 0.024235
C110  C     C_R   0.187400 0.636555 0.998032 0.001336
C111  C     C_R   0.882543 0.315464 0.001250 0.019351
C112  C     C_R   0.318130 0.144492 0.999166 0.009063
C113  C     C_R   0.616901 0.816509 0.997216 0.024235
C114  C     C_R   0.687401 0.136555 0.998033 0.001329
C115  C     C_R   0.350580 0.847056 0.908618 -0.078008
C116  C     C_R   0.382543 0.815464 0.001250 0.019354
C117  C     C_R   0.956431 0.498211 0.281904 0.065411
C118  C     C_R   0.934462 0.499050 0.631334 0.033486
C119  C     C_R   0.456433 0.998211 0.281906 0.065409
C120  C     C_R   0.434462 0.999050 0.631334 0.033483
C121  C     C_R   0.693903 0.499264 0.632100 -0.243122
C122  C     C_R   0.307468 0.500854 0.366450 -0.223801
C123  C     C_R   0.193905 0.999264 0.632097 -0.243134
C124  C     C_R   0.807468 0.000854 0.366451 -0.223808
C125  C     C_3   0.528992 0.451013 0.551583 -0.280409
C126  C     C_3   0.408827 0.501134 0.436799 0.116800
C127  C     C_3   0.470994 0.548982 0.444102 -0.403461
C128  C     C_3   0.466737 0.458085 0.424145 -0.285923
C129  C     C_3   0.533937 0.542050 0.571864 -0.366528
C130  C     C_3   0.028995 0.951014 0.551581 -0.280280
C131  C     C_3   0.970992 0.048982 0.444098 -0.403442
C132  C     C_3   0.966737 0.958086 0.424143 -0.285944
C133  C     C_3   0.033939 0.042051 0.571861 -0.366662
C134  C     C_3   0.470866 0.494340 0.561674 0.606605
C135  C     C_3   0.529926 0.505584 0.434410 0.584937
C136  C     C_3   0.970870 0.994341 0.561673 0.606622
H1    H     H_    0.752299 0.631455 0.820845 0.152511
H2    H     H_    0.068097 0.628782 0.819422 0.093813
H3    H     H_    0.645740 0.888745 0.301014 0.092423
H4    H     H_    0.828752 0.889602 0.542528 0.228283
H5    H     H_    0.743120 0.944348 0.479689 0.209769
H6    H     H_    0.618832 0.880479 0.454570 0.266833
H7    H     H_    0.719206 0.885814 0.598103 0.278166
H8    H     H_    0.704607 0.825416 0.518455 0.268382
H9    H     H_    0.128861 0.101102 0.493077 0.142804
H10   H     H_    0.237386 0.070409 0.525324 0.117927
H11   H     H_    0.208341 0.192590 0.554433 0.209739
H12   H     H_    0.314470 0.162755 0.582217 0.193781
H13   H     H_    0.008425 0.335908 0.820048 0.077551
H14   H     H_    0.225078 0.134924 0.381191 0.271857
H15   H     H_    0.220649 0.208284 0.397537 0.268270
H16   H     H_    0.119241 0.165663 0.354182 0.267955
H17   H     H_    0.548415 0.523822 0.766536 0.103557
H18   H     H_    0.553674 0.449638 0.753114 0.114409
H19   H     H_    0.417655 0.510489 0.786702 0.200251
H20   H     H_    0.420560 0.437018 0.770637 0.205041
H21   H     H_    0.587630 0.434592 0.941982 0.272817
H22   H     H_    0.508427 0.463463 0.969849 0.276011
H23   H     H_    0.584912 0.508455 0.957852 0.268684
H24   H     H_    0.942227 0.648536 0.174168 0.085374
H25   H     H_    0.498472 0.579079 0.286371 0.095878
H26   H     H_    0.436072 0.514195 0.223924 0.103416
H27   H     H_    0.620087 0.550921 0.255235 0.210528
H28   H     H_    0.550647 0.489991 0.183993 0.201762
H29   H     H_    0.413304 0.550050 0.045527 0.269968
H30   H     H_    0.517287 0.564134 0.050038 0.277962
H31   H     H_    0.485310 0.610683 0.117111 0.277575
H32   H     H_    0.048222 0.023979 0.766473 0.103581
H33   H     H_    0.053891 0.949814 0.753231 0.114389
H34   H     H_    0.917488 0.010339 0.786608 0.200269
H35   H     H_    0.492996 0.834067 0.177660 0.080153
H36   H     H_    0.920825 0.936884 0.770742 0.204999
H37   H     H_    0.087892 0.934754 0.942127 0.272815
H38   H     H_    0.008507 0.963442 0.969885 0.275998
H39   H     H_    0.084761 0.008603 0.957790 0.268656
H40   H     H_    0.998498 0.079094 0.286397 0.095880
H41   H     H_    0.936058 0.014224 0.223926 0.103410
H42   H     H_    0.120080 0.050912 0.255220 0.210534
H43   H     H_    0.050592 0.990001 0.183946 0.201755
H44   H     H_    0.913282 0.050102 0.045543 0.269971
H45   H     H_    0.017260 0.064154 0.050028 0.277948
H46   H     H_    0.568098 0.128783 0.819423 0.093812
H47   H     H_    0.985350 0.110712 0.117155 0.277566
H48   H     H_    0.508425 0.835907 0.820048 0.077551
H49   H     H_    0.442226 0.148535 0.174168 0.085374
H50   H     H_    0.992171 0.585780 0.288940 0.086671
H51   H     H_    0.942570 0.410626 0.672596 0.086953
H52   H     H_    0.929521 0.587277 0.664375 0.092084
H53   H     H_    0.188538 0.333199 0.175257 0.122109
H54   H     H_    0.971487 0.409713 0.258899 0.097730
H55   H     H_    0.492173 0.085780 0.288942 0.086666
H56   H     H_    0.442570 0.910627 0.672596 0.086954
H57   H     H_    0.429521 0.087277 0.664375 0.092084
H58   H     H_    0.471487 0.909713 0.258900 0.097731
H59   H     H_    0.547177 0.410539 0.593898 0.190818
H60   H     H_    0.444920 0.588857 0.399500 0.162311
H61   H     H_    0.438939 0.424535 0.361474 0.176025
H62   H     H_    0.563030 0.576073 0.633715 0.154527
H63   H     H_    0.047179 0.910543 0.593904 0.190842
H64   H     H_    0.250586 0.629670 0.176760 0.153747
H65   H     H_    0.944916 0.088857 0.399496 0.162303
H66   H     H_    0.938939 0.924535 0.361473 0.176031
H67   H     H_    0.063034 0.076077 0.633707 0.154514
H68   H     H_    0.767228 0.248352 0.820016 0.104096
H69   H     H_    0.365256 0.667369 0.178157 0.105614
H70   H     H_    0.228551 0.248309 0.176382 0.109198
H71   H     H_    0.644032 0.676561 0.817316 0.107672
H72   H     H_    0.267226 0.748353 0.820015 0.104100
H73   H     H_    0.865255 0.167370 0.178158 0.105611
H74   H     H_    0.728550 0.748309 0.176382 0.109198
H75   H     H_    0.813181 0.332316 0.824807 0.114547
H76   H     H_    0.144031 0.176560 0.817316 0.107667
H77   H     H_    0.183245 0.669557 0.818780 0.108330
H78   H     H_    0.947514 0.247576 0.179799 0.110499
H79   H     H_    0.818687 0.673799 0.176888 0.104369
H80   H     H_    0.055834 0.251540 0.816685 0.105187
H81   H     H_    0.683247 0.169556 0.818782 0.108329
H82   H     H_    0.447515 0.747575 0.179798 0.110500
H83   H     H_    0.318686 0.173799 0.176888 0.104369
H84   H     H_    0.555834 0.751540 0.816685 0.105189
H85   H     H_    0.898819 0.408501 0.502587 0.113521
H86   H     H_    0.252298 0.131453 0.820844 0.152505
H87   H     H_    0.890858 0.586172 0.333663 0.107819
H88   H     H_    0.906229 0.407960 0.347765 0.109915
H89   H     H_    0.884139 0.586838 0.490748 0.115528
H90   H     H_    0.398819 0.908501 0.502587 0.113521
H91   H     H_    0.390859 0.086172 0.333664 0.107818
H92   H     H_    0.406230 0.907961 0.347766 0.109915
H93   H     H_    0.384138 0.086838 0.490747 0.115529
H94   H     H_    0.729666 0.327224 0.623019 0.135503
H95   H     H_    0.825386 0.374001 0.674291 0.075263
H96   H     H_    0.623795 0.393291 0.458968 0.229689
H97   H     H_    0.688538 0.833199 0.175257 0.122108
H98   H     H_    0.730536 0.430198 0.502286 0.204634
H99   H     H_    0.796555 0.339234 0.488164 0.254362
H100  H     H_    0.693752 0.364132 0.358143 0.281741
H101  H     H_    0.681969 0.308360 0.430025 0.268613
H102  H     H_    0.314337 0.650105 0.473380 0.121848
H103  H     H_    0.356199 0.581931 0.509541 0.141240
H104  H     H_    0.150958 0.620425 0.399320 0.198934
H105  H     H_    0.189050 0.549526 0.433718 0.199491
H106  H     H_    0.300374 0.575244 0.634072 0.278691
H107  H     H_    0.179706 0.592366 0.578053 0.271047
H108  H     H_    0.750586 0.129669 0.176761 0.153739
H109  H     H_    0.261278 0.646110 0.600177 0.258959
H110  H     H_    0.227584 0.333927 0.366993 0.122509
H111  H     H_    0.145741 0.388745 0.301014 0.092422
H112  H     H_    0.328752 0.389608 0.542529 0.228271
H113  H     H_    0.243115 0.444351 0.479685 0.209769
H114  H     H_    0.118832 0.380478 0.454570 0.266831
H115  H     H_    0.219204 0.385819 0.598103 0.278155
H116  H     H_    0.204612 0.325420 0.518464 0.268382
H117  H     H_    0.628861 0.601100 0.493075 0.142812
H118  H     H_    0.737389 0.570409 0.525330 0.117928
H119  H     H_    0.313181 0.832317 0.824806 0.114548
H120  H     H_    0.708334 0.692590 0.554431 0.209738
H121  H     H_    0.814468 0.662757 0.582223 0.193783
H122  H     H_    0.725086 0.634926 0.381199 0.271852
H123  H     H_    0.720647 0.708285 0.397540 0.268271
H124  H     H_    0.619243 0.665660 0.354182 0.267959
H125  H     H_    0.229666 0.827224 0.623018 0.135504
H126  H     H_    0.325387 0.874000 0.674290 0.075262
H127  H     H_    0.123795 0.893291 0.458966 0.229687
H128  H     H_    0.230537 0.930197 0.502284 0.204631
H129  H     H_    0.296556 0.839233 0.488164 0.254360
H130  H     H_    0.992996 0.334067 0.177660 0.080150
H131  H     H_    0.193753 0.864131 0.358142 0.281741
H132  H     H_    0.181969 0.808359 0.430024 0.268613
H133  H     H_    0.814334 0.150104 0.473385 0.121843
H134  H     H_    0.856208 0.081931 0.509543 0.141204
H135  H     H_    0.650966 0.120416 0.399350 0.198931
H136  H     H_    0.689063 0.049518 0.433733 0.199490
H137  H     H_    0.800407 0.075230 0.634090 0.278693
H138  H     H_    0.679739 0.092344 0.578091 0.271049
H139  H     H_    0.761299 0.146095 0.600206 0.258960
H140  H     H_    0.727582 0.833926 0.366988 0.122509
N1    N     N_R   0.892620 0.603790 0.941800 -0.033535
N2    N     N_R   0.047790 0.602400 0.942090 -0.040135
N3    N     N_R   0.047790 0.397600 0.942090 -0.041584
N4    N     N_R   0.952210 0.602400 0.057910 -0.037366
N5    N     N_R   0.452210 0.897600 0.057910 -0.040919
N6    N     N_R   0.547790 0.102400 0.942090 -0.040134
N7    N     N_R   0.547790 0.897600 0.942090 -0.041584
N8    N     N_R   0.452210 0.102400 0.057910 -0.037366
N9    N     N_R   0.026300 0.529110 0.206760 -0.045058
N10   N     N_R   0.973700 0.470890 0.793240 -0.047505
N11   N     N_R   0.973700 0.529110 0.793240 -0.040614
N12   N     N_R   0.107380 0.396210 0.058200 -0.041608
N13   N     N_R   0.026300 0.470890 0.206760 -0.056785
N14   N     N_R   0.526300 0.029110 0.206760 -0.045055
N15   N     N_R   0.473700 0.970890 0.793240 -0.047505
N16   N     N_R   0.473700 0.029110 0.793240 -0.040615
N17   N     N_R   0.526300 0.970890 0.206760 -0.056785
N18   N     N_R   0.818530 0.472270 0.792960 -0.120427
N19   N     N_R   0.181470 0.527730 0.207040 -0.114681
N20   N     N_R   0.181470 0.472270 0.207040 -0.129444
N21   N     N_R   0.818530 0.527730 0.792960 -0.110450
N22   N     N_R   0.318530 0.972270 0.792960 -0.120426
N23   N     N_R   0.107380 0.603790 0.058200 -0.033533
N24   N     N_R   0.681470 0.027730 0.207040 -0.114680
N25   N     N_R   0.681470 0.972270 0.207040 -0.129445
N26   N     N_R   0.318530 0.027730 0.792960 -0.110451
N27   N     N_R   0.892620 0.396210 0.941800 -0.038429
N28   N     N_R   0.392620 0.103790 0.941800 -0.033535
N29   N     N_R   0.607380 0.896210 0.058200 -0.041608
N30   N     N_R   0.607380 0.103790 0.058200 -0.033532
N31   N     N_R   0.392620 0.896210 0.941800 -0.038431
N32   N     N_R   0.952210 0.397600 0.057910 -0.040918
Ni1   Ni    Ni4+2 0.934150 0.565840 0.869060 0.237524
Ni2   Ni    Ni4+2 0.065850 0.434160 0.130940 0.194118
Ni3   Ni    Ni4+2 0.065850 0.565840 0.130940 0.234687
Ni4   Ni    Ni4+2 0.934150 0.434160 0.869060 0.199524
Ni5   Ni    Ni4+2 0.434150 0.065840 0.869060 0.237526
Ni6   Ni    Ni4+2 0.565850 0.934160 0.130940 0.194118
Ni7   Ni    Ni4+2 0.565850 0.065840 0.130940 0.234693
Ni8   Ni    Ni4+2 0.434150 0.934160 0.869060 0.199523
O1    O     O_3   0.711813 0.400697 0.674227 -0.678809
O2    O     O_3   0.569625 0.508503 0.374577 -0.690822
O3    O     O_3   0.932317 0.988477 0.622292 -0.691263
O4    O     O_3   0.069617 0.008504 0.374564 -0.690813
O5    O     O_3   0.265292 0.600559 0.338570 -0.682581
O6    O     O_3   0.280751 0.401356 0.337611 -0.666075
O7    O     O_3   0.738471 0.599315 0.659672 -0.685541
O8    O     O_3   0.211813 0.900698 0.674225 -0.678807
O9    O     O_3   0.765288 0.100558 0.338573 -0.682575
O10   O     O_3   0.780751 0.901356 0.337610 -0.666071
O11   O     O_3   0.238476 0.099315 0.659672 -0.685539
O12   O     O_3   0.432306 0.488490 0.622286 -0.691278

loop_
_geom_bond_atom_site_label_1
_geom_bond_atom_site_label_2
_ccdc_geom_bond_type
C126  C127  S    
N14   N17   A    
N15   N16   A    
C103  C123  A    
C87   H46   S    
C56   H82   S    
N3    Ni4   S    
C22   H139  S    
C54   H80   S    
C11   H113  S    
C3    C131  S    
C106  N25   A    
C52   C61   A    
C5    C6    S    
C94   C117  A    
C62   C108  S    
C54   C63   A    
C136  O3    S    
C84   N3    A    
N22   N26   A    
C95   N14   A    
C97   H57   S    
C128  H61   S    
C17   O8    S    
C82   N28   A    
C30   O12   S    
C10   H110  S    
N17   Ni6   S    
C15   H121  S    
C99   C121  A    
C21   C22   S    
C73   C75   A    
C102  N21   A    
C100  N19   A    
C37   H32   S    
C42   H45   S    
N25   Ni6   S    
C90   C117  A    
C25   H4    S    
C46   C65   A    
C128  C135  S    
C47   C64   A    
C13   C124  S    
C33   O2    S    
C90   H50   S    
C95   C119  A    
N29   Ni6   S    
C33   H25   S    
C94   H54   S    
C1    N1    A    
C37   C38   S    
C16   H122  S    
C44   C57   A    
C27   H9    S    
C91   C118  A    
N11   Ni1   S    
N16   Ni5   S    
C71   H75   S    
C72   H89   S    
N26   Ni5   S    
N14   Ni7   S    
C11   H112  S    
N24   N25   A    
C2    C121  S    
C6    H100  S    
C28   H11   S    
C71   N27   A    
C4    C5    S    
C135  O2    S    
C47   C52   A    
C82   H86   S    
C101  C122  A    
N7    Ni8   S    
N1    Ni1   S    
C73   H90   S    
C13   C132  S    
C48   C67   A    
C35   H68   S    
C60   H64   S    
C58   C67   A    
C30   H18   S    
C20   C21   S    
C126  C134  S    
C106  C124  A    
C75   C79   A    
C20   H133  S    
C83   H2    S    
C21   H136  S    
C133  H67   S    
C103  N22   A    
C7    O5    S    
C69   C77   A    
C57   C66   A    
C99   N18   A    
N5    N31   A    
C31   H20   S    
C27   O11   S    
C7    C8    S    
N4    Ni3   S    
C46   H72   S    
C12   H115  S    
C74   C76   A    
C78   C118  S    
C34   H28   S    
C37   H33   S    
C38   C39   S    
C16   H124  S    
C88   H48   S    
C125  H59   S    
C115  C116  A    
N9    N13   A    
C45   C62   A    
C2    C129  S    
C17   H126  S    
C99   O1    S    
C92   C118  A    
C72   C78   A    
C58   H84   S    
C85   H24   S    
C102  C121  A    
C22   H137  S    
C43   C59   A    
C84   H13   S    
C50   H76   S    
C70   C77   A    
C3    C24   S    
C92   N11   A    
C36   H30   S    
N32   Ni2   S    
C8    H104  S    
C48   C53   A    
C64   C114  S    
C103  O8    S    
C39   H39   S    
N22   Ni8   S    
C40   H40   S    
N9    Ni3   S    
C25   C26   S    
N10   Ni4   S    
C46   C51   A    
C24   C123  S    
C69   H87   S    
C63   C109  S    
C69   C72   A    
C127  C129  S    
C29   H15   S    
C31   C32   S    
C14   H118  S    
C106  O10   S    
C52   H78   S    
C17   C18   S    
C83   C110  A    
C35   C61   A    
C5    H98   S    
C47   H73   S    
C98   N17   A    
N5    Ni6   S    
C130  H63   S    
C9    H107  S    
C1    H1    S    
C19   H131  S    
C32   H21   S    
N8    Ni7   S    
C91   H51   S    
C89   N8    A    
C126  C128  S    
C89   H49   S    
C41   H43   S    
C115  N31   A    
C76   C80   A    
C7    H103  S    
C92   H52   S    
C38   H36   S    
N27   N32   A    
C132  H66   S    
C2    C135  S    
C96   H56   S    
C87   N6    A    
C18   H127  S    
C8    H105  S    
C36   H29   S    
C13   C136  S    
C34   C36   S    
C10   C11   S    
C40   H41   S    
C2    C125  S    
C24   C130  S    
N1    N4    A    
C14   C15   S    
C39   H38   S    
C10   H111  S    
C100  O5    S    
C26   H7    S    
C125  C134  S    
C49   N12   A    
C41   C42   S    
C107  C123  A    
C39   H37   S    
N28   Ni5   S    
C55   H81   S    
C89   C112  A    
C50   C54   A    
N30   Ni7   S    
C28   C29   S    
C127  C135  S    
N6    N30   A    
C30   C31   S    
C20   O9    S    
C12   H114  S    
C98   H58   S    
C18   C19   S    
C79   C119  S    
C70   H88   S    
C105  N24   A    
N2    Ni1   S    
C85   C108  A    
C9    H109  S    
C40   O4    S    
C19   H129  S    
C32   H23   S    
C53   H79   S    
C134  O12   S    
C94   N13   A    
C38   H34   S    
C44   C63   A    
C68   C78   A    
C6    H101  S    
C45   C58   A    
C28   H12   S    
C3    C132  S    
C4    H95   S    
N18   N21   A    
N19   N20   A    
C93   H97   S    
C60   N23   A    
C36   H31   S    
C104  N30   A    
C105  C124  A    
N15   Ni8   S    
C82   C112  A    
C130  C132  S    
C23   H140  S    
N2    N23   A    
C7    H102  S    
C11   C12   S    
C44   H70   S    
C13   C131  S    
C5    H96   S    
C93   C113  A    
C3    O4    S    
N21   Ni1   S    
N20   Ni2   S    
C20   H134  S    
C21   H135  S    
C25   H5    S    
C84   C109  A    
C31   H19   S    
C12   H116  S    
C102  O7    S    
C33   H26   S    
C127  H60   S    
C27   H10   S    
C37   O3    S    
C10   O6    S    
C17   H125  S    
C131  H65   S    
N6    Ni5   S    
C60   C110  A    
C129  C134  S    
N18   Ni4   S    
C101  O6    S    
C76   H93   S    
C91   N10   A    
C4    O1    S    
C22   H138  S    
N27   Ni4   S    
C24   C133  S    
C6    H99   S    
C80   C120  S    
C43   H69   S    
C68   H85   S    
C96   N15   A    
C83   N2    A    
C98   C119  A    
C23   H3    S    
C75   H92   S    
C77   C117  S    
N10   N11   A    
C49   H53   S    
N24   Ni7   S    
C15   C16   S    
C88   C113  A    
C59   C110  S    
C86   C116  A    
C87   C114  A    
C29   H14   S    
C42   H44   S    
C73   C80   A    
C30   H17   S    
N19   Ni3   S    
C81   C111  A    
C8    C9    S    
C71   C111  A    
C125  C128  S    
C129  H62   S    
C95   H55   S    
C51   H77   S    
C45   H71   S    
C26   H8    S    
C9    H106  S    
N12   Ni2   S    
C32   H22   S    
C15   H120  S    
C35   C55   A    
C86   H35   S    
C41   H42   S    
C34   H27   S    
C16   H123  S    
C57   H83   S    
C104  H108  S    
C4    H94   S    
C122  C126  S    
C18   H128  S    
C74   H91   S    
C107  N26   A    
C133  C136  S    
C53   C62   A    
C55   C64   A    
C90   N9    A    
C105  O9    S    
C33   C34   S    
C85   N4    A    
C107  O11   S    
C50   C66   A    
C104  C114  A    
N23   Ni3   S    
C40   C41   S    
C48   H74   S    
C81   H130  S    
C65   C116  S    
C51   C59   A    
C61   C111  S    
C88   N7    A    
C49   C109  A    
N13   Ni2   S    
C93   N29   A    
N8    N28   A    
C96   C120  A    
C130  C136  S    
C131  C133  S    
C101  N20   A    
C14   O7    S    
C56   C65   A    
C42   H47   S    
C74   C79   A    
C97   N16   A    
N3    N12   A    
C97   C120  A    
C67   C113  S    
C29   H16   S    
C23   O10   S    
C14   H117  S    
C86   N5    A    
C100  C122  A    
C23   C25   S    
C1    C108  A    
C43   C56   A    
C115  H119  S    
C68   C70   A    
C27   C28   S    
N31   Ni8   S    
C66   C112  S    
C26   H6    S    
N7    N29   A    
C81   N32   A    
C19   H132  S    
