data_mof_unit_16348.cif
_audit_creation_date              2012-10-26T20:43:35-0400
_audit_creation_method            fapswitch 2.2
_symmetry_space_group_name_H-M    P1
_symmetry_Int_Tables_number       1
_space_group_crystal_system       triclinic
_cell_length_a                    10.822735
_cell_length_b                    9.675349
_cell_length_c                    23.522662
_cell_angle_alpha                 90.008579
_cell_angle_beta                  94.961675
_cell_angle_gamma                 89.968942
_cell_volume                      2453.9155327

loop_
_atom_site_label
_atom_site_type_symbol
_atom_type_description
_atom_site_fract_x
_atom_site_fract_y
_atom_site_fract_z
_atom_type_partial_charge
C1    C     C_R   0.262487 0.500021 0.499788 0.543865
C2    C     C_R   0.493212 0.374710 0.701446 -0.145126
C3    C     C_R   0.492941 0.375210 0.238637 -0.057096
C4    C     C_R   0.492318 0.374865 0.760695 -0.057790
C5    C     C_R   0.500810 0.500183 0.209255 0.250995
C6    C     C_R   0.499184 0.499825 0.790744 0.251028
C7    C     C_R   0.064029 0.374437 0.500232 -0.135315
C8    C     C_R   0.935971 0.625563 0.499769 -0.135317
C9    C     C_R   0.936223 0.374413 0.500409 -0.135373
C10   C     C_R   0.063777 0.625587 0.499591 -0.135375
C11   C     C_R   0.871598 0.499976 0.500174 0.023490
C12   C     C_R   0.737513 0.499979 0.500211 0.543864
C13   C     C_R   0.128402 0.500024 0.499825 0.023491
C14   C     C_R   0.418976 0.074189 0.462786 0.125841
C15   C     C_R   0.581022 0.925811 0.537214 0.125834
C16   C     C_R   0.580958 0.074139 0.537242 0.125405
C17   C     C_R   0.419043 0.925861 0.462757 0.125400
C18   C     C_R   0.499484 0.500005 0.391110 0.544024
C19   C     C_R   0.500517 0.499995 0.608890 0.544025
C20   C     C_R   0.608039 0.513489 0.884288 0.395435
C21   C     C_R   0.391954 0.486534 0.115710 0.395434
C22   C     C_R   0.388090 0.486078 0.875332 0.398366
C23   C     C_R   0.507819 0.625122 0.239313 -0.057793
C24   C     C_R   0.611905 0.513927 0.124666 0.398364
C25   C     C_R   0.384348 0.485835 0.935514 0.039789
C26   C     C_R   0.615646 0.514178 0.064484 0.039792
C27   C     C_R   0.498566 0.499851 0.969838 -0.043172
C28   C     C_R   0.501428 0.500166 0.030160 -0.043172
C29   C     C_R   0.610394 0.513637 0.943889 0.014896
C30   C     C_R   0.389600 0.486383 0.056109 0.014898
C31   C     C_R   0.272242 0.472445 0.962799 -0.019026
C32   C     C_R   0.727752 0.527572 0.037199 -0.019025
C33   C     C_R   0.277160 0.472908 0.022442 -0.103596
C34   C     C_R   0.506917 0.624814 0.761356 -0.057101
C35   C     C_R   0.722834 0.527114 0.977555 -0.103597
C36   C     C_3   0.145703 0.457652 0.930728 -0.335925
C37   C     C_3   0.854291 0.542366 0.069269 -0.335924
C38   C     C_3   0.326101 0.145898 0.420393 -0.338980
C39   C     C_3   0.673889 0.854102 0.579612 -0.338977
C40   C     C_3   0.673152 0.145817 0.579937 -0.338855
C41   C     C_3   0.326853 0.854183 0.420060 -0.338852
C42   C     C_R   0.506927 0.625276 0.298561 -0.145139
C43   C     C_R   0.507317 0.625066 0.702088 -0.144755
C44   C     C_R   0.499528 0.500073 0.328462 0.005483
C45   C     C_R   0.500473 0.499929 0.671539 0.005489
C46   C     C_R   0.492546 0.374954 0.297906 -0.144760
Cu1   Cu    Cu3+1 0.500000 0.640660 0.500000 0.911557
Cu2   Cu    Cu3+1 0.500000 0.359340 0.500000 0.911570
H1    H     H_    0.191602 0.462640 0.042862 0.160622
H2    H     H_    0.486486 0.277970 0.783339 0.123327
H3    H     H_    0.112079 0.276190 0.500474 0.130419
H4    H     H_    0.887921 0.723810 0.499526 0.130420
H5    H     H_    0.888375 0.276160 0.500696 0.130265
H6    H     H_    0.111625 0.723840 0.499304 0.130266
H7    H     H_    0.124515 0.550069 0.903657 0.188035
H8    H     H_    0.142279 0.362367 0.904349 0.185596
H9    H     H_    0.070563 0.448873 0.959856 0.098846
H10   H     H_    0.875483 0.449946 0.096338 0.188040
H11   H     H_    0.929430 0.551155 0.040142 0.098846
H12   H     H_    0.808391 0.537384 0.957136 0.160621
H13   H     H_    0.857711 0.637647 0.095651 0.185592
H14   H     H_    0.326617 0.257720 0.420206 0.200086
H15   H     H_    0.342972 0.115989 0.376207 0.092291
H16   H     H_    0.230274 0.117084 0.428956 0.091386
H17   H     H_    0.673383 0.742279 0.579793 0.200093
H18   H     H_    0.769719 0.882925 0.571057 0.091380
H19   H     H_    0.656999 0.883999 0.623796 0.092315
H20   H     H_    0.673517 0.257632 0.579686 0.200524
H21   H     H_    0.654588 0.117043 0.624044 0.094621
H22   H     H_    0.769189 0.115947 0.572131 0.090435
H23   H     H_    0.513761 0.722005 0.216674 0.123357
H24   H     H_    0.326482 0.742368 0.420315 0.200529
H25   H     H_    0.230815 0.884059 0.427861 0.090428
H26   H     H_    0.345430 0.882949 0.375954 0.094648
H27   H     H_    0.512230 0.721677 0.784505 0.123460
H28   H     H_    0.512473 0.723285 0.320870 0.130214
H29   H     H_    0.513016 0.723123 0.680298 0.127411
H30   H     H_    0.486739 0.276911 0.319690 0.127387
H31   H     H_    0.487780 0.276685 0.679144 0.130183
H32   H     H_    0.487517 0.278362 0.215483 0.123487
N1    N     N_R   0.498408 0.499795 0.851639 -0.396706
N2    N     N_R   0.501586 0.500217 0.148359 -0.396702
N3    N     N_R   0.500000 0.852070 0.500000 -0.224140
N4    N     N_R   0.500000 0.147930 0.500000 -0.224137
O1    O     O_R   0.319640 0.618740 0.500000 -0.516710
O2    O     O_2   0.285297 0.473643 0.141073 -0.502192
O3    O     O_2   0.283467 0.473348 0.840287 -0.509101
O4    O     O_2   0.716530 0.526639 0.159710 -0.509112
O5    O     O_R   0.680360 0.381260 0.500000 -0.516708
O6    O     O_R   0.680360 0.618740 0.500000 -0.517045
O7    O     O_R   0.319640 0.381260 0.500000 -0.517042
O8    O     O_R   0.499960 0.618810 0.417880 -0.513425
O9    O     O_R   0.500040 0.381190 0.582120 -0.513416
O10   O     O_R   0.500040 0.618810 0.582120 -0.512410
O11   O     O_R   0.499960 0.381190 0.417880 -0.512400
O12   O     O_2   0.714694 0.526394 0.858924 -0.502182

loop_
_geom_bond_atom_site_label_1
_geom_bond_atom_site_label_2
_ccdc_geom_bond_type
C25   C31   A    
C26   C32   A    
Cu2   O11   S    
C27   C29   A    
Cu1   O8    S    
C14   N4    A    
C23   C42   A    
C40   H22   S    
Cu1   O1    S    
C12   O6    A    
C24   C26   A    
C33   H1    S    
C15   C16   A    
C16   N4    A    
C24   N2    A    
C2    H31   S    
C41   H26   S    
Cu2   O7    S    
C31   C33   A    
Cu1   N3    S    
C8    H4    S    
C37   H10   S    
C19   O9    A    
C34   H27   S    
C20   O12   S    
C1    O7    A    
C6    N1    S    
C20   N1    A    
C18   O11   A    
C39   H17   S    
C14   C17   A    
C9    H5    S    
C42   C44   A    
C3    H32   S    
C26   C28   A    
C44   C46   A    
C38   H16   S    
C20   C29   A    
C2    C45   A    
C1    O1    A    
Cu2   O9    S    
C22   N1    A    
C23   H23   S    
C12   O5    A    
C4    C6    A    
C36   H9    S    
C40   H21   S    
C46   H30   S    
C15   N3    A    
C22   O3    S    
C22   C25   A    
Cu2   N4    S    
C4    H2    S    
C35   H12   S    
C17   N3    A    
C2    C4    A    
C32   C35   A    
C36   H8    S    
C18   C44   S    
C14   C38   S    
C24   O4    S    
Cu1   Cu2   S    
C5    C23   A    
C32   C37   S    
C9    C11   A    
C15   C39   S    
C37   H11   S    
C19   O10   A    
C16   C40   S    
C41   H24   S    
Cu2   O5    S    
C39   H18   S    
C25   C27   A    
C38   H15   S    
C7    C9    A    
C21   O2    S    
C30   C33   A    
C39   H19   S    
C34   C43   A    
C3    C5    A    
C10   C13   A    
C37   H13   S    
C11   C12   S    
C19   C45   S    
C43   H29   S    
C21   C30   A    
C29   C35   A    
C3    C46   A    
C42   H28   S    
C18   O8    A    
C28   C30   A    
C7    H3    S    
C43   C45   A    
C36   H7    S    
C5    N2    S    
C8    C11   A    
Cu1   O6    S    
Cu1   O10   S    
C10   H6    S    
C17   C41   S    
C41   H25   S    
C6    C34   A    
C7    C13   A    
C1    C13   S    
C21   N2    A    
C8    C10   A    
C40   H20   S    
C27   C28   A    
C31   C36   S    
C38   H14   S    
