data_mof_unit_51216.cif
_audit_creation_date              2012-12-10T19:14:57-0500
_audit_creation_method            fapswitch 2.2
_symmetry_space_group_name_H-M    P1
_symmetry_Int_Tables_number       1
_space_group_crystal_system       triclinic
_cell_length_a                    15.987699
_cell_length_b                    14.699739
_cell_length_c                    10.882307
_cell_angle_alpha                 89.983967
_cell_angle_beta                  89.9938
_cell_angle_gamma                 89.105377
_cell_volume                      2557.19353861

loop_
_atom_site_label
_atom_site_type_symbol
_atom_type_description
_atom_site_fract_x
_atom_site_fract_y
_atom_site_fract_z
_atom_type_partial_charge
C1    C     C_1   0.251999 0.502193 0.501683 -0.196298
C2    C     C_R   0.574340 0.046446 0.479599 0.320152
C3    C     C_R   0.954180 0.551767 0.588351 0.324506
C4    C     C_R   0.046428 0.447161 0.417285 0.315217
C5    C     C_R   0.041939 0.551895 0.591731 0.315683
C6    C     C_R   0.958947 0.442174 0.419235 0.335637
C7    C     C_R   0.340853 0.500679 0.500093 0.817809
C8    C     C_R   0.659237 0.499409 0.498841 0.816723
C9    C     C_R   0.510341 0.500041 0.261753 0.801496
C10   C     C_R   0.489045 0.500394 0.737974 0.797363
C11   C     C_R   0.912989 0.497037 0.501815 -0.223603
C12   C     C_1   0.748282 0.498244 0.497409 -0.198091
C13   C     C_R   0.087623 0.500211 0.505000 -0.220975
C14   C     C_1   0.499399 0.802725 0.501067 0.252520
C15   C     C_1   0.499917 0.197225 0.500201 0.272976
C16   C     C_1   0.823303 0.497756 0.497761 0.097578
C17   C     C_1   0.177096 0.502339 0.503391 0.091073
C18   C     C_R   0.536432 0.668918 0.114280 -0.293201
C19   C     C_R   0.454573 0.335634 0.889355 -0.315174
C20   C     C_R   0.460622 0.669801 0.884832 -0.294866
C21   C     C_R   0.541602 0.333483 0.110202 -0.312242
C22   C     C_R   0.516240 0.751528 0.057835 0.376875
C23   C     C_R   0.478808 0.501587 0.873646 -0.142683
C24   C     C_R   0.471506 0.252673 0.948133 0.398429
C25   C     C_R   0.479733 0.751955 0.941325 0.380333
C26   C     C_R   0.522876 0.251341 0.052045 0.396023
C27   C     C_R   0.484211 0.585219 0.938486 0.012086
C28   C     C_R   0.514512 0.417843 0.060079 0.013648
C29   C     C_R   0.513574 0.584800 0.060855 0.011054
C30   C     C_R   0.482812 0.418534 0.939480 0.012525
C31   C     C_3   0.111793 0.559117 0.774105 0.084424
C32   C     C_3   0.141406 0.624556 0.872588 -0.781882
C33   C     C_3   0.895852 0.306097 0.381878 0.085125
C34   C     C_R   0.519425 0.500872 0.125808 -0.140572
C35   C     C_3   0.965992 0.235346 0.366023 -0.783257
C36   C     C_3   0.877823 0.568618 0.765359 0.091941
C37   C     C_3   0.799660 0.619211 0.809518 -0.788980
C38   C     C_3   0.100377 0.444523 0.224027 0.125879
C39   C     C_3   0.154221 0.389435 0.134987 -0.830826
C40   C     C_3   0.632843 0.152977 0.058368 0.044000
C41   C     C_3   0.665194 0.062238 0.107790 -0.726159
C42   C     C_3   0.535240 0.867478 0.831184 0.090426
C43   C     C_3   0.526967 0.969858 0.815165 -0.723156
C44   C     C_3   0.359315 0.161162 0.942539 0.048755
C45   C     C_R   0.499295 0.902813 0.502134 -0.289365
C46   C     C_3   0.325248 0.071740 0.895074 -0.726186
C47   C     C_3   0.458400 0.864923 0.172361 0.090027
C48   C     C_3   0.463680 0.966808 0.194038 -0.741163
C49   C     C_3   0.683216 0.128644 0.557270 0.096051
C50   C     C_3   0.777952 0.123328 0.547550 -0.817159
C51   C     C_3   0.305865 0.875870 0.479298 0.071005
C52   C     C_3   0.254118 0.797771 0.528313 -0.708093
C53   C     C_3   0.313643 0.128303 0.441303 0.080257
C54   C     C_3   0.230913 0.175448 0.472241 -0.756100
C55   C     C_3   0.688872 0.873125 0.550051 0.078984
C56   C     C_R   0.499629 0.097059 0.500377 -0.274504
C57   C     C_3   0.773218 0.832692 0.512601 -0.717369
C58   C     C_R   0.573846 0.950128 0.478548 0.328833
C59   C     C_R   0.424656 0.049650 0.522428 0.315485
C60   C     C_R   0.425081 0.953122 0.527296 0.320165
Cu1   Cu    Cu3+1 0.500000 0.589220 0.500000 0.959429
Cu2   Cu    Cu3+1 0.500000 0.410780 0.500000 0.968845
H1    H     H_    0.571748 0.672341 0.198683 0.203279
H2    H     H_    0.840414 0.282244 0.330350 0.164397
H3    H     H_    0.876726 0.310234 0.480385 0.119048
H4    H     H_    0.018814 0.250514 0.428515 0.255128
H5    H     H_    0.942749 0.166667 0.388989 0.193891
H6    H     H_    0.988513 0.235003 0.269467 0.266082
H7    H     H_    0.925233 0.570325 0.839811 0.151170
H8    H     H_    0.860724 0.496363 0.748439 0.111120
H9    H     H_    0.750788 0.618320 0.736984 0.247307
H10   H     H_    0.774939 0.585998 0.893395 0.201790
H11   H     H_    0.814705 0.690922 0.831386 0.247745
H12   H     H_    0.416768 0.334512 0.806950 0.188965
H13   H     H_    0.131325 0.510878 0.240277 0.128207
H14   H     H_    0.038167 0.457003 0.180607 0.167507
H15   H     H_    0.124908 0.322798 0.116552 0.247633
H16   H     H_    0.160472 0.426881 0.046936 0.191565
H17   H     H_    0.217473 0.377583 0.174701 0.250578
H18   H     H_    0.675796 0.206937 0.090784 0.141466
H19   H     H_    0.634508 0.149848 0.955983 0.144229
H20   H     H_    0.626754 0.005853 0.072282 0.262563
H21   H     H_    0.730898 0.050795 0.077781 0.190931
H22   H     H_    0.663119 0.062185 0.209659 0.297111
H23   H     H_    0.425399 0.673827 0.800243 0.198956
H24   H     H_    0.545008 0.835377 0.740255 0.133236
H25   H     H_    0.592348 0.854359 0.887932 0.143454
H26   H     H_    0.524151 0.003507 0.906125 0.274447
H27   H     H_    0.581833 0.995556 0.764389 0.155637
H28   H     H_    0.469317 0.987350 0.763622 0.280113
H29   H     H_    0.317585 0.217205 0.908673 0.141166
H30   H     H_    0.357345 0.159384 0.044980 0.143382
H31   H     H_    0.362398 0.013632 0.932330 0.259281
H32   H     H_    0.259256 0.064545 0.924868 0.189099
H33   H     H_    0.327626 0.070226 0.793207 0.298780
H34   H     H_    0.579773 0.330325 0.192178 0.189869
H35   H     H_    0.450729 0.829825 0.261591 0.137909
H36   H     H_    0.401179 0.853468 0.115961 0.144932
H37   H     H_    0.463354 0.003451 0.105076 0.273218
H38   H     H_    0.409126 0.990639 0.248908 0.157189
H39   H     H_    0.521911 0.982896 0.243824 0.274666
H40   H     H_    0.664836 0.094387 0.644435 0.105522
H41   H     H_    0.664240 0.201523 0.562931 0.159757
H42   H     H_    0.798024 0.153656 0.459375 0.246956
H43   H     H_    0.806729 0.161029 0.624764 0.193130
H44   H     H_    0.799743 0.051324 0.550735 0.249383
H45   H     H_    0.165707 0.514736 0.747497 0.137313
H46   H     H_    0.342615 0.849819 0.399608 0.101832
H47   H     H_    0.262359 0.930370 0.447112 0.151639
H48   H     H_    0.213787 0.821825 0.605197 0.256008
H49   H     H_    0.213821 0.770743 0.454104 0.195025
H50   H     H_    0.296043 0.742209 0.562013 0.255113
H51   H     H_    0.300914 0.071126 0.377431 0.107417
H52   H     H_    0.353444 0.178256 0.392911 0.149775
H53   H     H_    0.241871 0.234266 0.533949 0.254115
H54   H     H_    0.200385 0.200468 0.386713 0.215484
H55   H     H_    0.188650 0.127006 0.518668 0.240734
H56   H     H_    0.062274 0.515865 0.814620 0.104766
H57   H     H_    0.653678 0.819032 0.597793 0.125907
H58   H     H_    0.699930 0.930033 0.615262 0.125756
H59   H     H_    0.810852 0.884780 0.464772 0.241757
H60   H     H_    0.807727 0.808884 0.595460 0.215193
H61   H     H_    0.764095 0.773918 0.450127 0.256385
H62   H     H_    0.088548 0.668999 0.903048 0.251132
H63   H     H_    0.165755 0.585813 0.952902 0.187653
H64   H     H_    0.192129 0.667527 0.835608 0.253892
N1    N     N_1   0.500000 0.276710 0.500000 -0.174781
N2    N     N_1   0.500000 0.723290 0.500000 -0.176827
O1    O     O_R   0.380310 0.575320 0.500020 -0.580688
O2    O     O_3   0.918734 0.390802 0.331241 -0.569621
O3    O     O_3   0.909229 0.613049 0.660138 -0.532361
O4    O     O_3   0.092207 0.395135 0.334502 -0.555018
O5    O     O_3   0.550507 0.169527 0.101012 -0.571499
O6    O     O_3   0.461030 0.833474 0.883630 -0.565539
O7    O     O_3   0.442016 0.172398 0.899907 -0.570332
O8    O     O_3   0.532913 0.832727 0.116104 -0.569529
O9    O     O_3   0.648085 0.089613 0.450590 -0.551106
O10   O     O_3   0.356305 0.909293 0.575200 -0.530050
O11   O     O_3   0.351713 0.096992 0.551072 -0.549852
O12   O     O_R   0.619690 0.424680 0.499980 -0.580672
O13   O     O_3   0.645777 0.903143 0.443844 -0.524706
O14   O     O_R   0.619690 0.575320 0.499980 -0.567953
O15   O     O_R   0.380310 0.424680 0.500020 -0.568430
O16   O     O_R   0.499990 0.575350 0.319650 -0.582809
O17   O     O_R   0.500010 0.424650 0.680350 -0.575030
O18   O     O_R   0.500010 0.575350 0.680350 -0.584408
O19   O     O_R   0.499990 0.424650 0.319650 -0.574477
O20   O     O_3   0.081938 0.609723 0.672228 -0.530435

loop_
_geom_bond_atom_site_label_1
_geom_bond_atom_site_label_2
_ccdc_geom_bond_type
C33   O2    S    
C21   C26   A    
C45   C60   A    
C50   H42   S    
C55   O13   S    
C49   O9    S    
C47   O8    S    
C27   C29   A    
C32   H62   S    
Cu2   O15   S    
C6    O2    S    
C7    O15   A    
C33   H3    S    
C4    O4    S    
C55   H57   S    
C53   C54   S    
C53   H52   S    
C43   H27   S    
C47   H36   S    
C3    O3    S    
C43   H26   S    
C39   H15   S    
C36   C37   S    
C24   C26   A    
Cu2   N1    S    
C18   H1    S    
C20   C25   A    
C41   H20   S    
C41   H21   S    
C14   N2    T    
C32   H64   S    
C4    C13   A    
C53   H51   S    
C57   H60   S    
C46   H33   S    
C12   C16   T    
C44   C46   S    
C51   H46   S    
C22   C25   A    
C54   H54   S    
C50   H43   S    
C40   H18   S    
C42   H24   S    
C23   C27   A    
C18   C22   A    
C5    C13   A    
C44   H30   S    
Cu1   O1    S    
C55   H58   S    
C44   O7    S    
C28   C34   A    
C59   C60   A    
C51   H47   S    
C5    O20   S    
C15   N1    T    
C20   H23   S    
C9    O16   A    
C36   H8    S    
C14   C45   S    
C38   H13   S    
C48   H38   S    
C45   C58   A    
C43   H28   S    
C51   C52   S    
C23   C30   A    
C3    C11   A    
C4    C6    A    
C59   O11   S    
C36   O3    S    
C49   H40   S    
C38   H14   S    
C52   H49   S    
C3    C5    A    
C41   H22   S    
C29   C34   A    
Cu2   O17   S    
C22   O8    S    
C39   H17   S    
C32   H63   S    
Cu1   O18   S    
C39   H16   S    
C31   H56   S    
C57   H61   S    
C11   C16   S    
Cu1   O16   S    
C31   C32   S    
C46   H32   S    
C52   H48   S    
C8    C12   S    
C54   H53   S    
C18   C29   A    
C25   O6    S    
C44   H29   S    
C10   O18   A    
C31   O20   S    
C24   O7    S    
C40   C41   S    
C21   H34   S    
C21   C28   A    
Cu2   O19   S    
C37   H9    S    
C9    C34   S    
C37   H10   S    
C42   C43   S    
C6    C11   A    
C36   H7    S    
C48   H37   S    
C37   H11   S    
C1    C7    S    
C2    O9    S    
C31   H45   S    
C40   H19   S    
C19   H12   S    
C47   C48   S    
C47   H35   S    
C49   H41   S    
C2    C58   A    
C20   C27   A    
C10   C23   S    
C40   O5    S    
C1    C17   T    
C35   H4    S    
C56   C59   A    
C13   C17   S    
C42   O6    S    
C15   C56   S    
C55   C57   S    
C19   C24   A    
C26   O5    S    
C2    C56   A    
C58   O13   S    
C38   C39   S    
C46   H31   S    
C35   H6    S    
C33   H2    S    
C48   H39   S    
C28   C30   A    
C33   C35   S    
C9    O19   A    
Cu1   N2    S    
Cu1   Cu2   S    
C7    O1    A    
C53   O11   S    
C35   H5    S    
C8    O12   A    
C10   O17   A    
C57   H59   S    
C51   O10   S    
Cu1   O14   S    
C49   C50   S    
C54   H55   S    
C60   O10   S    
C50   H44   S    
C52   H50   S    
C8    O14   A    
C42   H25   S    
Cu2   O12   S    
C19   C30   A    
C38   O4    S    
