data_mof_unit_24082.cif
_audit_creation_date              2012-12-10T18:14:43-0500
_audit_creation_method            fapswitch 2.2
_symmetry_space_group_name_H-M    P1
_symmetry_Int_Tables_number       1
_space_group_crystal_system       triclinic
_cell_length_a                    10.729202
_cell_length_b                    9.409624
_cell_length_c                    27.811386
_cell_angle_alpha                 89.843147
_cell_angle_beta                  90.155044
_cell_angle_gamma                 89.911031
_cell_volume                      2807.75092074

loop_
_atom_site_label
_atom_site_type_symbol
_atom_type_description
_atom_site_fract_x
_atom_site_fract_y
_atom_site_fract_z
_atom_type_partial_charge
C1    C     C_R   0.259603 0.499845 0.500101 0.796109
C2    C     C_R   0.445088 0.599120 0.276326 -0.191279
C3    C     C_R   0.514424 0.492558 0.253760 0.356597
C4    C     C_R   0.516796 0.480440 0.102024 -0.043648
C5    C     C_R   0.407541 0.448196 0.127736 -0.022459
C6    C     C_R   0.298718 0.414317 0.102740 -0.146856
C7    C     C_R   0.626524 0.512857 0.127626 -0.020772
C8    C     C_R   0.498128 0.499417 0.354542 -0.062620
C9    C     C_R   0.502184 0.499022 0.645516 -0.040304
C10   C     C_R   0.401365 0.458634 0.974675 0.043321
C11   C     C_R   0.627407 0.509232 0.974317 0.043038
C12   C     C_R   0.497459 0.500165 0.407514 0.866161
C13   C     C_R   0.513682 0.485472 0.949250 0.067360
C14   C     C_R   0.289980 0.441347 0.947885 -0.205805
C15   C     C_R   0.289650 0.445737 0.897999 -0.146780
C16   C     C_R   0.399933 0.468407 0.872681 -0.019966
C17   C     C_R   0.512171 0.488832 0.898098 -0.043973
C18   C     C_R   0.622835 0.512751 0.872212 -0.020237
C19   C     C_R   0.619242 0.515572 0.821725 0.533064
C20   C     C_R   0.400429 0.472036 0.822222 0.532607
C21   C     C_R   0.519742 0.625084 0.721334 -0.103856
C22   C     C_R   0.516814 0.626486 0.671182 -0.228034
C23   C     C_R   0.740091 0.499698 0.500152 0.761113
C24   C     C_R   0.490309 0.370412 0.670936 -0.225513
C25   C     C_R   0.492672 0.369429 0.721044 -0.104982
C26   C     C_R   0.507518 0.496613 0.746372 0.363191
C27   C     C_R   0.403520 0.451510 0.025739 0.043021
C28   C     C_R   0.516108 0.480880 0.050860 0.067972
C29   C     C_R   0.627816 0.511264 0.025481 0.042714
C30   C     C_R   0.296560 0.415417 0.052850 -0.206168
C31   C     C_R   0.735285 0.544544 0.102401 -0.146454
C32   C     C_R   0.737189 0.530138 0.947034 -0.205458
C33   C     C_R   0.734594 0.532169 0.897102 -0.146287
C34   C     C_R   0.500303 0.499795 0.592569 0.797910
C35   C     C_R   0.736187 0.544000 0.052453 -0.205833
C36   C     C_3   0.071963 0.576967 0.545357 -0.385337
C37   C     C_3   0.071394 0.344128 0.500811 -0.377166
C38   C     C_3   0.928057 0.576614 0.545421 -0.370945
C39   C     C_3   0.928698 0.344021 0.500675 -0.375321
C40   C     C_3   0.071044 0.574865 0.454617 -0.326581
C41   C     C_3   0.121594 0.499028 0.500228 0.128897
C42   C     C_3   0.877969 0.498838 0.500250 0.160397
C43   C     C_3   0.927274 0.575114 0.454674 -0.402725
C44   C     C_3   0.627639 0.083427 0.507337 -0.187282
C45   C     C_3   0.627704 0.916051 0.507125 -0.190894
C46   C     C_3   0.422437 0.083656 0.540477 -0.185662
C47   C     C_3   0.422978 0.915959 0.540643 -0.191125
C48   C     C_3   0.450067 0.084164 0.455420 -0.195889
C49   C     C_3   0.449221 0.916914 0.455575 -0.172726
C50   C     C_R   0.409553 0.450564 0.178172 0.536590
C51   C     C_R   0.624389 0.514788 0.178144 0.534026
C52   C     C_R   0.576083 0.389997 0.281392 -0.096524
C53   C     C_R   0.568251 0.393585 0.331347 -0.274220
C54   C     C_R   0.433727 0.602534 0.326456 -0.015987
Cu1   Cu    Cu3+1 0.499860 0.642410 0.500020 0.917797
Cu2   Cu    Cu3+1 0.499860 0.357590 0.500020 0.897956
H1    H     H_    0.629299 0.306794 0.264094 0.145526
H2    H     H_    0.820722 0.570833 0.121216 0.187532
H3    H     H_    0.827839 0.543680 0.962985 0.136405
H4    H     H_    0.478837 0.270595 0.652188 0.142631
H5    H     H_    0.821285 0.548988 0.878030 0.187381
H6    H     H_    0.483206 0.269814 0.740270 0.136051
H7    H     H_    0.823626 0.572352 0.036232 0.137947
H8    H     H_    0.105942 0.688673 0.545876 0.161564
H9    H     H_    0.105581 0.285124 0.468774 0.166049
H10   H     H_    0.107331 0.523894 0.578520 0.160390
H11   H     H_    0.105681 0.286990 0.533392 0.162573
H12   H     H_    0.893701 0.523044 0.578556 0.159189
H13   H     H_    0.894648 0.286293 0.533077 0.161748
H14   H     H_    0.396073 0.676515 0.254334 0.136610
H15   H     H_    0.893400 0.688162 0.546107 0.160859
H16   H     H_    0.894727 0.285568 0.468448 0.160601
H17   H     H_    0.105187 0.686436 0.453259 0.194369
H18   H     H_    0.105284 0.519716 0.421849 0.193378
H19   H     H_    0.892933 0.686773 0.453470 0.165815
H20   H     H_    0.892084 0.520808 0.421830 0.160996
H21   H     H_    0.668901 0.122229 0.541615 0.138823
H22   H     H_    0.669613 0.875942 0.541207 0.138741
H23   H     H_    0.689179 0.121696 0.477915 0.137477
H24   H     H_    0.688747 0.878638 0.477452 0.138894
H25   H     H_    0.457190 0.121343 0.575853 0.139827
H26   H     H_    0.458799 0.878495 0.575990 0.141844
H27   H     H_    0.354048 0.124952 0.449003 0.144661
H28   H     H_    0.352407 0.878382 0.449898 0.178294
H29   H     H_    0.507540 0.120624 0.424581 0.147670
H30   H     H_    0.505053 0.879363 0.424494 0.150217
H31   H     H_    0.324950 0.122742 0.537054 0.136952
H32   H     H_    0.325682 0.876338 0.537654 0.137282
H33   H     H_    0.213926 0.386972 0.121689 0.187665
H34   H     H_    0.526580 0.727077 0.652577 0.143713
H35   H     H_    0.530974 0.723778 0.740791 0.136666
H36   H     H_    0.201813 0.431556 0.879311 0.187082
H37   H     H_    0.200154 0.426458 0.964224 0.136390
H38   H     H_    0.209186 0.385455 0.036775 0.138239
H39   H     H_    0.618155 0.313873 0.352012 0.149442
N1    N     N_R   0.516627 0.484896 0.202260 -0.463807
N2    N     N_R   0.509101 0.495180 0.797901 -0.469474
N3    N     N_3   0.500250 0.143650 0.501060 -0.114414
N4    N     N_3   0.500250 0.856350 0.501060 -0.120254
O1    O     O_R   0.317570 0.620260 0.500030 -0.576855
O2    O     O_R   0.317570 0.379740 0.500030 -0.600009
O3    O     O_R   0.499900 0.620250 0.430280 -0.559084
O4    O     O_R   0.499900 0.379750 0.430280 -0.601086
O5    O     O_R   0.682190 0.620260 0.500010 -0.600756
O6    O     O_R   0.682190 0.379740 0.500010 -0.599944
O7    O     O_R   0.499860 0.620280 0.569750 -0.593901
O8    O     O_R   0.499860 0.379720 0.569750 -0.591814
O9    O     O_2   0.305317 0.418663 0.203019 -0.535486
O10   O     O_2   0.293130 0.453247 0.797612 -0.536823
O11   O     O_2   0.728600 0.547944 0.202944 -0.538879
O12   O     O_2   0.724986 0.537483 0.796615 -0.536764
C55   C     C_2   0.347909 0.710003 0.346817 0.322789
H40   H     H_    0.331255 0.808704 0.327527 0.071424
O13   O     O_2   0.289409 0.686745 0.383525 -0.586528

loop_
_geom_bond_atom_site_label_1
_geom_bond_atom_site_label_2
_ccdc_geom_bond_type
C10   C27   A    
C21   C26   A    
C53   H39   S    
Cu2   N3    S    
Cu1   Cu2   S    
C55   O13   D    
C19   N2    A    
C44   C45   S    
Cu1   O3    S    
C23   C42   S    
C34   O8    A    
C31   H2    S    
C28   C29   A    
Cu2   O2    S    
C38   C42   S    
C5    C6    A    
C36   H10   S    
C9    C22   A    
C15   C16   A    
C23   O6    A    
C47   N4    S    
C40   H17   S    
C18   C19   A    
C47   H26   S    
C15   H36   S    
C38   H15   S    
C44   N3    S    
C40   C43   S    
C20   N2    A    
C16   C17   A    
C37   H9    S    
Cu1   O1    S    
C39   H16   S    
C3    N1    S    
C14   H37   S    
C16   C20   A    
C51   N1    A    
C46   N3    S    
C21   C22   A    
C27   C30   A    
C50   O9    S    
C36   C41   S    
C4    C7    A    
C1    O1    A    
C55   H40   S    
C4    C28   A    
C39   C42   S    
C39   H13   S    
C7    C31   A    
Cu1   O7    S    
C34   O7    A    
C24   C25   A    
C12   O4    A    
C2    C54   A    
C8    C54   A    
C25   C26   A    
Cu1   O5    S    
Cu2   O8    S    
C12   O3    A    
C49   N4    S    
C46   H25   S    
C23   O5    A    
C8    C12   S    
C17   C18   A    
C22   H34   S    
C54   C55   S    
C45   H22   S    
C1    C41   S    
C48   C49   S    
C6    C30   A    
C38   H12   S    
C11   C32   A    
C51   O11   S    
C45   N4    S    
C9    C34   S    
C31   C35   A    
C5    C50   A    
C42   C43   S    
C1    O2    A    
C48   N3    S    
C52   C53   A    
C49   H28   S    
C43   H19   S    
C46   H31   S    
C21   H35   S    
C43   H20   S    
C46   C47   S    
C40   C41   S    
C14   C15   A    
C49   H30   S    
C44   H23   S    
Cu2   O4    S    
C4    C5    A    
C10   C13   A    
C8    C53   A    
C3    C52   A    
C9    C24   A    
C19   O12   S    
C6    H33   S    
C44   H21   S    
C29   C35   A    
C48   H27   S    
C13   C17   A    
C32   C33   A    
C36   C38   S    
C2    C3    A    
C7    C51   A    
C30   H38   S    
C36   H8    S    
C47   H32   S    
C11   C13   A    
C50   N1    A    
C33   H5    S    
C37   H11   S    
C40   H18   S    
C45   H24   S    
C25   H6    S    
C37   C41   S    
C18   C33   A    
Cu2   O6    S    
C52   H1    S    
C26   N2    S    
C20   O10   S    
C11   C29   A    
C37   C39   S    
Cu1   N4    S    
C27   C28   A    
C48   H29   S    
C35   H7    S    
C24   H4    S    
C32   H3    S    
C2    H14   S    
C10   C14   A    
