data_mof_unit_38848.cif
_audit_creation_date              2012-12-10T18:44:23-0500
_audit_creation_method            fapswitch 2.2
_symmetry_space_group_name_H-M    P1
_symmetry_Int_Tables_number       1
_space_group_crystal_system       triclinic
_cell_length_a                    12.793562
_cell_length_b                    10.642963
_cell_length_c                    9.906853
_cell_angle_alpha                 91.349422
_cell_angle_beta                  98.81845
_cell_angle_gamma                 90.902027
_cell_volume                      1332.3600105

loop_
_atom_site_label
_atom_site_type_symbol
_atom_type_description
_atom_site_fract_x
_atom_site_fract_y
_atom_site_fract_z
_atom_type_partial_charge
C1    C     C_R   0.501539 0.260444 0.498862 0.880719
C2    C     C_R   0.498461 0.739556 0.501138 0.880719
C3    C     C_R   0.498278 0.872105 0.503365 -0.068415
C4    C     C_R   0.501722 0.127895 0.496635 -0.068415
C5    C     C_R   0.557690 0.587256 0.086873 -0.076706
C6    C     C_R   0.442310 0.412744 0.913127 -0.076707
C7    C     C_R   0.558269 0.588167 0.943672 0.223831
C8    C     C_R   0.441731 0.411832 0.056328 0.223831
C9    C     C_R   0.298111 0.497830 0.471224 0.899612
C10   C     C_R   0.701889 0.502170 0.528776 0.899612
C11   C     C_R   0.815088 0.503889 0.550046 -0.142089
C12   C     C_R   0.184912 0.496111 0.449954 -0.142089
C13   C     C_R   0.025646 0.594238 0.349523 0.423893
C14   C     C_R   0.974354 0.405762 0.650477 0.423894
C15   C     C_R   0.132411 0.575523 0.354541 -0.274845
C16   C     C_R   0.867589 0.424477 0.645459 -0.274846
C17   C     C_R   0.130730 0.423072 0.533116 0.159748
C18   C     C_R   0.869270 0.576928 0.466884 0.159748
C19   C     C_R   0.026759 0.455866 0.546645 -0.031252
C20   C     C_R   0.973241 0.544134 0.453355 -0.031252
C21   C     C_R   0.573981 0.061683 0.430026 0.174073
C22   C     C_R   0.426019 0.938317 0.569974 0.174073
C23   C     C_R   0.570706 0.932411 0.433564 -0.222727
C24   C     C_R   0.429294 0.067589 0.566436 -0.222728
H1    H     H_    0.825027 0.376409 0.716323 0.205497
H2    H     H_    0.174973 0.623591 0.283677 0.205497
H3    H     H_    0.625064 0.878184 0.382790 0.151222
H4    H     H_    0.374936 0.121816 0.617209 0.151222
H5    H     H_    0.602738 0.657181 0.153710 0.142166
H6    H     H_    0.397262 0.342818 0.846290 0.142166
N1    N     N_R   0.499970 0.499970 0.857200 -0.100552
N2    N     N_R   0.500030 0.500030 0.142800 -0.100552
O1    O     O_R   0.499990 0.316750 0.614620 -0.623325
O2    O     O_R   0.500010 0.683250 0.385380 -0.623325
O3    O     O_R   0.499990 0.316780 0.385290 -0.620385
O4    O     O_R   0.500010 0.683220 0.614710 -0.620385
O5    O     O_R   0.346360 0.499970 0.595710 -0.601226
O6    O     O_R   0.653640 0.500030 0.404290 -0.601226
O7    O     O_R   0.346360 0.499990 0.366380 -0.624454
O8    O     O_R   0.653640 0.500010 0.633620 -0.624454
Zn1   Zn    Zn3+2 0.500000 0.499980 0.653120 0.949503
Zn2   Zn    Zn3+2 0.500000 0.500020 0.346880 0.949503
C25   C     C_3   0.818814 0.696499 0.410011 -0.766368
H7    H     H_    0.759990 0.731079 0.472974 0.190320
H8    H     H_    0.878778 0.773622 0.414585 0.259999
H9    H     H_    0.777701 0.679534 0.304061 0.268001
C26   C     C_3   0.181186 0.303501 0.589989 -0.766368
H10   H     H_    0.240010 0.268921 0.527026 0.190320
H11   H     H_    0.222299 0.320466 0.695939 0.268002
H12   H     H_    0.121222 0.226378 0.585414 0.259998
Cl1   Cl    Cl    0.964002 0.671912 0.203626 -0.614946
Cl2   Cl    Cl    0.035998 0.328088 0.796374 -0.614946
C27   C     C_3   0.656616 0.126158 0.360674 -0.835562
H13   H     H_    0.703196 0.195134 0.432665 0.233165
H14   H     H_    0.712727 0.058010 0.326607 0.238623
H15   H     H_    0.618228 0.175155 0.269063 0.253917
C28   C     C_3   0.343384 0.873842 0.639326 -0.835562
H16   H     H_    0.296804 0.804866 0.567335 0.233165
H17   H     H_    0.381772 0.824845 0.730937 0.253917
H18   H     H_    0.287273 0.941989 0.673392 0.238623
C29   C     C_3   0.622307 0.689705 0.890057 -0.780691
H19   H     H_    0.672057 0.650538 0.818368 0.272742
H20   H     H_    0.569212 0.762183 0.841027 0.238986
H21   H     H_    0.676944 0.738097 0.973926 0.217528
C30   C     C_3   0.377694 0.310294 0.109943 -0.780690
H22   H     H_    0.327945 0.349460 0.181635 0.272742
H23   H     H_    0.323056 0.261903 0.026074 0.217529
H24   H     H_    0.430789 0.237815 0.158971 0.238985

loop_
_geom_bond_atom_site_label_1
_geom_bond_atom_site_label_2
_ccdc_geom_bond_type
C12   C17   A    
C29   H21   S    
C25   H7    S    
C11   C18   A    
O6    Zn2   S    
C14   C16   A    
C23   H3    S    
O7    Zn2   S    
C5    C7    A    
C11   C16   A    
C19   C20   A    
C18   C20   A    
C26   H10   S    
O2    Zn2   S    
C12   C15   A    
C10   O6    A    
C30   H24   S    
O1    Zn1   S    
C1    C4    S    
C22   C28   S    
C9    O5    A    
C2    C3    S    
C28   H16   S    
C1    O1    A    
C8    C30   S    
C26   H11   S    
C13   Cl1   S    
C27   H13   S    
C21   C27   S    
C4    C21   A    
C25   H8    S    
C2    O2    A    
O4    Zn1   S    
C14   C19   A    
O8    Zn1   S    
C17   C19   A    
C6    N1    A    
C26   H12   S    
C5    H5    S    
C27   H14   S    
C13   C15   A    
O5    Zn1   S    
C29   H19   S    
C4    C24   A    
C25   H9    S    
C22   C24   A    
C28   H17   S    
C7    N1    A    
C9    C12   S    
C8    N2    A    
C17   C26   S    
C9    O7    A    
C1    O3    A    
C10   O8    A    
C30   H22   S    
C10   C11   S    
C27   H15   S    
C2    O4    A    
C16   H1    S    
C29   H20   S    
O3    Zn2   S    
N2    Zn2   S    
C7    C29   S    
C28   H18   S    
C6    C8    A    
N1    Zn1   S    
C13   C20   A    
C30   H23   S    
C18   C25   S    
C3    C23   A    
C21   C23   A    
C6    H6    S    
C5    N2    A    
C14   Cl2   S    
C24   H4    S    
C3    C22   A    
C15   H2    S    
