data_mof_unit_39651.cif
_audit_creation_date              2012-12-10T17:59:14-0500
_audit_creation_method            fapswitch 2.2
_symmetry_space_group_name_H-M    P1
_symmetry_Int_Tables_number       1
_space_group_crystal_system       triclinic
_cell_length_a                    10.79412
_cell_length_b                    9.522188
_cell_length_c                    10.731207
_cell_angle_alpha                 90.050724
_cell_angle_beta                  90.117301
_cell_angle_gamma                 89.974672
_cell_volume                      1102.98966569

loop_
_atom_site_label
_atom_site_type_symbol
_atom_type_description
_atom_site_fract_x
_atom_site_fract_y
_atom_site_fract_z
_atom_type_partial_charge
C1    C     C_R   0.262122 0.499982 0.499897 0.899897
C2    C     C_3   0.616768 0.425221 0.928260 -0.381603
C3    C     C_R   0.063088 0.405463 0.577265 0.342484
C4    C     C_R   0.062619 0.593783 0.422181 0.343090
C5    C     C_R   0.934687 0.404886 0.575363 -0.206318
C6    C     C_R   0.934254 0.594592 0.424418 -0.199485
C7    C     C_R   0.870864 0.499883 0.500046 -0.153140
C8    C     C_R   0.127914 0.499819 0.499842 -0.201426
C9    C     C_R   0.431696 0.074362 0.414757 0.013164
C10   C     C_R   0.431875 0.925589 0.414631 0.009620
C11   C     C_R   0.568376 0.925650 0.585311 -0.013669
C12   C     C_R   0.568445 0.074454 0.585258 0.001416
C13   C     C_R   0.499742 0.500182 0.259736 0.766980
C14   C     C_R   0.737565 0.499967 0.500104 0.819534
C15   C     C_R   0.499836 0.500251 0.740264 0.764463
C16   C     C_3   0.499159 0.653990 0.071467 -0.364969
C17   C     C_3   0.382853 0.424630 0.071617 -0.382898
C18   C     C_3   0.499349 0.654036 0.928796 -0.370459
C19   C     C_3   0.382841 0.424777 0.927754 -0.335842
C20   C     C_3   0.616780 0.425280 0.072087 -0.369940
C21   C     C_3   0.499625 0.500955 0.121797 0.140496
C22   C     C_3   0.499687 0.501045 0.878198 0.126905
Cu1   Cu    Cu3+1 0.500020 0.640660 0.500000 0.971909
Cu2   Cu    Cu3+1 0.500020 0.359340 0.500000 0.976654
H1    H     H_    0.582184 0.711706 0.105885 0.172128
H2    H     H_    0.380660 0.314311 0.105766 0.173206
H3    H     H_    0.623339 0.869672 0.653496 0.121510
H4    H     H_    0.623508 0.130519 0.653366 0.115733
H5    H     H_    0.415653 0.711034 0.105401 0.194525
H6    H     H_    0.297739 0.477704 0.106388 0.192371
H7    H     H_    0.416028 0.711277 0.894459 0.185909
H8    H     H_    0.297777 0.478045 0.892854 0.190491
H9    H     H_    0.582550 0.711585 0.895008 0.169320
H10   H     H_    0.380481 0.314528 0.893266 0.203521
H11   H     H_    0.701620 0.478902 0.107111 0.162288
H12   H     H_    0.619587 0.315014 0.106331 0.177040
H13   H     H_    0.701671 0.478658 0.893606 0.161834
H14   H     H_    0.619437 0.314925 0.893897 0.170591
H15   H     H_    0.884526 0.332854 0.634993 0.174355
H16   H     H_    0.883760 0.666422 0.364636 0.180924
H17   H     H_    0.376748 0.130333 0.346553 0.127221
H18   H     H_    0.377396 0.869621 0.346091 0.168965
N1    N     N_R   0.500030 0.852070 0.500030 -0.168115
N2    N     N_R   0.500030 0.147930 0.500030 -0.159971
O1    O     O_R   0.319660 0.618740 0.499990 -0.540292
O2    O     O_R   0.319660 0.381260 0.499990 -0.540229
O3    O     O_R   0.499990 0.618790 0.317690 -0.587641
O4    O     O_R   0.499990 0.381210 0.317690 -0.600390
O5    O     O_R   0.680370 0.618830 0.500010 -0.583722
O6    O     O_R   0.680370 0.381170 0.500010 -0.583423
O7    O     O_R   0.500030 0.618780 0.682310 -0.596270
O8    O     O_R   0.500030 0.381220 0.682310 -0.578620
Cl1   Cl    Cl    0.138079 0.291107 0.682534 -0.633763
Cl2   Cl    Cl    0.136910 0.706505 0.315496 -0.666359

loop_
_geom_bond_atom_site_label_1
_geom_bond_atom_site_label_2
_ccdc_geom_bond_type
C2    C22   S    
C13   O4    A    
C11   C12   A    
C4    C8    A    
Cu2   O8    S    
C16   C21   S    
Cu1   O1    S    
C15   O7    A    
C10   H18   S    
C1    C8    S    
C9    C10   A    
C2    H14   S    
C20   H12   S    
C9    H17   S    
C11   H3    S    
Cu1   Cu2   S    
Cu2   O2    S    
C10   N1    A    
C13   C21   S    
C12   N2    A    
C14   O6    A    
C15   O8    A    
C11   N1    A    
C17   H6    S    
C3    Cl1   S    
C2    H13   S    
C1    O1    A    
C6    C7    A    
C12   H4    S    
C17   H2    S    
C4    C6    A    
C13   O3    A    
C17   C19   S    
C5    H15   S    
Cu2   O6    S    
Cu2   N2    S    
C18   H9    S    
C6    H16   S    
C1    O2    A    
Cu1   O5    S    
C14   O5    A    
Cu1   O3    S    
C19   H8    S    
C2    C20   S    
Cu2   O4    S    
C19   C22   S    
Cu1   N1    S    
C20   C21   S    
C16   C18   S    
C3    C8    A    
C16   H1    S    
C5    C7    A    
C9    N2    A    
C18   H7    S    
C4    Cl2   S    
C16   H5    S    
C18   C22   S    
C20   H11   S    
Cu1   O7    S    
C15   C22   S    
C7    C14   S    
C3    C5    A    
C19   H10   S    
C17   C21   S    
