data_mof_unit_25653.cif
_audit_creation_date              2013-03-05T16:04:39-0500
_audit_creation_method            fapswitch 2.2
_symmetry_space_group_name_H-M    P1
_symmetry_Int_Tables_number       1
_space_group_crystal_system       triclinic
_cell_length_a                    9.613153
_cell_length_b                    10.860598
_cell_length_c                    15.647119
_cell_angle_alpha                 86.83535
_cell_angle_beta                  73.919341
_cell_angle_gamma                 90.037729
_cell_volume                      1567.10110262

loop_
_atom_site_label
_atom_site_type_symbol
_atom_site_description
_atom_site_fract_x
_atom_site_fract_y
_atom_site_fract_z
_atom_type_partial_charge
O1    O     O_R   0.118740 0.319660 0.500000 -0.568156
O2    O     O_R   0.881260 0.680340 0.500000 -0.568294
O3    O     O_R   0.881170 0.319630 0.500010 -0.557449
O4    O     O_R   0.118830 0.680370 0.499990 -0.557256
C1    C     C_R   0.000680 0.262438 0.498546 0.806674
C2    C     C_R   0.999318 0.737562 0.501458 0.806663
O5    O     O_R   0.055570 0.500030 0.629830 -0.551189
O6    O     O_R   0.944430 0.499970 0.370170 -0.551042
O7    O     O_R   0.818000 0.500000 0.629840 -0.567109
O8    O     O_R   0.182000 0.500000 0.370160 -0.567415
C3    C     C_R   0.917828 0.504907 0.671453 0.816533
C4    C     C_R   0.082171 0.495080 0.328549 0.816489
Cu1   Cu    Cu3+1 0.140660 0.500020 0.500000 1.051547
Cu2   Cu    Cu3+1 0.859340 0.499980 0.500000 1.051564
C5    C     C_R   0.871109 0.518054 0.768418 -0.051308
C6    C     C_R   0.128905 0.481773 0.231600 -0.051186
C7    C     C_R   0.921016 0.558012 0.907544 -0.206590
C8    C     C_R   0.079119 0.441280 0.092527 -0.206733
C9    C     C_R   0.969880 0.544151 0.816175 -0.140613
C10   C     C_R   0.030185 0.455425 0.183862 -0.140659
C11   C     C_R   0.723189 0.510239 0.812889 -0.201521
C12   C     C_R   0.276828 0.489585 0.187149 -0.201839
C13   C     C_R   0.671684 0.515072 0.905813 0.087894
C14   C     C_R   0.328429 0.484328 0.094261 0.087941
C15   C     C_R   0.773709 0.541108 0.952867 0.150940
C16   C     C_R   0.226445 0.458112 0.047216 0.150973
C17   C     C_R   0.522418 0.495499 0.952927 0.056307
C18   C     C_R   0.477735 0.503731 0.047167 0.056433
C19   C     C_R   0.583457 0.533064 0.090813 -0.166871
C20   C     C_R   0.416762 0.465912 0.909298 -0.167120
C21   C     C_R   0.727914 0.551399 0.044462 -0.202219
C22   C     C_R   0.272300 0.447568 0.955645 -0.202269
H1    H     H_    0.804478 0.573839 0.080953 0.175975
H2    H     H_    0.195773 0.424949 0.919170 0.176141
H3    H     H_    0.350033 0.496936 0.226996 0.191848
H4    H     H_    0.649892 0.503307 0.773048 0.191675
H5    H     H_    0.916142 0.442213 0.217214 0.191918
H6    H     H_    0.083912 0.557401 0.782817 0.192151
H7    H     H_    0.998579 0.581741 0.942892 0.144435
H8    H     H_    0.001601 0.417375 0.057193 0.144371
H9    H     H_    0.559398 0.543245 0.161193 0.203145
H10   H     H_    0.440934 0.455415 0.838947 0.203551
C23   C     C_R   0.881521 0.064578 0.486831 -0.113768
C24   C     C_R   0.118461 0.935422 0.513193 -0.113670
H11   H     H_    0.790381 0.112640 0.474096 0.204251
H12   H     H_    0.209592 0.887365 0.525945 0.204209
C25   C     C_R   0.878568 0.936967 0.491684 -0.123646
C26   C     C_R   0.121427 0.063031 0.508320 -0.123583
H13   H     H_    0.782379 0.890258 0.486855 0.213645
H14   H     H_    0.217631 0.109735 0.513129 0.213656
C27   C     C_R   0.998351 0.871502 0.502822 -0.057568
C28   C     C_R   0.001641 0.128497 0.497188 -0.057607
C29   C     C_R   0.548066 0.421357 0.557094 0.285465
C30   C     C_R   0.451953 0.578592 0.442865 0.285391
C31   C     C_R   0.399291 0.423584 0.558552 0.288252
C32   C     C_R   0.600712 0.576430 0.441455 0.288160
N1    N     N_R   0.352080 0.500030 0.499980 -0.323363
N2    N     N_R   0.647920 0.499970 0.500020 -0.323378
N3    N     N_R   0.593337 0.330137 0.612598 0.189052
O9    O     O_R   0.564631 0.345522 0.697323 -0.364173
O10   O     O_R   0.609713 0.218178 0.586708 -0.343979
N4    N     N_R   0.406743 0.669620 0.387197 0.189025
O11   O     O_R   0.436431 0.654363 0.302406 -0.364079
O12   O     O_R   0.389536 0.781515 0.413166 -0.343839
N5    N     N_R   0.298039 0.348853 0.625364 0.187325
O13   O     O_R   0.252238 0.389128 0.704863 -0.369599
O14   O     O_R   0.294006 0.230748 0.616936 -0.336395
N6    N     N_R   0.701944 0.651293 0.374727 0.187357
O15   O     O_R   0.748197 0.610982 0.295263 -0.369040
O16   O     O_R   0.705493 0.769433 0.383109 -0.336432

loop_
_geom_bond_atom_site_label_1
_geom_bond_atom_site_label_2
_geom_bond_distance
_ccdc_geom_bond_type
C15   C21   1.388729 A    
O5    Cu1   1.968609 S    
O5    C3    1.306319 A    
O7    Cu2   1.959131 S    
C21   H1    1.084012 S    
C1    C28   1.455997 S    
C16   C22   1.388770 A    
N4    O11   1.297572 A    
C12   H3    1.067166 S    
C9    H6    1.081357 S    
C13   C17   1.429656 A    
C2    C27   1.456000 S    
C23   H11   1.079648 S    
N4    O12   1.298794 A    
C8    C16   1.403914 A    
C29   N2    1.373958 A    
O6    C4    1.306316 A    
C17   C18   1.424994 A    
C7    C15   1.403879 A    
C12   C14   1.404130 A    
C26   H14   1.077216 S    
C3    C5    1.473289 S    
C29   N3    1.428311 S    
N3    O9    1.297471 A    
C19   C21   1.385590 A    
C31   N1    1.371914 A    
C6    C10   1.398706 A    
Cu1   Cu2   2.704373 S    
C17   C20   1.417323 A    
C20   C22   1.385629 A    
C10   H5    1.081387 S    
O7    C3    1.302940 A    
O2    C2    1.299895 A    
O3    Cu2   1.970052 S    
O8    C4    1.302944 A    
O1    C1    1.299898 A    
C24   C27   1.398790 A    
N6    O16   1.298330 A    
C18   C19   1.417365 A    
C7    C9    1.392505 A    
C14   C16   1.416572 A    
C5    C9    1.398710 A    
C26   C28   1.400134 A    
C8    C10   1.392559 A    
C30   C32   1.424310 A    
C29   C31   1.424290 A    
C11   C13   1.404142 A    
O2    Cu2   1.969981 S    
O6    Cu2   1.968609 S    
C23   C28   1.398791 A    
N3    O10   1.298740 A    
O4    C2    1.301608 A    
O1    Cu1   1.969981 S    
C31   N5    1.428489 S    
C24   C26   1.383640 A    
C5    C11   1.399499 A    
C13   C15   1.416560 A    
Cu1   N1    2.032325 S    
C14   C18   1.429696 A    
C25   H13   1.077223 S    
N5    O13   1.299798 A    
C7    H7    1.082692 S    
O4    Cu1   1.970052 S    
C11   H4    1.067340 S    
C8    H8    1.082692 S    
C20   H10   1.072806 S    
C6    C12   1.399457 A    
N5    O14   1.298320 A    
C30   N4    1.428347 S    
C19   H9    1.072769 S    
C32   N6    1.428494 S    
C32   N2    1.371908 A    
C23   C25   1.383657 A    
C30   N1    1.373996 A    
C25   C27   1.400140 A    
C4    C6    1.473322 S    
Cu2   N2    2.032326 S    
C24   H12   1.079650 S    
N6    O15   1.299779 A    
O3    C1    1.301605 A    
O8    Cu1   1.959133 S    
C22   H2    1.084028 S    
