data_mof_unit_45659.cif
_audit_creation_date              2013-03-05T16:44:37-0500
_audit_creation_method            fapswitch 2.2
_symmetry_space_group_name_H-M    P1
_symmetry_Int_Tables_number       1
_space_group_crystal_system       triclinic
_cell_length_a                    27.686815
_cell_length_b                    10.66709
_cell_length_c                    9.847247
_cell_angle_alpha                 90.065224
_cell_angle_beta                  90.129427
_cell_angle_gamma                 89.952153
_cell_volume                      2908.25343495

loop_
_atom_site_label
_atom_site_type_symbol
_atom_site_description
_atom_site_fract_x
_atom_site_fract_y
_atom_site_fract_z
_atom_type_partial_charge
O1    O     O_R   0.500010 0.316790 0.614690 -0.621205
O2    O     O_R   0.500000 0.316760 0.385350 -0.619890
C1    C     C_R   0.498267 0.259911 0.499979 0.896382
O3    O     O_R   0.428760 0.500040 0.614660 -0.624046
O4    O     O_R   0.428750 0.500000 0.385310 -0.597790
C2    C     C_R   0.406251 0.499180 0.500045 0.940209
Zn1   Zn    Zn3+2 0.500000 0.500020 0.653130 0.981225
Zn2   Zn    Zn3+2 0.500000 0.499980 0.346870 0.976133
O5    O     O_R   0.500000 0.683240 0.614650 -0.620135
O6    O     O_R   0.499990 0.683210 0.385310 -0.632451
O7    O     O_R   0.571250 0.500000 0.614690 -0.576956
O8    O     O_R   0.571240 0.499960 0.385340 -0.615962
C3    C     C_R   0.498318 0.740148 0.500053 0.895049
C4    C     C_R   0.593893 0.501842 0.500216 0.936156
C5    C     C_R   0.178638 0.448714 0.599401 0.560143
O9    O     O_2   0.203851 0.372587 0.683125 -0.516093
N1    N     N_R   0.202445 0.526635 0.513108 -0.348881
C6    C     C_R   0.178704 0.606476 0.427701 0.604564
C7    C     C_R   0.281722 0.611256 0.576471 0.355850
C8    C     C_R   0.331785 0.602646 0.572499 -0.288131
C9    C     C_R   0.326070 0.412955 0.435607 0.244099
C10   C     C_R   0.275992 0.422188 0.439091 -0.143609
C11   C     C_R   0.253841 0.520990 0.508771 0.171740
C12   C     C_R   0.102413 0.527448 0.513193 -0.088382
C13   C     C_R   0.128306 0.446965 0.600622 -0.013985
C14   C     C_R   0.103689 0.364745 0.685928 -0.101558
C15   C     C_R   0.127776 0.610880 0.426936 -0.117068
C16   C     C_R   0.354014 0.504704 0.501291 -0.152649
H1    H     H_    0.254047 0.351578 0.389528 0.192645
H2    H     H_    0.122986 0.301115 0.752494 0.202997
C17   C     C_R   0.646463 0.501851 0.500043 -0.162967
C18   C     C_R   0.975183 0.440513 0.602541 0.043613
C19   C     C_R   0.974406 0.588822 0.410291 0.064126
C20   C     C_R   0.949550 0.511472 0.504114 0.080909
C21   C     C_R   0.948511 0.371070 0.699096 -0.204147
C22   C     C_R   0.898493 0.366876 0.694823 -0.113289
C23   C     C_R   0.873143 0.432420 0.595043 -0.034893
C24   C     C_R   0.898465 0.505147 0.499546 -0.052277
C25   C     C_R   0.872577 0.571954 0.399822 -0.036556
C26   C     C_R   0.822115 0.566183 0.398688 0.573305
N2    N     N_R   0.798478 0.495271 0.492768 -0.341809
C27   C     C_R   0.822691 0.428587 0.589628 0.554073
C28   C     C_R   0.720693 0.424990 0.400061 0.351453
C29   C     C_R   0.670514 0.428850 0.402760 -0.281140
C30   C     C_R   0.673113 0.573201 0.594615 0.263612
C31   C     C_R   0.723271 0.569552 0.590830 -0.157683
C32   C     C_R   0.747034 0.495926 0.494383 0.181868
O10   O     O_2   0.797888 0.359252 0.680423 -0.518426
C33   C     C_R   0.026369 0.441345 0.601467 0.057043
C34   C     C_R   0.051190 0.523304 0.511711 0.082390
C35   C     C_R   0.025286 0.600390 0.419971 -0.006507
C36   C     C_R   0.053763 0.361477 0.686230 -0.200297
H3    H     H_    0.650252 0.373301 0.330168 0.197410
H4    H     H_    0.879738 0.312148 0.770872 0.200841
H5    H     H_    0.037872 0.292368 0.751945 0.151603
O11   O     O_2   0.204765 0.678870 0.343198 -0.457785
C37   C     C_R   0.101212 0.694318 0.344015 0.340393
H6    H     H_    0.353420 0.672539 0.624476 0.186905
C38   C     C_R   0.947387 0.650652 0.308157 -0.202070
C39   C     C_R   0.897430 0.642821 0.303766 -0.116144
O12   O     O_2   0.796737 0.631655 0.305406 -0.516133
C40   C     C_R   0.051102 0.688333 0.341890 -0.247417
H7    H     H_    0.878347 0.692679 0.224208 0.198929
H8    H     H_    0.744088 0.624972 0.662212 0.188515
H9    H     H_    0.033106 0.757165 0.279841 0.173169
C41   C     C_R   0.489172 0.064235 0.623242 0.134538
C42   C     C_R   0.489896 0.128728 0.500450 -0.093163
C43   C     C_R   0.480938 0.064751 0.378476 -0.161562
H10   H     H_    0.477588 0.113609 0.282555 0.170654
C44   C     C_R   0.480968 0.935122 0.378551 -0.197422
H11   H     H_    0.477599 0.885987 0.282646 0.173516
C45   C     C_R   0.489966 0.871445 0.500612 -0.106350
C46   C     C_R   0.489175 0.936348 0.623357 0.139614
C47   C     C_3   0.522646 0.929540 0.742520 -0.463688
C48   C     C_3   0.522704 0.071613 0.742231 -0.463325
H12   H     H_    0.504822 0.889072 0.833496 0.202841
H13   H     H_    0.558303 0.887996 0.716606 0.241504
H14   H     H_    0.505034 0.112933 0.833129 0.204305
H15   H     H_    0.558385 0.112702 0.715915 0.220979
C49   C     C_R   0.482053 0.399801 0.070879 0.188346
N3    N     N_R   0.499670 0.499140 0.142800 -0.110623
C50   C     C_R   0.521853 0.593244 0.072305 -0.104043
H16   H     H_    0.538727 0.669639 0.126888 0.158465
C51   C     C_R   0.521899 0.593162 0.928223 -0.082903
H17   H     H_    0.538893 0.669285 0.874075 0.173404
N4    N     N_R   0.499670 0.499180 0.857150 -0.109248
C52   C     C_R   0.482036 0.399899 0.928217 0.194792
C53   C     C_3   0.431686 0.351335 0.921334 -0.480952
C54   C     C_3   0.431612 0.351301 0.075465 -0.437531
H18   H     H_    0.405993 0.420055 0.876530 0.237429
H19   H     H_    0.430021 0.255724 0.876592 0.210160
H20   H     H_    0.405870 0.420055 0.119780 0.249180
H21   H     H_    0.429876 0.255489 0.119285 0.223931
Br1   Br    Br    0.354355 0.268651 0.350783 -0.499099
Br2   Br    Br    0.252410 0.745061 0.676897 -0.375326
Br3   Br    Br    0.128913 0.823393 0.231492 -0.352006
H22   H     H_    0.963804 0.703703 0.227514 0.153846
Br4   Br    Br    0.643565 0.683086 0.725018 -0.502988
Br5   Br    Br    0.752235 0.320718 0.268710 -0.407054
H23   H     H_    0.965038 0.320657 0.781688 0.150759

loop_
_geom_bond_atom_site_label_1
_geom_bond_atom_site_label_2
_geom_bond_distance
_ccdc_geom_bond_type
C52   C53   1.488961 S    
C10   H1    1.083174 S    
N2    C27   1.364919 A    
C21   C22   1.386141 A    
C12   C15   1.418486 A    
C4    C17   1.455504 S    
N3    C50   1.367956 A    
C37   C40   1.389020 A    
C30   C31   1.389803 A    
Zn1   O7    2.009514 S    
N1    C11   1.424955 S    
C47   H12   1.111615 S    
C39   H7    1.083685 S    
C22   C23   1.394448 A    
C51   N4    1.367886 A    
C49   C52   1.404828 A    
C30   Br4   1.921423 S    
C24   C25   1.408368 A    
O7    C4    1.291267 A    
C5    C13   1.393752 A    
Zn1   N4    2.009107 S    
C9    Br1   1.917928 S    
C25   C39   1.394666 A    
C5    O9    1.350716 S    
C23   C27   1.398383 A    
C5    N1    1.361059 A    
C46   C47   1.495388 S    
C49   C54   1.490499 S    
O5    C3    1.282721 A    
C29   H3    1.083777 S    
C2    C16   1.447514 S    
C7    C8    1.389667 A    
C43   H10   1.083075 S    
C47   H13   1.111877 S    
C44   H11   1.083446 S    
C36   H5    1.076436 S    
C6    O11   1.347050 S    
C53   C54   1.517769 S    
C41   C42   1.392047 A    
C38   C39   1.386292 A    
C19   C38   1.415417 A    
O1    Zn1   1.990426 S    
C9    C10   1.390387 A    
C35   C40   1.409730 A    
O3    Zn1   2.007617 S    
N1    C6    1.364891 A    
C12   C34   1.418966 A    
C1    C42   1.418606 S    
C17   C29   1.402785 A    
C42   C43   1.402497 A    
C18   C21   1.415540 A    
C51   H17   1.080661 S    
O3    C2    1.288063 A    
C15   C37   1.413396 A    
C25   C26   1.398552 A    
N4    C52   1.361530 A    
C49   N3    1.363800 A    
C8    C16   1.400418 A    
C34   C35   1.415764 A    
C13   C14   1.394509 A    
C41   C46   1.364186 A    
C37   Br3   1.928929 S    
C26   O12   1.350169 S    
Zn2   N3    2.009538 S    
C31   H8    1.083311 S    
O1    C1    1.282444 A    
C18   C20   1.419050 A    
C7    C11   1.401752 A    
C28   C29   1.390188 A    
C23   C24   1.408262 A    
C14   C36   1.382759 A    
C53   H19   1.111478 S    
Zn2   O8    2.007617 S    
C33   C36   1.412606 A    
C19   C20   1.418986 A    
N2    C32   1.424448 S    
C27   O10   1.350233 S    
C12   C13   1.410705 A    
C54   H20   1.111790 S    
C43   C44   1.382765 A    
C26   N2    1.365256 A    
C9    C16   1.404402 A    
O8    C4    1.292363 A    
C14   H2    1.083815 S    
C50   C51   1.418805 A    
C38   H22   1.077281 S    
C8    H6    1.084031 S    
C21   H23   1.076529 S    
C7    Br2   1.916322 S    
Zn1   O5    1.991240 S    
C31   C32   1.397121 A    
C40   H9    1.076907 S    
C20   C24   1.416653 A    
O2    Zn2   1.991241 S    
C6    C15   1.410775 A    
C53   H18   1.111970 S    
C45   C46   1.392465 A    
O6    C3    1.283098 A    
O4    Zn2   2.009516 S    
C3    C45   1.419334 S    
C19   C35   1.417207 A    
O2    C1    1.282980 A    
C28   Br5   1.916512 S    
O4    C2    1.291446 A    
C28   C32   1.401214 A    
C41   C48   1.495319 S    
C54   H21   1.110963 S    
C48   H14   1.111541 S    
C18   C33   1.417265 A    
C22   H4    1.083747 S    
C47   C48   1.515509 S    
Zn2   O6    1.990425 S    
C33   C34   1.422429 A    
C17   C30   1.409665 A    
C10   C11   1.398885 A    
C44   C45   1.402987 A    
C50   H16   1.081547 S    
C48   H15   1.112365 S    
