data_mof_unit_57107.cif
_audit_creation_date              2012-12-10T18:31:57-0500
_audit_creation_method            fapswitch 2.2
_symmetry_space_group_name_H-M    P1
_symmetry_Int_Tables_number       1
_space_group_crystal_system       triclinic
_cell_length_a                    10.676627
_cell_length_b                    14.977249
_cell_length_c                    15.505587
_cell_angle_alpha                 81.926044
_cell_angle_beta                  90.025602
_cell_angle_gamma                 104.178679
_cell_volume                      2378.5936843

loop_
_atom_site_label
_atom_site_type_symbol
_atom_type_description
_atom_site_fract_x
_atom_site_fract_y
_atom_site_fract_z
_atom_type_partial_charge
C1    C     C_R   0.474318 0.441151 0.662436 0.884134
C2    C     C_3   0.121731 0.502636 0.497710 0.023010
C3    C     C_3   0.059862 0.465614 0.414537 -0.514265
C4    C     C_3   0.105352 0.605832 0.496847 0.433634
C5    C     C_R   0.452452 0.403168 0.756529 -0.165311
C6    C     C_R   0.556931 0.593243 0.245872 -0.101412
C7    C     C_R   0.409066 0.273701 0.877389 -0.054269
C8    C     C_R   0.412795 0.306409 0.787109 -0.061298
C9    C     C_R   0.473181 0.465419 0.817524 -0.083492
C10   C     C_R   0.495027 0.434325 0.904388 0.018620
C11   C     C_R   0.451258 0.337819 0.937724 0.041610
C12   C     C_R   0.742078 0.501345 0.498234 0.868074
C13   C     C_R   0.552218 0.499078 0.959968 0.073901
C14   C     C_R   0.528248 0.474752 0.049901 0.061333
C15   C     C_R   0.479723 0.380371 0.084103 -0.266848
C16   C     C_R   0.448066 0.311806 0.029964 -0.009046
C17   C     C_R   0.636235 0.586423 0.927970 -0.204135
C18   C     C_R   0.683072 0.651701 0.983244 -0.214512
C19   C     C_R   0.643015 0.632657 0.070903 0.150240
C20   C     C_R   0.560326 0.545211 0.103401 0.101152
C21   C     C_R   0.686376 0.698544 0.127171 -0.229115
C22   C     C_R   0.648049 0.677878 0.215569 -0.005481
C23   C     C_R   0.523343 0.558518 0.338071 0.852860
C24   C     C_R   0.509719 0.530837 0.188113 -0.267850
C25   C     C_R   0.701911 0.843143 0.632815 -0.321066
C26   C     C_R   0.665626 0.753473 0.612657 0.150394
C27   C     C_R   0.519770 0.796461 0.508619 -0.012727
C28   C     C_R   0.560534 0.890590 0.521478 -0.006546
C29   C     C_R   0.647045 0.911172 0.589015 0.144362
C30   C     C_R   0.511761 0.962860 0.474351 0.021024
C31   C     C_R   0.530924 0.050069 0.507110 0.023294
C32   C     C_R   0.607698 0.063496 0.582489 -0.014127
C33   C     C_R   0.671859 0.997317 0.616997 -0.221975
C34   C     C_R   0.258379 0.500702 0.497923 0.846387
C35   C     C_R   0.444170 0.951539 0.395957 -0.028974
C36   C     C_R   0.368398 0.011487 0.365277 -0.209369
C37   C     C_R   0.376478 0.093460 0.400199 0.097819
C38   C     C_R   0.469369 0.117901 0.464106 -0.016923
C39   C     C_R   0.301882 0.155800 0.367181 -0.081983
C40   C     C_R   0.326853 0.242759 0.394341 -0.038259
C41   C     C_R   0.499887 0.211006 0.478808 -0.035488
C42   C     C_3   0.906467 0.442068 0.580938 -0.440159
C43   C     C_3   0.047566 0.434399 0.577563 -0.173932
C44   C     C_3   0.915665 0.464983 0.415039 -0.397991
C45   C     C_3   0.960660 0.604094 0.495098 -0.476658
C46   C     C_3   0.878848 0.502949 0.497292 0.084548
H1    H     H_    0.840833 0.370943 0.586957 0.184166
H2    H     H_    0.894723 0.508265 0.354943 0.172796
H3    H     H_    0.109575 0.508827 0.354242 0.180192
H4    H     H_    0.433919 0.469399 0.210778 0.161197
H5    H     H_    0.748234 0.717597 0.957030 0.154813
H6    H     H_    0.885838 0.473015 0.639058 0.182744
H7    H     H_    0.474364 0.357855 0.153778 0.153990
H8    H     H_    0.669326 0.603666 0.860422 0.168290
H9    H     H_    0.753930 0.764226 0.103030 0.149512
H10   H     H_    0.733632 0.010037 0.671994 0.153139
H11   H     H_    0.585303 0.241916 0.510700 0.147883
H12   H     H_    0.271467 0.292229 0.370444 0.133661
H13   H     H_    0.310706 0.997435 0.308857 0.171403
H14   H     H_    0.770658 0.859299 0.683418 0.150043
H15   H     H_    0.442633 0.772170 0.466461 0.161027
H16   H     H_    0.046453 0.361924 0.567802 0.158481
H17   H     H_    0.857555 0.392443 0.414160 0.201597
H18   H     H_    0.069448 0.393599 0.412210 0.204309
H19   H     H_    0.936788 0.647920 0.436045 0.165488
H20   H     H_    0.933295 0.634671 0.551454 0.204356
N1    N     N_R   0.573860 0.731700 0.552730 -0.122876
N2    N     N_R   0.426060 0.268290 0.447230 -0.108660
O1    O     O_R   0.462770 0.383110 0.605620 -0.600984
O2    O     O_R   0.510160 0.531900 0.639510 -0.601047
O3    O     O_R   0.661510 0.425600 0.483070 -0.633432
O4    O     O_R   0.708900 0.574390 0.516960 -0.624670
O5    O     O_R   0.489840 0.468100 0.360490 -0.620817
O6    O     O_R   0.537230 0.616890 0.394380 -0.609804
O7    O     O_R   0.291100 0.425610 0.483040 -0.636572
O8    O     O_R   0.338490 0.574400 0.516930 -0.567634
Zn1   Zn    Zn3+2 0.468350 0.400660 0.477370 0.946740
Zn2   Zn    Zn3+2 0.531650 0.599340 0.522630 0.993920
C47   C     C_1   0.169749 0.667485 0.417917 0.203140
N3    N     N_1   0.218957 0.715234 0.355820 -0.221777
C48   C     C_1   0.410656 0.217029 0.074047 0.182266
N4    N     N_1   0.381248 0.141626 0.110487 -0.180695
C49   C     C_1   0.709590 0.741613 0.273587 0.211945
N5    N     N_1   0.759288 0.792565 0.320101 -0.190328
C50   C     C_1   0.362134 0.174210 0.904916 0.184375
N6    N     N_1   0.324439 0.094714 0.925584 -0.170350
C51   C     C_1   0.363063 0.240277 0.727580 0.251340
N7    N     N_1   0.322675 0.187428 0.680490 -0.186614
C52   C     C_1   0.444540 0.556077 0.796022 0.241581
N8    N     N_1   0.421341 0.627964 0.779123 -0.169002
C53   C     C_1   0.724819 0.684409 0.657343 0.220345
N9    N     N_1   0.773112 0.629421 0.693748 -0.247880
C54   C     C_1   0.108750 0.446778 0.661994 0.162516
N10   N     N_1   0.156278 0.456122 0.728284 -0.192408
C55   C     C_1   0.616258 0.137888 0.634070 0.139692
N11   N     N_1   0.624963 0.196936 0.676232 -0.207827
C56   C     C_1   0.465114 0.889223 0.337298 0.176487
N12   N     N_1   0.481772 0.840144 0.289482 -0.174013
C57   C     C_1   0.200953 0.133155 0.305887 0.147953
N13   N     N_1   0.120136 0.115100 0.256821 -0.178853
O9    O     O_3   0.161929 0.645978 0.569248 -0.744127
H21   H     H_    0.106598 0.618087 0.622224 0.345796

loop_
_geom_bond_atom_site_label_1
_geom_bond_atom_site_label_2
_ccdc_geom_bond_type
C51   N7    T    
C54   N10   T    
O2    Zn2   S    
C55   N11   T    
O1    Zn1   S    
C19   C20   A    
C36   H13   S    
C48   N4    T    
C3    H3    S    
C7    C8    A    
C50   N6    T    
C7    C11   A    
O9    H21   S    
C30   C35   A    
C1    C5    S    
C26   N1    A    
C15   H7    S    
C36   C37   A    
C19   C21   A    
O8    Zn2   S    
C30   C31   A    
C15   C16   A    
C6    C22   A    
C29   C33   A    
C18   C19   A    
C42   C46   S    
C20   C24   A    
O4    Zn2   S    
C27   H15   S    
C57   N13   T    
C25   H14   S    
C9    C10   A    
O6    Zn2   S    
C34   O7    A    
C2    C34   S    
C33   H10   S    
C12   O4    A    
C21   C22   A    
C25   C29   A    
N1    Zn2   S    
C23   O5    A    
C44   C46   S    
C18   H5    S    
C56   N12   T    
C41   N2    A    
C4    C45   S    
C44   H17   S    
C24   H4    S    
C3    C44   S    
C40   H12   S    
C14   C20   A    
C38   C41   A    
C12   C46   S    
C9    C52   S    
C53   N9    T    
C21   H9    S    
C26   C53   S    
C45   C46   S    
C1    O1    A    
C35   C36   A    
C2    C4    S    
C5    C9    A    
C37   C38   A    
C11   C16   A    
C39   C57   S    
C49   N5    T    
C2    C43   S    
C6    C24   A    
C4    O9    S    
C17   C18   A    
O7    Zn1   S    
C4    C47   S    
C12   O3    A    
C45   H19   S    
C42   C43   S    
C23   O6    A    
O3    Zn1   S    
N2    Zn1   S    
C28   C29   A    
C31   C32   A    
C10   C13   A    
C5    C8    A    
C1    O2    A    
C31   C38   A    
C13   C17   A    
C8    C51   S    
C32   C33   A    
C28   C30   A    
C2    C3    S    
C25   C26   A    
C41   H11   S    
C37   C39   A    
C35   C56   S    
C22   C49   S    
C7    C50   S    
C6    C23   S    
C16   C48   S    
C43   C54   S    
C42   H1    S    
C3    H18   S    
C27   N1    A    
C10   C11   A    
C47   N3    T    
C39   C40   A    
C32   C55   S    
C40   N2    A    
C34   O8    A    
C45   H20   S    
O5    Zn1   S    
C14   C15   A    
C52   N8    T    
C13   C14   A    
C17   H8    S    
C44   H2    S    
C43   H16   S    
C42   H6    S    
C27   C28   A    
