data_mof_unit_16175.cif
_audit_creation_date              2012-10-26T21:17:55-0400
_audit_creation_method            fapswitch 2.2
_symmetry_space_group_name_H-M    P1
_symmetry_Int_Tables_number       1
_space_group_crystal_system       triclinic
_cell_length_a                    14.69243
_cell_length_b                    14.707169
_cell_length_c                    27.826508
_cell_angle_alpha                 76.777666
_cell_angle_beta                  102.954639
_cell_angle_gamma                 114.70485
_cell_volume                      5261.20609422

loop_
_atom_site_label
_atom_site_type_symbol
_atom_type_description
_atom_site_fract_x
_atom_site_fract_y
_atom_site_fract_z
_atom_type_partial_charge
C1    C     C_R   0.880381 0.312276 0.508446 0.548688
C2    C     C_R   0.021039 0.422654 0.139028 0.024991
C3    C     C_R   0.000551 0.502655 0.645294 -0.009232
C4    C     C_R   0.999884 0.497873 0.354573 -0.009800
C5    C     C_R   0.016462 0.419862 0.036834 0.018877
C6    C     C_R   0.982294 0.577115 0.963368 0.018824
C7    C     C_R   0.990556 0.580821 0.014833 0.019115
C8    C     C_R   0.015813 0.420230 0.985608 0.019193
C9    C     C_R   0.005497 0.501073 0.051194 0.035108
C10   C     C_R   0.997040 0.497968 0.949121 0.035073
C11   C     C_R   0.027167 0.340499 0.074511 -0.136516
C12   C     C_R   0.119592 0.687669 0.491880 0.548151
C13   C     C_R   0.958916 0.649695 0.925304 -0.136692
C14   C     C_R   0.029552 0.342169 0.124475 -0.107750
C15   C     C_R   0.954568 0.647123 0.875249 -0.107750
C16   C     C_R   0.000619 0.501459 0.592400 0.550094
C17   C     C_R   0.999479 0.498718 0.407547 0.550289
C18   C     C_R   0.033894 0.345565 0.969369 -0.137145
C19   C     C_R   0.985160 0.662276 0.031459 -0.137268
C20   C     C_R   0.812974 0.204714 0.513841 0.001204
C21   C     C_R   0.187053 0.794824 0.490303 0.001904
C22   C     C_R   0.784480 0.027260 0.526525 -0.120464
C23   C     C_R   0.993269 0.496728 0.897740 -0.026519
C24   C     C_R   0.217040 0.969132 0.490854 -0.120802
C25   C     C_R   0.850872 0.128435 0.523346 -0.127853
C26   C     C_R   0.149927 0.869470 0.487873 -0.128163
C27   C     C_R   0.708605 0.178754 0.508801 -0.124086
C28   C     C_R   0.291277 0.821067 0.494565 -0.118731
C29   C     C_R   0.640173 0.077253 0.513386 0.036856
C30   C     C_R   0.360882 0.919931 0.499990 0.037472
C31   C     C_R   0.679665 0.001223 0.521006 0.055731
C32   C     C_R   0.321913 0.994746 0.497230 0.054249
C33   C     C_R   0.533774 0.049608 0.509190 0.037563
C34   C     C_R   0.009193 0.502411 0.102555 -0.026515
C35   C     C_R   0.467609 0.946369 0.507956 0.038326
C36   C     C_R   0.510425 0.872865 0.515895 -0.119771
C37   C     C_R   0.491544 0.121423 0.507133 -0.116233
C38   C     C_R   0.614355 0.900031 0.522721 -0.114984
C39   C     C_R   0.387746 0.094169 0.501360 -0.110225
C40   C     C_R   0.008117 0.421660 0.832157 0.400370
C41   C     C_R   0.002757 0.582368 0.168349 0.400482
C42   C     C_R   0.720500 0.675880 0.421023 -0.144373
C43   C     C_R   0.280514 0.325744 0.580147 -0.146214
C44   C     C_R   0.799333 0.642261 0.432066 0.055981
C45   C     C_R   0.010545 0.420584 0.882987 0.025317
C46   C     C_R   0.200843 0.358246 0.568262 0.054034
C47   C     C_R   0.713920 0.508220 0.492023 0.046309
C48   C     C_R   0.286628 0.492276 0.508406 0.045777
C49   C     C_R   0.629487 0.537124 0.481922 -0.002942
C50   C     C_R   0.372047 0.464752 0.519525 -0.002881
C51   C     C_R   0.635351 0.624892 0.446221 0.027054
C52   C     C_R   0.366427 0.377486 0.555544 0.027517
C53   C     C_R   0.541204 0.483332 0.506455 0.008517
C54   C     C_R   0.460977 0.519312 0.495568 0.007255
C55   C     C_R   0.472642 0.609458 0.461572 -0.142208
C56   C     C_R   0.000565 0.583289 0.117563 0.025228
C57   C     C_R   0.530413 0.394354 0.541277 -0.141946
C58   C     C_R   0.557145 0.660977 0.436987 -0.010018
C59   C     C_R   0.445796 0.342822 0.565789 -0.012339
C60   C     C_R   0.971180 0.570369 0.810539 0.401627
C61   C     C_R   0.022357 0.424414 0.189425 0.401751
C62   C     C_R   0.905002 0.481601 0.710796 -0.056101
C63   C     C_R   0.094811 0.512428 0.289968 -0.056110
C64   C     C_R   0.908772 0.483617 0.660949 -0.152839
C65   C     C_R   0.090518 0.510760 0.339699 -0.152364
C66   C     C_R   0.089839 0.521771 0.680716 -0.039357
C67   C     C_R   0.031052 0.345819 0.919136 -0.109002
C68   C     C_R   0.912241 0.484982 0.318305 -0.038925
C69   C     C_R   0.085026 0.519592 0.730553 -0.059327
C70   C     C_R   0.917677 0.486960 0.268575 -0.059365
C71   C     C_R   0.992956 0.499031 0.745757 0.225414
C72   C     C_R   0.008595 0.501044 0.254277 0.226418
C73   C     C_1   0.187809 0.546923 0.667085 0.227089
C74   C     C_1   0.815124 0.466693 0.330796 0.227533
C75   C     C_1   0.562083 0.752959 0.402929 0.180081
C76   C     C_1   0.442011 0.252302 0.600862 0.173318
C77   C     C_R   0.989799 0.663136 0.081740 -0.108941
C78   C     C_R   0.972657 0.571884 0.860984 0.025255
Cu1   Cu    Cu3+1 0.081740 0.475690 0.513040 0.959887
Cu2   Cu    Cu3+1 0.918260 0.524310 0.486960 0.959561
H1    H     H_    0.315954 0.762487 0.493305 0.116590
H2    H     H_    0.718545 0.446140 0.520215 0.114994
H3    H     H_    0.134580 0.317374 0.586823 0.132324
H4    H     H_    0.865249 0.682846 0.413230 0.133519
H5    H     H_    0.727422 0.742377 0.393211 0.123450
H6    H     H_    0.273722 0.259611 0.608196 0.122926
H7    H     H_    0.417270 0.643075 0.453629 0.092656
H8    H     H_    0.586919 0.362061 0.550299 0.090183
H9    H     H_    0.153062 0.534462 0.757823 0.136946
H10   H     H_    0.850942 0.476886 0.240672 0.135826
H11   H     H_    0.045638 0.286990 0.908787 0.168179
H12   H     H_    0.682327 0.239588 0.499812 0.122941
H13   H     H_    0.984616 0.727030 0.092392 0.168122
H14   H     H_    0.158761 0.520906 0.366477 0.132849
H15   H     H_    0.839350 0.468700 0.634712 0.131224
H16   H     H_    0.165358 0.523280 0.279060 0.141129
H17   H     H_    0.833553 0.465722 0.722371 0.142429
H18   H     H_    0.037656 0.279360 0.151745 0.170112
H19   H     H_    0.937015 0.704913 0.847667 0.169810
H20   H     H_    0.032138 0.274425 0.066804 0.114575
H21   H     H_    0.941880 0.709158 0.932688 0.114662
H22   H     H_    0.052380 0.286278 0.994517 0.113524
H23   H     H_    0.069412 0.850625 0.484495 0.131841
H24   H     H_    0.978855 0.727924 0.006674 0.113703
H25   H     H_    0.643748 0.841198 0.528821 0.117687
H26   H     H_    0.358818 0.151625 0.500127 0.118001
H27   H     H_    0.931447 0.146942 0.527422 0.130676
H28   H     H_    0.815024 0.969284 0.532895 0.114270
H29   H     H_    0.187023 0.025989 0.489017 0.113777
H30   H     H_    0.466134 0.792756 0.518453 0.108726
H31   H     H_    0.536571 0.199351 0.511360 0.102762
H32   H     H_    0.281737 0.553568 0.479698 0.114640
N1    N     N_R   0.989468 0.496332 0.797186 -0.396368
N2    N     N_R   0.012619 0.503226 0.202999 -0.396685
N3    N     N_R   0.795430 0.560780 0.467350 -0.230141
N4    N     N_R   0.204570 0.439220 0.532650 -0.229918
N5    N     N_1   0.266313 0.567102 0.656192 -0.268468
N6    N     N_1   0.737276 0.452020 0.340748 -0.268508
N7    N     N_1   0.565940 0.826550 0.375776 -0.280419
N8    N     N_1   0.439078 0.179873 0.628819 -0.282169
O1    O     O_R   0.977900 0.338120 0.517190 -0.510294
O2    O     O_2   0.994997 0.659865 0.183046 -0.492644
O3    O     O_2   0.031811 0.347341 0.224506 -0.492168
O4    O     O_2   0.953203 0.643157 0.775182 -0.493673
O5    O     O_R   0.022100 0.661880 0.482810 -0.510830
O6    O     O_R   0.839850 0.379180 0.495160 -0.509002
O7    O     O_R   0.160150 0.620820 0.504840 -0.507416
O8    O     O_R   0.069030 0.479490 0.580750 -0.484959
O9    O     O_R   0.930970 0.520510 0.419250 -0.484449
O10   O     O_R   0.930970 0.520550 0.558720 -0.507736
O11   O     O_R   0.069030 0.479450 0.441280 -0.507648
O12   O     O_2   0.024159 0.348614 0.817731 -0.493293

loop_
_geom_bond_atom_site_label_1
_geom_bond_atom_site_label_2
_ccdc_geom_bond_type
C39   H26   S    
C21   C26   A    
C63   C65   A    
C34   C56   A    
C23   C45   A    
C29   C33   A    
C17   O11   A    
C35   C36   A    
C41   N2    A    
Cu1   O8    S    
C47   C49   A    
C12   O7    A    
C3    C64   A    
C47   N3    A    
Cu1   O1    S    
C60   C78   A    
C50   C54   A    
C30   C35   A    
C24   C26   A    
C5    C11   A    
C4    C65   A    
C11   C14   A    
C49   C53   A    
C43   C52   A    
C57   C59   A    
C15   C78   A    
C27   C29   A    
Cu2   O5    S    
C68   C74   S    
C72   N2    S    
C71   N1    S    
C69   C71   A    
C18   H22   S    
C32   C39   A    
C77   H13   S    
C19   C77   A    
C62   C64   A    
C44   N3    A    
C49   C51   A    
C22   C25   A    
C45   C67   A    
C50   C52   A    
C16   O10   A    
C2    C61   A    
C42   C51   A    
C48   N4    A    
C2    C34   A    
C48   C50   A    
C40   O12   S    
Cu1   N4    S    
C60   N1    A    
C70   H10   S    
C42   C44   A    
C69   H9    S    
C73   N5    T    
C58   C75   S    
C14   H18   S    
C1    O1    A    
C40   C45   A    
C74   N6    T    
Cu2   O10   S    
C22   C31   A    
C17   O9    A    
C75   N7    T    
C1    O6    A    
C42   H5    S    
C4    C68   A    
C53   C57   A    
C12   O5    A    
C18   C67   A    
C53   C54   A    
C66   C73   S    
C12   C21   S    
C33   C37   A    
C56   C77   A    
C46   H3    S    
C11   H20   S    
C41   O2    S    
C24   C32   A    
C41   C56   A    
C5    C9    A    
C52   C59   A    
C26   H23   S    
C62   H17   S    
C19   H24   S    
C40   N1    A    
Cu2   N3    S    
Cu1   O11   S    
C67   H11   S    
C27   H12   S    
C51   C58   A    
C76   N8    T    
C16   O8    A    
C4    C17   S    
C68   C70   A    
C65   H14   S    
C48   H32   S    
C21   C28   A    
C7    C19   A    
C13   C15   A    
C36   H30   S    
C9    C34   A    
C3    C66   A    
C60   O4    S    
C13   H21   S    
C25   H27   S    
C7    C9    A    
Cu1   O7    S    
C54   C55   A    
C1    C20   S    
Cu2   O9    S    
C28   H1    S    
C43   H6    S    
C47   H2    S    
C24   H29   S    
C64   H15   S    
C15   H19   S    
C44   H4    S    
C6    C10   A    
C5    C8    A    
C57   H8    S    
C6    C7    A    
C20   C27   A    
C10   C23   A    
C31   C38   A    
C46   N4    A    
C61   O3    S    
C38   H25   S    
C36   C38   A    
C29   C31   A    
C6    C13   A    
C30   C32   A    
Cu2   O6    S    
C22   H28   S    
C63   H16   S    
C28   C30   A    
C33   C35   A    
C62   C71   A    
C23   C78   A    
C55   H7    S    
C2    C14   A    
C43   C46   A    
C8    C18   A    
C37   H31   S    
Cu1   Cu2   S    
C66   C69   A    
C37   C39   A    
C63   C72   A    
C8    C10   A    
C20   C25   A    
C55   C58   A    
C61   N2    A    
C70   C72   A    
C59   C76   S    
C3    C16   S    
