data_mof_unit_51944.cif
_audit_creation_date              2012-12-10T18:23:16-0500
_audit_creation_method            fapswitch 2.2
_symmetry_space_group_name_H-M    P1
_symmetry_Int_Tables_number       1
_space_group_crystal_system       triclinic
_cell_length_a                    27.743249
_cell_length_b                    10.619437
_cell_length_c                    9.423093
_cell_angle_alpha                 90.43353
_cell_angle_beta                  89.753485
_cell_angle_gamma                 89.394789
_cell_volume                      2775.94883863

loop_
_atom_site_label
_atom_site_type_symbol
_atom_type_description
_atom_site_fract_x
_atom_site_fract_y
_atom_site_fract_z
_atom_type_partial_charge
C1    C     C_R   0.500169 0.259704 0.499391 0.789014
C2    C     C_R   0.499562 0.740332 0.500657 0.818929
C3    C     C_R   0.102083 0.487404 0.491746 -0.097042
C4    C     C_R   0.897630 0.500299 0.491009 -0.095439
C5    C     C_R   0.127876 0.404673 0.399882 -0.022198
C6    C     C_R   0.871954 0.598946 0.560491 -0.039284
C7    C     C_R   0.101979 0.324408 0.308462 0.183415
C8    C     C_R   0.897964 0.694262 0.630642 0.179339
C9    C     C_R   0.127592 0.567731 0.583841 -0.024049
C10   C     C_R   0.872005 0.403962 0.421662 -0.008623
C11   C     C_R   0.354850 0.495784 0.500099 -0.085610
C12   C     C_R   0.644908 0.502562 0.497781 -0.071754
C13   C     C_R   0.974076 0.401785 0.413483 0.063964
C14   C     C_R   0.025586 0.579970 0.577653 0.063366
C15   C     C_R   0.974537 0.589099 0.568901 0.014481
C16   C     C_R   0.025220 0.404594 0.405389 0.014380
C17   C     C_R   0.948894 0.497196 0.491080 0.067726
C18   C     C_R   0.050817 0.490585 0.491541 0.067513
C19   C     C_R   0.947108 0.305557 0.347824 -0.213370
C20   C     C_R   0.052402 0.656522 0.671105 -0.208696
C21   C     C_R   0.897123 0.306673 0.352324 -0.149296
C22   C     C_R   0.102354 0.650209 0.674061 -0.149432
C23   C     C_R   0.407620 0.499618 0.500211 0.800693
C24   C     C_R   0.592285 0.500819 0.499634 0.824352
C25   C     C_R   0.051653 0.324982 0.312331 -0.267527
C26   C     C_R   0.948254 0.688315 0.634314 -0.263508
C27   C     C_3   0.536423 0.041549 0.581690 -0.208995
C28   C     C_3   0.462808 0.958473 0.418685 -0.204263
C29   C     C_3   0.540608 0.956489 0.449633 0.190494
C30   C     C_3   0.458641 0.043674 0.550817 0.206859
C31   C     C_3   0.498997 0.876856 0.502238 -0.024339
C32   C     C_3   0.500307 0.123256 0.498056 -0.049187
C33   C     C_3   0.493682 0.960857 0.635833 -0.168255
C34   C     C_3   0.505571 0.039160 0.364389 -0.214763
C35   C     C_3   0.480652 0.603574 0.051691 -0.211187
C36   C     C_3   0.519229 0.396654 0.948354 -0.159369
C37   C     C_3   0.456189 0.509623 0.949467 -0.227383
C38   C     C_3   0.543724 0.490341 0.050104 -0.202423
C39   C     C_3   0.524019 0.592066 0.951422 0.617070
C40   C     C_3   0.475914 0.407754 0.048747 0.627893
C41   C     C_R   0.178834 0.406421 0.402202 0.539390
C42   C     C_R   0.820998 0.598555 0.556416 0.605382
C43   C     C_R   0.178059 0.563660 0.584281 0.589923
C44   C     C_R   0.821540 0.406075 0.424383 0.516084
C45   C     C_R   0.278910 0.545076 0.386724 -0.195293
C46   C     C_R   0.721315 0.428669 0.588890 -0.192428
C47   C     C_R   0.328983 0.550186 0.388385 -0.238421
C48   C     C_R   0.671171 0.429064 0.593495 -0.226349
C49   C     C_R   0.330089 0.435344 0.609892 -0.328008
C50   C     C_R   0.669078 0.577583 0.399132 -0.307432
C51   C     C_R   0.279664 0.424687 0.605444 0.518800
C52   C     C_R   0.719708 0.576869 0.392769 0.510459
C53   C     C_R   0.254126 0.483830 0.495378 0.279085
C54   C     C_R   0.745635 0.503024 0.490201 0.286366
Cu1   Cu    Cu3+1 0.500010 0.499990 0.643150 0.974561
Cu2   Cu    Cu3+1 0.499990 0.500010 0.356850 0.959759
H1    H     H_    0.349983 0.395427 0.697672 0.142819
H2    H     H_    0.648471 0.639215 0.330607 0.147876
H3    H     H_    0.567003 0.077893 0.645000 0.138422
H4    H     H_    0.432258 0.922678 0.354837 0.140264
H5    H     H_    0.487818 0.927497 0.745896 0.156920
H6    H     H_    0.511408 0.072332 0.254245 0.166182
H7    H     H_    0.419777 0.519448 0.902211 0.146356
H8    H     H_    0.580353 0.482930 0.096423 0.137172
H9    H     H_    0.464684 0.690089 0.100181 0.132806
H10   H     H_    0.534740 0.309458 0.900115 0.136857
H11   H     H_    0.652877 0.370846 0.670303 0.155299
H12   H     H_    0.347475 0.598715 0.303773 0.158668
H13   H     H_    0.741459 0.371004 0.662570 0.160532
H14   H     H_    0.259194 0.589662 0.301486 0.164185
H15   H     H_    0.878188 0.230521 0.300454 0.187100
H16   H     H_    0.121174 0.711068 0.747609 0.181939
H17   H     H_    0.963629 0.225397 0.295526 0.139229
H18   H     H_    0.035751 0.720143 0.746735 0.138363
H19   H     H_    0.034186 0.263971 0.236964 0.138892
H20   H     H_    0.965849 0.765908 0.686293 0.137810
N1    N     N_R   0.202446 0.483803 0.494656 -0.455332
N2    N     N_R   0.797288 0.503031 0.489472 -0.455711
N3    N     N_3   0.500040 0.499970 0.858290 -0.186549
N4    N     N_3   0.499960 0.500030 0.141710 -0.188245
O1    O     O_R   0.500020 0.316850 0.620870 -0.602985
O2    O     O_R   0.499980 0.683150 0.379130 -0.604267
O3    O     O_R   0.500000 0.316860 0.379090 -0.532483
O4    O     O_R   0.500000 0.683140 0.620910 -0.535850
O5    O     O_R   0.430270 0.500020 0.620880 -0.588449
O6    O     O_R   0.569730 0.499980 0.379120 -0.594539
O7    O     O_R   0.430250 0.500030 0.379090 -0.574559
O8    O     O_R   0.569750 0.499970 0.620910 -0.551944
O9    O     O_2   0.204822 0.331781 0.313530 -0.532843
O10   O     O_2   0.795079 0.691788 0.619154 -0.497066
O11   O     O_2   0.796774 0.311936 0.362377 -0.559524
O12   O     O_2   0.202721 0.639918 0.672599 -0.535431
O13   O     O_3   0.550354 0.689878 0.888286 -0.585557
C55   C     C_3   0.568719 0.770189 0.994354 0.001045
H21   H     H_    0.591962 0.716799 0.069557 0.131058
H22   H     H_    0.538681 0.817330 0.053687 0.137776
C56   C     C_3   0.599224 0.871003 0.923493 -0.294424
H23   H     H_    0.629402 0.825133 0.863958 0.236804
H24   H     H_    0.576642 0.924190 0.847084 0.221240
C57   C     C_3   0.619785 0.962859 0.032121 -0.942182
H25   H     H_    0.590142 0.011911 0.090597 0.250707
H26   H     H_    0.641709 0.034476 0.976838 0.265713
H27   H     H_    0.643219 0.912019 0.108472 0.263365
O14   O     O_3   0.454239 0.301565 0.111045 -0.598951
C58   C     C_3   0.409755 0.273842 0.046494 -0.001522
H28   H     H_    0.403995 0.170895 0.056205 0.168183
H29   H     H_    0.409293 0.293841 0.930514 0.118205
C59   C     C_3   0.368754 0.342718 0.125105 -0.337522
H30   H     H_    0.368003 0.311593 0.237470 0.235998
H31   H     H_    0.375094 0.445696 0.123549 0.216542
C60   C     C_3   0.320041 0.316653 0.057560 -0.865515
H32   H     H_    0.319327 0.354168 0.948052 0.262089
H33   H     H_    0.291091 0.364180 0.120357 0.294025
H34   H     H_    0.313011 0.213888 0.054876 0.249694
O15   O     O_3   0.254269 0.366263 0.713117 -0.596478
C61   C     C_3   0.265863 0.236052 0.718319 0.003045
H35   H     H_    0.252525 0.200487 0.821704 0.194436
H36   H     H_    0.305368 0.216763 0.716511 0.131552
C62   C     C_3   0.240880 0.162586 0.599171 -0.354681
H37   H     H_    0.201605 0.184407 0.600918 0.238985
H38   H     H_    0.255893 0.191067 0.494938 0.241040
C63   C     C_3   0.248437 0.020893 0.615582 -0.843929
H39   H     H_    0.287512 0.996952 0.612345 0.261123
H40   H     H_    0.230292 0.970531 0.527357 0.265702
H41   H     H_    0.232831 0.988708 0.717657 0.262528
O16   O     O_3   0.744589 0.658539 0.305336 -0.594499
C64   C     C_3   0.734687 0.635064 0.160210 0.034520
H42   H     H_    0.744179 0.721498 0.101032 0.192379
H43   H     H_    0.695954 0.617964 0.137874 0.118433
C65   C     C_3   0.765704 0.525516 0.103142 -0.352117
H44   H     H_    0.804115 0.541493 0.130419 0.238376
H45   H     H_    0.753953 0.436507 0.153026 0.244583
C66   C     C_3   0.761098 0.512242 0.942450 -0.877733
H46   H     H_    0.723000 0.494808 0.913003 0.255649
H47   H     H_    0.783646 0.431684 0.904551 0.253561
H48   H     H_    0.773634 0.599057 0.889410 0.289208
N5    N     N_3   0.126234 0.240963 0.210695 -0.511569
H49   H     H_    0.115767 0.148857 0.232946 0.212051
H50   H     H_    0.114726 0.262567 0.108103 0.220193
N6    N     N_3   0.873858 0.798169 0.699555 -0.511606
H51   H     H_    0.883625 0.798477 0.806621 0.213649
H52   H     H_    0.886169 0.881546 0.654265 0.221920
N7    N     N_3   0.585998 0.904280 0.396536 -0.591458
H53   H     H_    0.607036 0.979748 0.363586 0.227404
H54   H     H_    0.578301 0.850669 0.306228 0.209670
N8    N     N_3   0.413249 0.094176 0.606390 -0.604063
H55   H     H_    0.398592 0.153140 0.529044 0.206652
H56   H     H_    0.421271 0.151100 0.693922 0.207404

loop_
_geom_bond_atom_site_label_1
_geom_bond_atom_site_label_2
_ccdc_geom_bond_type
C41   O9    S    
Cu1   Cu2   S    
O13   C55   S    
C27   C29   S    
C8    C26   A    
C14   C18   A    
C11   C47   A    
C60   H32   S    
C12   C48   A    
C56   H23   S    
C49   H1    S    
C27   C33   S    
C37   N3    S    
O16   C64   S    
C21   H15   S    
C11   C49   A    
C35   C37   S    
N6    H52   S    
C37   C40   S    
C41   N1    A    
C38   C39   S    
C36   H10   S    
C9    C22   A    
C40   N4    S    
C35   H9    S    
C1    O1    A    
N7    H53   S    
C29   N7    S    
C35   N4    S    
C34   H6    S    
Cu1   N3    S    
C59   H30   S    
C3    C18   A    
N7    H54   S    
C11   C23   S    
Cu1   O8    S    
C39   O13   S    
C46   H13   S    
C37   H7    S    
C2    O4    A    
C59   H31   S    
C49   C51   A    
C66   H48   S    
C26   H20   S    
C31   C33   S    
Cu1   O1    S    
C38   H8    S    
C58   H29   S    
C45   C47   A    
C27   C32   S    
C28   C34   S    
C23   O7    A    
C42   O10   S    
C22   H16   S    
O14   C58   S    
C56   H24   S    
C52   C54   A    
C30   N8    S    
N8    H56   S    
C28   H4    S    
C10   C21   A    
C58   C59   S    
C46   C48   A    
C9    C43   A    
C13   C19   A    
C10   C44   A    
C50   H2    S    
C14   C20   A    
C19   H17   S    
N6    H51   S    
C4    C6    A    
C7    N5    S    
C52   O16   S    
C15   C26   A    
C6    C8    A    
C55   C56   S    
C3    C5    A    
C29   C34   S    
C57   H27   S    
C51   O15   S    
C24   O6    A    
C2    C31   S    
C51   C53   A    
C39   N3    S    
Cu1   O5    S    
C65   H45   S    
C64   H43   S    
Cu2   O6    S    
C3    C9    A    
C40   O14   S    
N5    H50   S    
C50   C52   A    
C36   C40   S    
C46   C54   A    
C57   H26   S    
C20   H18   S    
C60   H33   S    
C55   H22   S    
C24   O8    A    
C62   H38   S    
C4    C17   A    
C16   C18   A    
C20   C22   A    
C42   N2    A    
C23   O5    A    
C53   N1    S    
C2    O2    A    
C65   C66   S    
C1    O3    A    
C63   H40   S    
C64   H42   S    
C47   H12   S    
C56   C57   S    
Cu2   O3    S    
C5    C7    A    
N8    H55   S    
C58   H28   S    
C62   C63   S    
C16   C25   A    
C15   C17   A    
C5    C41   A    
C30   C33   S    
C19   C21   A    
C45   H14   S    
C28   C31   S    
Cu2   O7    S    
C36   N3    S    
Cu2   N4    S    
C12   C50   A    
C62   H37   S    
C61   C62   S    
Cu2   O2    S    
C43   N1    A    
N5    H49   S    
C12   C24   S    
C43   O12   S    
C7    C25   A    
C59   C60   S    
C13   C17   A    
C8    N6    S    
C63   H41   S    
C44   N2    A    
C65   H44   S    
Cu1   O4    S    
C64   C65   S    
C28   C30   S    
C29   C31   S    
C27   H3    S    
C30   C32   S    
C66   H46   S    
C38   N4    S    
C35   C39   S    
C36   C38   S    
C57   H25   S    
C61   H36   S    
C61   H35   S    
C60   H34   S    
C1    C32   S    
C48   H11   S    
C55   H21   S    
C44   O11   S    
C45   C53   A    
C33   H5    S    
C6    C42   A    
C13   C16   A    
C66   H47   S    
C14   C15   A    
C25   H19   S    
C63   H39   S    
C4    C10   A    
O15   C61   S    
C32   C34   S    
C54   N2    S    
