data_mof_unit_39131.cif
_audit_creation_date              2012-12-11T17:25:12-0500
_audit_creation_method            fapswitch 2.2
_symmetry_space_group_name_H-M    P1
_symmetry_Int_Tables_number       1
_space_group_crystal_system       triclinic
_cell_length_a                    6.951383
_cell_length_b                    20.560751
_cell_length_c                    24.446284
_cell_angle_alpha                 90.116097
_cell_angle_beta                  90.140266
_cell_angle_gamma                 89.111469
_cell_volume                      3493.56364542

loop_
_atom_site_label
_atom_site_type_symbol
_atom_type_description
_atom_site_fract_x
_atom_site_fract_y
_atom_site_fract_z
_atom_type_partial_charge
O1    O     O_R   0.507280 0.423750 0.460310 -0.527255
O2    O     O_R   0.171030 0.555650 0.437630 -0.538882
O3    O     O_R   0.004080 0.576250 0.539690 -0.538337
C1    C     C_R   0.339134 0.575605 0.421774 0.712415
O4    O     O_R   0.177330 0.422980 0.453960 -0.546109
O5    O     O_R   0.010420 0.442640 0.556140 -0.537741
C2    C     C_R   0.347504 0.399067 0.443440 0.758985
O6    O     O_R   0.500930 0.557360 0.443860 -0.534026
O7    O     O_3   0.340310 0.506600 0.533500 -0.368451
V1    V     V_3+5 0.064140 0.498780 0.493780 1.425787
O8    O     O_R   0.680890 0.444350 0.562370 -0.531678
C3    C     C_R   0.850510 0.424314 0.578092 0.733334
O9    O     O_R   0.674590 0.577020 0.546040 -0.539349
C4    C     C_R   0.841778 0.601065 0.556697 0.713799
V2    V     V_3+5 0.564550 0.501220 0.506220 1.453077
O10   O     O_3   0.838250 0.493400 0.466500 -0.367945
C5    C     C_R   0.980426 0.837152 0.911902 -0.126627
C6    C     C_R   0.842574 0.662037 0.588785 -0.089778
C7    C     C_R   0.066481 0.722848 0.903538 -0.132146
C8    C     C_R   0.048876 0.778901 0.935971 -0.028229
C9    C     C_R   0.928482 0.837857 0.856138 -0.206336
C10   C     C_R   0.946906 0.781217 0.822705 0.088451
C11   C     C_R   0.018897 0.723736 0.847751 0.092855
C12   C     C_R   0.899252 0.779633 0.765358 0.068819
C13   C     C_R   0.928591 0.720967 0.734168 0.083313
C14   C     C_R   0.002345 0.665610 0.761604 -0.179174
C15   C     C_R   0.045081 0.667064 0.817058 -0.191010
C16   C     C_R   0.821748 0.834529 0.738296 -0.212320
C17   C     C_R   0.773002 0.832595 0.683259 -0.155747
C18   C     C_R   0.798874 0.775962 0.652104 0.058522
C19   C     C_R   0.880084 0.719274 0.676859 0.031081
C20   C     C_R   0.742380 0.775759 0.596464 0.424086
C21   C     C_R   0.759032 0.717840 0.566063 -0.271600
C22   C     C_R   0.905012 0.662867 0.643426 -0.222603
H1    H     H_    0.100592 0.623044 0.836153 0.128191
H2    H     H_    0.965563 0.618000 0.658856 0.107860
H3    H     H_    0.703410 0.715633 0.524701 0.108975
H4    H     H_    0.712750 0.876469 0.665159 0.171292
H5    H     H_    0.119867 0.678006 0.921751 0.159130
H6    H     H_    0.880634 0.884005 0.839869 0.102608
H7    H     H_    0.027685 0.619662 0.741547 0.121953
H8    H     H_    0.793935 0.880115 0.758727 0.125041
H9    H     H_    0.619428 0.199879 0.788753 0.112322
C23   C     C_R   0.729741 0.265951 0.728632 -0.151261
H10   H     H_    0.588035 0.278142 0.712801 0.112494
C24   C     C_R   0.893584 0.294572 0.706099 0.135084
C25   C     C_R   0.075607 0.277712 0.727284 -0.161483
H11   H     H_    0.203848 0.299117 0.710389 0.114603
C26   C     C_R   0.093544 0.233040 0.770505 -0.151456
H12   H     H_    0.235273 0.220820 0.786288 0.111458
C27   C     C_R   0.929677 0.204546 0.793158 0.136892
C28   C     C_R   0.747673 0.221299 0.771878 -0.154841
C29   C     C_1   0.875546 0.340783 0.661241 -0.063339
C30   C     C_1   0.947760 0.158643 0.838274 -0.059117
C31   C     C_1   0.961063 0.120558 0.876151 -0.192666
C32   C     C_1   0.862704 0.379078 0.623530 -0.179760
C33   C     C_R   0.594452 0.784717 0.245696 0.360089
C34   C     C_R   0.439961 0.798718 0.209502 -0.053996
C35   C     C_R   0.263118 0.768310 0.217920 -0.180194
H13   H     H_    0.143021 0.778472 0.190767 0.195820
C36   C     C_R   0.239107 0.724152 0.260963 -0.187873
H14   H     H_    0.100866 0.701426 0.266273 0.208234
C37   C     C_R   0.392592 0.708270 0.296046 -0.060320
C38   C     C_R   0.571488 0.738891 0.288408 0.358829
C39   C     C_1   0.461242 0.842933 0.163123 0.023743
C40   C     C_1   0.366513 0.660315 0.339430 0.029241
C41   C     C_1   0.349587 0.621286 0.376482 -0.184205
C42   C     C_1   0.475398 0.880031 0.124552 -0.189820
C43   C     C_R   0.462690 0.161603 0.088638 -0.097425
C44   C     C_R   0.361923 0.337982 0.411984 -0.136882
C45   C     C_R   0.403588 0.278052 0.090071 0.415942
C46   C     C_R   0.435930 0.220270 0.061102 -0.257548
C47   C     C_R   0.460529 0.160480 0.146032 -0.224230
C48   C     C_R   0.431314 0.218468 0.177113 0.035889
C49   C     C_R   0.403629 0.277632 0.147891 0.037582
C50   C     C_R   0.426557 0.219711 0.235945 0.081486
C51   C     C_R   0.393487 0.280023 0.264418 0.076754
C52   C     C_R   0.367504 0.337069 0.233184 -0.202329
C53   C     C_R   0.373105 0.335780 0.176496 -0.171875
C54   C     C_R   0.454095 0.162700 0.267292 -0.187503
C55   C     C_R   0.449888 0.164195 0.324034 -0.185221
C56   C     C_R   0.418335 0.222328 0.352257 0.083929
C57   C     C_R   0.388787 0.281305 0.323214 0.094137
C58   C     C_R   0.419365 0.221676 0.409668 -0.249741
C59   C     C_R   0.390442 0.278966 0.439604 0.397643
C60   C     C_R   0.359084 0.339092 0.354507 -0.288171
H15   H     H_    0.351727 0.381318 0.154927 0.171475
H16   H     H_    0.337715 0.386038 0.335817 0.116969
H17   H     H_    0.472781 0.119069 0.346167 0.119443
H18   H     H_    0.437127 0.221146 0.016772 0.121172
H19   H     H_    0.478770 0.113450 0.164797 0.101191
H20   H     H_    0.342095 0.384164 0.251268 0.129741
H21   H     H_    0.480636 0.115620 0.249308 0.116419
H22   H     H_    0.445933 0.176615 0.431579 0.126970
O11   O     O_R   0.323320 0.942780 0.056240 -0.537094
O12   O     O_R   0.647300 0.077050 0.046060 -0.538787
O13   O     O_R   0.813840 0.057330 0.943840 -0.534163
C61   C     C_R   0.477216 0.100928 0.056754 0.717750
O14   O     O_R   0.653250 0.944380 0.062400 -0.536149
O15   O     O_R   0.819830 0.923720 0.960300 -0.532260
C62   C     C_R   0.485202 0.924492 0.078335 0.719863
O16   O     O_R   0.317330 0.076390 0.039790 -0.537651
O17   O     O_3   0.483830 0.993470 0.966560 -0.365914
V3    V     V_3+5 0.760140 0.001210 0.006210 1.425239
O18   O     O_R   0.149290 0.922840 0.953850 -0.540341
C63   C     C_R   0.981911 0.898903 0.943197 0.678318
O19   O     O_R   0.143340 0.055500 0.937510 -0.537587
C64   C     C_R   0.973658 0.075504 0.921755 0.727383
V4    V     V_3+5 0.259690 0.998600 0.993650 1.424045
O20   O     O_3   0.986130 0.006520 0.033440 -0.367862
O21   O     O_3   0.652267 0.830860 0.574723 -0.558577
C65   C     C_3   0.729524 0.847006 0.523142 0.087386
H23   H     H_    0.658923 0.818123 0.490512 0.116983
H24   H     H_    0.888588 0.839014 0.521563 0.116339
C66   C     C_3   0.688410 0.918548 0.511686 -0.714968
H25   H     H_    0.757621 0.949106 0.543422 0.223113
H26   H     H_    0.746560 0.931673 0.470965 0.169177
H27   H     H_    0.530776 0.928256 0.511901 0.224783
O22   O     O_3   0.731114 0.719052 0.318314 -0.536331
C67   C     C_3   0.734828 0.753013 0.368547 0.109874
H28   H     H_    0.607442 0.741535 0.394048 0.101767
H29   H     H_    0.739317 0.806455 0.361986 0.107571
C68   C     C_3   0.914992 0.732661 0.399981 -0.705286
H30   H     H_    0.044900 0.745585 0.376288 0.221944
H31   H     H_    0.919605 0.758091 0.439993 0.149386
H32   H     H_    0.915551 0.679344 0.407255 0.229063
O23   O     O_3   0.773640 0.811566 0.237753 -0.540584
C69   C     C_3   0.771190 0.876752 0.256466 0.114584
H33   H     H_    0.682258 0.884012 0.293980 0.074516
H34   H     H_    0.714622 0.909557 0.223969 0.124226
C70   C     C_3   0.975633 0.896868 0.269867 -0.720115
H35   H     H_    0.065546 0.894945 0.232405 0.220656
H36   H     H_    0.974854 0.947368 0.286064 0.169134
H37   H     H_    0.038863 0.863747 0.301186 0.226385
O24   O     O_3   0.406900 0.278193 0.495972 -0.558410
C71   C     C_3   0.231325 0.257476 0.518354 0.087162
H38   H     H_    0.200409 0.206592 0.505749 0.119133
H39   H     H_    0.109942 0.290123 0.505474 0.120629
C72   C     C_3   0.245117 0.259510 0.580432 -0.692674
H40   H     H_    0.270093 0.310115 0.594455 0.220682
H41   H     H_    0.109070 0.242044 0.598537 0.184394
H42   H     H_    0.365713 0.227740 0.594700 0.221336
O25   O     O_3   0.379545 0.335708 0.061611 -0.556462
C73   C     C_3   0.187968 0.339837 0.042423 0.073320
H43   H     H_    0.083618 0.335584 0.076769 0.125841
H44   H     H_    0.159745 0.301170 0.011585 0.122822
C74   C     C_3   0.154838 0.405536 0.015262 -0.662128
H45   H     H_    0.254817 0.411028 0.980262 0.222791
H46   H     H_    0.004508 0.409340 0.999989 0.183368
H47   H     H_    0.179646 0.445228 0.045229 0.227529
C75   C     C_2   0.102608 0.775986 0.994900 0.388243
H48   H     H_    0.082097 0.818025 0.021242 0.039945
O26   O     O_2   0.170252 0.726301 0.014982 -0.521864

loop_
_geom_bond_atom_site_label_1
_geom_bond_atom_site_label_2
_ccdc_geom_bond_type
C13   C19   A    
V3    O20   S    
C20   O21   S    
C47   C48   A    
C4    C6    S    
O2    C1    A    
O21   C65   S    
C1    O6    A    
C70   H37   S    
C69   H33   S    
C2    C44   S    
C53   H15   S    
C55   C56   A    
O24   C71   S    
C25   C26   A    
C51   C52   A    
C67   H28   S    
C14   C15   A    
C38   O22   S    
C48   C50   A    
C9    C10   A    
C16   C17   A    
C74   H46   S    
C73   C74   S    
O5    C3    A    
C18   C19   A    
C72   H42   S    
C60   H16   S    
H9    C28   S    
C68   H31   S    
C51   C57   A    
V2    O10   S    
O15   V3    S    
C5    C8    A    
C26   C27   A    
C36   C37   A    
C74   H45   S    
C30   C31   T    
O13   C64   A    
O8    V2    S    
C7    C8    A    
C67   H29   S    
C66   H26   S    
O12   C61   A    
C17   H4    S    
C75   H48   S    
C43   C47   A    
O1    V2    S    
C11   C15   A    
C18   C20   A    
O7    V1    S    
C67   C68   S    
C55   H17   S    
C43   C61   S    
C39   C42   T    
O14   V3    S    
C37   C40   S    
C35   H13   S    
O9    C4    A    
O19   V4    S    
C36   H14   S    
C71   C72   S    
C65   H24   S    
C65   H23   S    
C23   C24   A    
C50   C51   A    
C35   C36   A    
C48   C49   A    
C27   C28   A    
C50   C54   A    
C68   H30   S    
C74   H47   S    
C58   C59   A    
C47   H19   S    
C73   H44   S    
O11   V4    S    
O4    C2    A    
C52   C53   A    
C54   C55   A    
C68   H32   S    
C52   H20   S    
C34   C35   A    
C61   O16   A    
C21   H3    S    
C43   C46   A    
C7    C11   A    
C33   O23   S    
C17   C18   A    
C46   H18   S    
C34   C39   S    
C25   H11   S    
C72   H40   S    
C66   H27   S    
C19   C22   A    
C58   H22   S    
C12   C13   A    
O22   C67   S    
C6    C22   A    
C3    C32   S    
O3    C4    A    
C7    H5    S    
C59   O24   S    
C71   H39   S    
O14   C62   A    
C56   C57   A    
O6    V2    S    
C56   C58   A    
O12   V3    S    
C10   C12   A    
O19   C64   A    
O23   C69   S    
O2    V1    S    
C69   C70   S    
C23   H10   S    
C33   C38   A    
C45   O25   S    
C29   C32   T    
O18   V4    S    
C24   C25   A    
O1    C2    A    
C12   C16   A    
C73   H43   S    
C70   H36   S    
C69   H34   S    
O5    V1    S    
C1    C41   S    
O8    C3    A    
O18   C63   A    
O15   C63   A    
C42   C62   S    
C8    C75   S    
C31   C64   S    
O17   V4    S    
C27   C30   S    
C15   H1    S    
C20   C21   A    
O9    V2    S    
C13   C14   A    
C45   C46   A    
O3    V1    S    
V1    O10   S    
C5    C63   S    
C45   C49   A    
C72   H41   S    
C23   C28   A    
C33   C34   A    
C9    H6    S    
C24   C29   S    
C16   H8    S    
C40   C41   T    
C22   H2    S    
C75   O26   D    
O7    V2    S    
C70   H35   S    
C6    C21   A    
C5    C9    A    
O13   V3    S    
C37   C38   A    
O11   C62   A    
O4    V1    S    
C57   C60   A    
C26   H12   S    
O17   V3    S    
C10   C11   A    
C71   H38   S    
O16   V4    S    
C66   H25   S    
C54   H21   S    
V4    O20   S    
C44   C59   A    
C49   C53   A    
C65   C66   S    
O25   C73   S    
C14   H7    S    
C44   C60   A    
