data_mof_unit_33970.cif
_audit_creation_date              2013-03-05T15:55:44-0500
_audit_creation_method            fapswitch 2.2
_symmetry_space_group_name_H-M    P1
_symmetry_Int_Tables_number       1
_space_group_crystal_system       triclinic
_cell_length_a                    10.617935
_cell_length_b                    12.335538
_cell_length_c                    13.094457
_cell_angle_alpha                 116.648406
_cell_angle_beta                  77.357447
_cell_angle_gamma                 101.382196
_cell_volume                      1486.02988099

loop_
_atom_site_label
_atom_site_type_symbol
_atom_site_description
_atom_site_fract_x
_atom_site_fract_y
_atom_site_fract_z
_atom_type_partial_charge
O1    O     O_R   0.537510 0.972500 0.318130 -0.523629
O2    O     O_R   0.487140 0.806530 0.359650 -0.611678
C1    C     C_R   0.511159 0.855043 0.285579 0.787995
O3    O     O_R   0.708330 0.082950 0.479220 -0.593807
O4    O     O_R   0.657960 0.916980 0.520740 -0.600360
C2    C     C_R   0.740249 0.999973 0.500185 0.808044
Cu1   Cu    Cu3+1 0.529830 0.098270 0.475420 0.989571
Cu2   Cu    Cu3+1 0.470170 0.901730 0.524580 0.927744
O5    O     O_R   0.512860 0.193470 0.640350 -0.576264
O6    O     O_R   0.462490 0.027500 0.681870 -0.590899
O7    O     O_R   0.342040 0.083020 0.479260 -0.565509
O8    O     O_R   0.291670 0.917050 0.520780 -0.602070
C3    C     C_R   0.482356 0.144870 0.713805 0.833620
C4    C     C_R   0.259750 0.999937 0.499806 0.838459
C5    C     C_3   0.985315 0.096130 0.482119 -0.215036
C6    C     C_3   0.066994 0.990552 0.397064 -0.207386
H1    H     H_    0.124737 0.982472 0.312810 0.168870
H2    H     H_    0.971574 0.175411 0.468549 0.173658
C7    C     C_3   0.123075 0.999163 0.499536 -0.109635
C8    C     C_3   0.042249 0.101856 0.582838 0.378470
C9    C     C_3   0.933386 0.008726 0.602314 0.094323
C10   C     C_3   0.014435 0.903560 0.518051 -0.179994
C11   C     C_3   0.956314 0.895153 0.415482 -0.178391
C12   C     C_3   0.876829 0.000367 0.500710 -0.042376
H3    H     H_    0.028235 0.825003 0.532732 0.158318
H4    H     H_    0.917538 0.809853 0.346428 0.139439
C13   C     C_R   0.308293 0.279129 0.016246 -0.151921
H5    H     H_    0.301617 0.101450 0.875904 0.159057
H6    H     H_    0.230988 0.462355 0.214086 0.145791
H7    H     H_    0.228674 0.251174 0.070203 0.147540
C14   C     C_R   0.455706 0.226809 0.836278 -0.045434
C15   C     C_R   0.584691 0.814724 0.075777 0.359031
C16   C     C_R   0.605346 0.731659 0.960237 -0.193266
C17   C     C_R   0.564469 0.608450 0.927602 -0.256374
C18   C     C_R   0.499602 0.564259 0.009815 0.087751
C19   C     C_R   0.459610 0.649980 0.123504 0.040403
C20   C     C_R   0.462663 0.437707 0.979281 0.092819
C21   C     C_R   0.360743 0.401628 0.052063 0.122024
C22   C     C_R   0.309910 0.488656 0.158469 -0.216900
C23   C     C_R   0.359919 0.610658 0.194672 -0.161110
C24   C     C_R   0.521704 0.345354 0.878223 0.086536
C25   C     C_R   0.351664 0.193245 0.906762 -0.150814
C26   C     C_R   0.515301 0.773756 0.160402 -0.234742
H8    H     H_    0.578173 0.549520 0.836369 0.175549
H9    H     H_    0.653805 0.762958 0.894778 0.175532
H10   H     H_    0.312961 0.674316 0.275758 0.171010
C27   C     C_R   0.709203 0.347937 0.329276 -0.272743
H11   H     H_    0.732982 0.170956 0.310558 0.161920
H12   H     H_    0.751462 0.547900 0.294944 0.152781
H13   H     H_    0.790788 0.347626 0.262883 0.150663
N1    N     N_R   0.575030 0.246270 0.438190 -0.193068
C28   C     C_R   0.323695 0.759190 0.645755 0.067317
C29   C     C_R   0.285497 0.662810 0.677903 -0.231384
C30   C     C_R   0.351912 0.559705 0.623171 -0.171583
C31   C     C_R   0.458142 0.551609 0.534945 -0.018319
C32   C     C_R   0.494142 0.653198 0.505252 0.289981
C33   C     C_R   0.530137 0.447274 0.475469 -0.036428
C34   C     C_R   0.636468 0.447523 0.388575 0.163471
C35   C     C_R   0.670103 0.547188 0.361293 -0.273203
C36   C     C_R   0.600736 0.647467 0.418200 -0.175392
C37   C     C_R   0.501939 0.341843 0.497834 0.020954
C38   C     C_R   0.676885 0.247852 0.355783 0.147316
N2    N     N_R   0.425760 0.754330 0.561190 -0.208807
H14   H     H_    0.422629 0.333605 0.562079 0.149700
H15   H     H_    0.271599 0.838828 0.688886 0.133707
H16   H     H_    0.318371 0.488087 0.651774 0.182188
H17   H     H_    0.204112 0.668078 0.745603 0.167161
H18   H     H_    0.634805 0.718754 0.390830 0.203365
C39   C     C_3   0.662402 0.363907 0.826250 -0.825888
H19   H     H_    0.712382 0.284336 0.806677 0.226591
H20   H     H_    0.669357 0.373203 0.744719 0.243489
H21   H     H_    0.717050 0.444513 0.887669 0.246136
N3    N     N_R   0.630610 0.940618 0.103876 0.116885
O9    O     O_R   0.751951 0.971229 0.071684 -0.394353
O10   O     O_R   0.547045 0.017875 0.134132 -0.355294
N4    N     N_R   0.092136 0.213494 0.674330 0.112292
O11   O     O_R   0.087958 0.319118 0.676419 -0.390036
O12   O     O_R   0.141503 0.207835 0.754115 -0.393885
C40   C     C_3   0.856928 0.018867 0.718352 -0.766018
H22   H     H_    0.924043 0.023673 0.774755 0.255597
H23   H     H_    0.806680 0.102357 0.760450 0.224584
H24   H     H_    0.783816 0.937727 0.705320 0.236344

loop_
_geom_bond_atom_site_label_1
_geom_bond_atom_site_label_2
_geom_bond_distance
_ccdc_geom_bond_type
C5    H2    1.110339 S    
C31   C32   1.432013 A    
C14   C25   1.399858 A    
C39   H21   1.109679 S    
C16   H9    1.083469 S    
N3    O9    1.301238 A    
C7    C8    1.520158 S    
N1    C37   1.368228 A    
C27   C38   1.388348 A    
Cu1   Cu2   2.703474 S    
C29   C30   1.394152 A    
C23   H10   1.080496 S    
C1    C26   1.485127 S    
C18   C20   1.420490 A    
N4    O12   1.300267 A    
C21   C22   1.393883 A    
O7    C4    1.295050 A    
C13   C21   1.399982 A    
C5    C6    1.552611 S    
C8    N4    1.456792 S    
C17   C18   1.408588 A    
C11   H4    1.110318 S    
C39   H20   1.109215 S    
O5    C3    1.301425 A    
C18   C19   1.415301 A    
C6    H1    1.110144 S    
C10   H3    1.110390 S    
C11   C12   1.537204 S    
C35   C36   1.385801 A    
C9    C10   1.543358 S    
C13   H7    1.083895 S    
N3    O10   1.301408 A    
C9    C40   1.520884 S    
N1    C38   1.354300 A    
O3    Cu1   1.954851 S    
C27   H13   1.083930 S    
C5    C8    1.535706 S    
C19   C23   1.412521 A    
C7    C10   1.541855 S    
C17   H8    1.078623 S    
N4    O11   1.300253 A    
O3    C2    1.291362 A    
C22   C23   1.387940 A    
C40   H23   1.108188 S    
C34   C35   1.389776 A    
O6    C3    1.300205 A    
C32   C36   1.407088 A    
O1    C1    1.302870 A    
C37   H14   1.077020 S    
Cu1   O7    1.957108 S    
C20   C21   1.419996 A    
O4    Cu2   1.957107 S    
H11   C38   1.081640 S    
Cu2   O8    1.954852 S    
C2    C12   1.450761 S    
H6    C22   1.084144 S    
C16   C17   1.385334 A    
C32   N2    1.387454 A    
C5    C12   1.542630 S    
O8    C4    1.290405 A    
C6    C11   1.552021 S    
C31   C33   1.440809 A    
C15   N3    1.432453 S    
C28   C29   1.392508 A    
C24   C39   1.518901 S    
Cu1   O5    1.927138 S    
C30   C31   1.409768 A    
C14   C24   1.405224 A    
O1    Cu1   1.940552 S    
C4    C7    1.450126 S    
C3    C14   1.460755 S    
O2    Cu2   1.927138 S    
C28   N2    1.358320 A    
C40   H24   1.109796 S    
C33   C37   1.419998 A    
C30   H16   1.077886 S    
H12   C35   1.084653 S    
C15   C16   1.392778 A    
O2    C1    1.309987 A    
Cu1   N1    2.037438 S    
C27   C34   1.401704 A    
C13   C25   1.389565 A    
C33   C34   1.417318 A    
O4    C2    1.294266 A    
C6    C7    1.537283 S    
H5    C25   1.083461 S    
C15   C26   1.422725 A    
C20   C24   1.417177 A    
C39   H19   1.109572 S    
C29   H17   1.082584 S    
Cu2   N2    2.025527 S    
C40   H22   1.109624 S    
C8    C9    1.526606 S    
C36   H18   1.064421 S    
Cu2   O6    1.940551 S    
C9    C12   1.530875 S    
C10   C11   1.551801 S    
C19   C26   1.421736 A    
C28   H15   1.081683 S    
