data_mof_unit_63590.cif
_audit_creation_date              2012-12-10T19:42:45-0500
_audit_creation_method            fapswitch 2.2
_symmetry_space_group_name_H-M    P1
_symmetry_Int_Tables_number       1
_space_group_crystal_system       triclinic
_cell_length_a                    30.570881
_cell_length_b                    30.639457
_cell_length_c                    22.254678
_cell_angle_alpha                 89.833147
_cell_angle_beta                  46.106823
_cell_angle_gamma                 90.009545
_cell_volume                      15021.7679962

loop_
_atom_site_label
_atom_site_type_symbol
_atom_type_description
_atom_site_fract_x
_atom_site_fract_y
_atom_site_fract_z
_atom_type_partial_charge
C1    C     C_R   0.189344 0.190038 0.501367 0.883254
C2    C     C_R   0.810118 0.189836 0.500182 0.890045
C3    C     C_R   0.689367 0.690041 0.501323 0.883397
C4    C     C_R   0.310306 0.689828 0.499782 0.889140
C5    C     C_R   0.124379 0.125936 0.563164 0.071074
C6    C     C_R   0.886133 0.167902 0.502682 0.099468
C7    C     C_R   0.623956 0.626190 0.563530 0.070322
C8    C     C_R   0.395060 0.667742 0.484343 0.093576
C9    C     C_R   0.157989 0.156861 0.499441 -0.074997
C10   C     C_R   0.845773 0.156752 0.495227 -0.116765
C11   C     C_R   0.658000 0.656876 0.499417 -0.074993
C12   C     C_R   0.345817 0.656550 0.494739 -0.117494
C13   C     C_R   0.166571 0.152407 0.429347 -0.230358
C14   C     C_R   0.842701 0.113167 0.478685 -0.210028
C15   C     C_R   0.666920 0.652210 0.429080 -0.229036
C16   C     C_R   0.332637 0.612196 0.497240 -0.207869
C17   C     C_R   0.135876 0.119519 0.428006 -0.220843
C18   C     C_R   0.874165 0.081043 0.480020 -0.230783
C19   C     C_R   0.636179 0.619342 0.427785 -0.220849
C20   C     C_R   0.363768 0.580312 0.499580 -0.230645
C21   C     C_R   0.096285 0.091633 0.497296 -0.102546
C22   C     C_R   0.908348 0.092669 0.497905 -0.065199
C23   C     C_R   0.596219 0.591683 0.497351 -0.101966
C24   C     C_R   0.407999 0.592837 0.498962 -0.060718
C25   C     C_R   0.094131 0.093384 0.561866 0.091711
C26   C     C_R   0.918576 0.136295 0.501457 0.073434
C27   C     C_R   0.593647 0.593667 0.562293 0.092267
C28   C     C_R   0.426420 0.636086 0.485179 0.080049
C29   C     C_3   0.041016 0.094226 0.654220 -0.492161
C30   C     C_3   0.915974 0.159515 0.562783 -0.563674
C31   C     C_3   0.540240 0.594903 0.654543 -0.492363
C32   C     C_3   0.436170 0.664284 0.529784 -0.578807
C33   C     C_3   0.073670 0.130992 0.656079 -0.238223
C34   C     C_3   0.878417 0.194259 0.566340 -0.182634
C35   C     C_3   0.572999 0.631613 0.656312 -0.238459
C36   C     C_3   0.401937 0.699833 0.528286 -0.176608
C37   C     C_R   0.005796 0.222546 0.044185 -0.251571
C38   C     C_R   0.995181 0.278885 0.955805 -0.261858
C39   C     C_R   0.505253 0.722073 0.044207 -0.251525
C40   C     C_R   0.495523 0.779204 0.955759 -0.261519
C41   C     C_R   0.957383 0.251832 0.086875 0.100746
C42   C     C_R   0.043618 0.249593 0.913128 0.097756
C43   C     C_R   0.457335 0.751801 0.086863 0.100577
C44   C     C_R   0.543489 0.749495 0.913121 0.097819
C45   C     C_R   0.330649 0.250002 0.338888 0.913015
C46   C     C_R   0.669212 0.249958 0.661102 0.925975
C47   C     C_R   0.830503 0.749835 0.338906 0.911203
C48   C     C_R   0.169347 0.749796 0.661129 0.929705
C49   C     C_R   0.951527 0.280370 0.042954 0.018534
C50   C     C_R   0.049070 0.220769 0.957117 0.015766
C51   C     C_R   0.451934 0.780746 0.042905 0.018358
C52   C     C_R   0.548485 0.720270 0.957141 0.015693
C53   C     C_1   0.912880 0.250730 0.175939 -0.059487
C54   C     C_1   0.088187 0.250494 0.824052 -0.072766
C55   C     C_1   0.412841 0.750737 0.175931 -0.059563
C56   C     C_1   0.588109 0.750419 0.824048 -0.073019
C57   C     C_1   0.125515 0.250611 0.749453 -0.177405
C58   C     C_1   0.875382 0.250224 0.250530 -0.180723
C59   C     C_1   0.625481 0.750572 0.749451 -0.178280
C60   C     C_1   0.375361 0.750241 0.250524 -0.180333
C61   C     C_R   0.353771 0.382731 0.465694 0.089523
C62   C     C_R   0.641352 0.381180 0.541166 0.083483
C63   C     C_R   0.862979 0.879745 0.453225 0.080638
C64   C     C_R   0.147603 0.883021 0.532327 0.089645
C65   C     C_R   0.342232 0.342366 0.502155 -0.112820
C66   C     C_R   0.657453 0.342373 0.498639 -0.110855
C67   C     C_R   0.842643 0.842293 0.501024 -0.104309
C68   C     C_R   0.158048 0.842474 0.497376 -0.115777
C69   C     C_R   0.364192 0.333986 0.539659 -0.204545
C70   C     C_R   0.640342 0.335546 0.454653 -0.204030
C71   C     C_R   0.855097 0.836835 0.550816 -0.207817
C72   C     C_R   0.134943 0.833960 0.461482 -0.201928
C73   C     C_R   0.396059 0.366585 0.540197 -0.225907
C74   C     C_R   0.608519 0.368096 0.453962 -0.232320
C75   C     C_R   0.886621 0.869484 0.551926 -0.223157
C76   C     C_R   0.102807 0.866491 0.461369 -0.231529
C77   C     C_R   0.407166 0.406881 0.501309 -0.073005
C78   C     C_R   0.592701 0.406782 0.498935 -0.078777
C79   C     C_R   0.906735 0.906868 0.501724 -0.081939
C80   C     C_R   0.092478 0.906838 0.499229 -0.074288
C81   C     C_R   0.385781 0.413489 0.464097 0.081453
C82   C     C_R   0.609815 0.411958 0.541815 0.087969
C83   C     C_R   0.893986 0.910665 0.453367 0.087497
C84   C     C_R   0.115082 0.913650 0.534739 0.083301
C85   C     C_3   0.380287 0.446154 0.419828 -0.548023
C86   C     C_3   0.609615 0.443031 0.593380 -0.545011
C87   C     C_3   0.900572 0.939739 0.393714 -0.533391
C88   C     C_3   0.121878 0.946504 0.577177 -0.553929
C89   C     C_R   0.309755 0.309931 0.500681 0.887919
C90   C     C_R   0.689995 0.309935 0.499865 0.889466
C91   C     C_R   0.810213 0.809904 0.499679 0.887129
C92   C     C_R   0.190385 0.809957 0.499049 0.890734
C93   C     C_3   0.343270 0.410734 0.421759 -0.188346
C94   C     C_3   0.645600 0.407513 0.593373 -0.193148
C95   C     C_3   0.865408 0.903995 0.392590 -0.197544
C96   C     C_3   0.159555 0.911210 0.574219 -0.187847
C97   C     C_R   0.560271 0.439997 0.499731 0.893132
C98   C     C_R   0.439566 0.440117 0.500413 0.889888
C99   C     C_R   0.060312 0.940108 0.499788 0.893888
C100  C     C_R   0.939596 0.939975 0.500481 0.888401
C101  C     C_R   0.060517 0.060245 0.499505 0.887345
C102  C     C_R   0.940076 0.060091 0.499875 0.892035
C103  C     C_R   0.560492 0.560270 0.499512 0.885964
C104  C     C_R   0.440397 0.560480 0.500034 0.890847
C105  C     C_R   0.169585 0.250210 0.661038 0.910710
C106  C     C_R   0.830776 0.249999 0.338956 0.909730
C107  C     C_R   0.669587 0.750209 0.661036 0.910881
C108  C     C_R   0.330772 0.750004 0.338954 0.908595
C109  C     C_R   0.485988 0.229677 0.957531 -0.187213
C110  C     C_R   0.442795 0.229585 0.044453 -0.190908
C111  C     C_R   0.053783 0.725542 0.956476 -0.199751
C112  C     C_R   0.010071 0.725353 0.043389 -0.188900
C113  C     C_R   0.542273 0.249784 0.913228 0.160187
C114  C     C_R   0.456167 0.249444 0.086702 0.170960
C115  C     C_R   0.042088 0.747125 0.913372 0.168167
C116  C     C_R   0.954718 0.746602 0.086912 0.164146
C117  C     C_R   0.555417 0.269955 0.955517 -0.228250
C118  C     C_R   0.512477 0.269521 0.042334 -0.199030
C119  C     C_R   0.986543 0.768097 0.956952 -0.198304
C120  C     C_R   0.942850 0.767931 0.043841 -0.203781
C121  C     C_1   0.586697 0.249728 0.824314 -0.075918
C122  C     C_1   0.411968 0.249487 0.175630 -0.078355
C123  C     C_1   0.087205 0.748072 0.824417 -0.085883
C124  C     C_1   0.910705 0.747521 0.175797 -0.072214
C125  C     C_1   0.374829 0.249702 0.250302 -0.169954
C126  C     C_1   0.624366 0.249819 0.749652 -0.151909
C127  C     C_1   0.874000 0.748671 0.250403 -0.167621
C128  C     C_1   0.124917 0.749003 0.749734 -0.159245
H1    H     H_    0.399184 0.214052 0.078627 0.135813
H2    H     H_    0.475590 0.214152 0.924964 0.138330
H3    H     H_    0.019481 0.708924 0.076575 0.139976
H4    H     H_    0.096558 0.709031 0.923050 0.129472
H5    H     H_    0.009150 0.200396 0.078965 0.150275
H6    H     H_    0.991769 0.300971 0.921025 0.146203
H7    H     H_    0.508256 0.699620 0.079012 0.150321
H8    H     H_    0.492461 0.801588 0.920945 0.146261
H9    H     H_    0.356072 0.302867 0.569224 0.165584
H10   H     H_    0.652229 0.305695 0.420227 0.164946
H11   H     H_    0.839887 0.807969 0.589240 0.161298
H12   H     H_    0.142324 0.802775 0.432888 0.166780
H13   H     H_    0.412426 0.360295 0.569717 0.149676
H14   H     H_    0.595824 0.362972 0.419561 0.152008
H15   H     H_    0.895921 0.865352 0.590549 0.155210
H16   H     H_    0.085658 0.860117 0.432934 0.149007
H17   H     H_    0.352428 0.474636 0.459796 0.186585
H18   H     H_    0.636815 0.472830 0.557672 0.193521
H19   H     H_    0.874551 0.970503 0.423674 0.184814
H20   H     H_    0.149359 0.975115 0.536398 0.195270
H21   H     H_    0.424934 0.454475 0.356945 0.211980
H22   H     H_    0.563041 0.449335 0.654805 0.209577
H23   H     H_    0.948809 0.944172 0.334324 0.212818
H24   H     H_    0.077768 0.954771 0.640488 0.207337
H25   H     H_    0.294489 0.419443 0.463417 0.152329
H26   H     H_    0.693204 0.417517 0.557731 0.152437
H27   H     H_    0.819579 0.914868 0.421540 0.154040
H28   H     H_    0.208495 0.919989 0.531054 0.150287
H29   H     H_    0.598797 0.285838 0.921422 0.131252
H30   H     H_    0.523051 0.284871 0.074786 0.135253
H31   H     H_    0.977197 0.784679 0.923837 0.134548
H32   H     H_    0.900134 0.784597 0.077365 0.136196
H33   H     H_    0.195508 0.174866 0.377208 0.147568
H34   H     H_    0.814440 0.103669 0.468001 0.171379
H35   H     H_    0.696159 0.674493 0.376701 0.148733
H36   H     H_    0.296711 0.602178 0.501232 0.172527
H37   H     H_    0.140601 0.117377 0.375152 0.166290
H38   H     H_    0.869992 0.047229 0.470487 0.136636
H39   H     H_    0.641192 0.617036 0.374702 0.166611
H40   H     H_    0.352058 0.546269 0.504726 0.135015
H41   H     H_    0.998040 0.103773 0.672470 0.210392
H42   H     H_    0.891631 0.140533 0.621233 0.213803
H43   H     H_    0.497524 0.604586 0.672176 0.209881
H44   H     H_    0.412973 0.651459 0.592687 0.207812
H45   H     H_    0.037746 0.063728 0.684338 0.190689
H46   H     H_    0.961482 0.171528 0.533436 0.190582
H47   H     H_    0.536482 0.564509 0.685284 0.191088
H48   H     H_    0.484987 0.672183 0.489942 0.194698
H49   H     H_    0.088215 0.121108 0.688182 0.148151
H50   H     H_    0.902717 0.226082 0.540042 0.146053
H51   H     H_    0.587159 0.621791 0.688927 0.147880
H52   H     H_    0.432285 0.727320 0.486068 0.144168
O1    O     O_R   0.178350 0.230070 0.500010 -0.618319
O2    O     O_R   0.821650 0.230070 0.499990 -0.626671
O3    O     O_R   0.678350 0.730070 0.500010 -0.617946
O4    O     O_R   0.321650 0.730070 0.499990 -0.623739
O5    O     O_R   0.511410 0.454120 0.568820 -0.624803
O6    O     O_R   0.488590 0.454120 0.431180 -0.625934
O7    O     O_R   0.011410 0.954120 0.568820 -0.624853
O8    O     O_R   0.988590 0.954120 0.431180 -0.626492
O9    O     O_R   0.080260 0.045800 0.431140 -0.627667
O10   O     O_R   0.919740 0.045800 0.568860 -0.628222
O11   O     O_R   0.580260 0.545800 0.431140 -0.627510
O12   O     O_R   0.419740 0.545800 0.568860 -0.627496
O13   O     O_R   0.011410 0.045760 0.568860 -0.626717
O14   O     O_R   0.988590 0.045760 0.431140 -0.622124
O15   O     O_R   0.511410 0.545760 0.568860 -0.627119
O16   O     O_R   0.488590 0.545760 0.431140 -0.621750
O17   O     O_R   0.230030 0.178320 0.500020 -0.624714
O18   O     O_R   0.769970 0.178320 0.499980 -0.628158
O19   O     O_R   0.730030 0.678320 0.500020 -0.624718
O20   O     O_R   0.269970 0.678320 0.499980 -0.629559
O21   O     O_R   0.285150 0.275890 0.378020 -0.617855
O22   O     O_R   0.714850 0.275890 0.621980 -0.617001
O23   O     O_R   0.785150 0.775890 0.378020 -0.621808
O24   O     O_R   0.214850 0.775890 0.621980 -0.608900
O25   O     O_R   0.336840 0.224130 0.378040 -0.616288
O26   O     O_R   0.663160 0.224130 0.621960 -0.620195
O27   O     O_R   0.836840 0.724130 0.378040 -0.616815
O28   O     O_R   0.163160 0.724130 0.621960 -0.620033
O29   O     O_R   0.269970 0.321680 0.499990 -0.628488
O30   O     O_R   0.730030 0.321680 0.500010 -0.629009
O31   O     O_R   0.769970 0.821680 0.499990 -0.627613
O32   O     O_R   0.230030 0.821680 0.500010 -0.629788
O33   O     O_R   0.321650 0.269930 0.500010 -0.625845
O34   O     O_R   0.678350 0.269930 0.499990 -0.624601
O35   O     O_R   0.821650 0.769930 0.500010 -0.624386
O36   O     O_R   0.178350 0.769930 0.499990 -0.625108
O37   O     O_R   0.163160 0.275870 0.621980 -0.612207
O38   O     O_R   0.836840 0.275870 0.378020 -0.621341
O39   O     O_R   0.663160 0.775870 0.621980 -0.611054
O40   O     O_R   0.336840 0.775870 0.378020 -0.624061
O41   O     O_R   0.214850 0.224110 0.621990 -0.619580
O42   O     O_R   0.785150 0.224110 0.378010 -0.615913
O43   O     O_R   0.714850 0.724110 0.621990 -0.619561
O44   O     O_R   0.285150 0.724110 0.378010 -0.614893
O45   O     O_R   0.580260 0.454160 0.431100 -0.626643
O46   O     O_R   0.419740 0.454160 0.568900 -0.622955
O47   O     O_R   0.080260 0.954160 0.431100 -0.626285
O48   O     O_R   0.919740 0.954160 0.568900 -0.624097
Zn1   Zn    Zn3+2 0.215490 0.284560 0.500000 0.949320
Zn2   Zn    Zn3+2 0.784510 0.284560 0.500000 0.935401
Zn3   Zn    Zn3+2 0.715490 0.784560 0.500000 0.951092
Zn4   Zn    Zn3+2 0.284510 0.784560 0.500000 0.934832
Zn5   Zn    Zn3+2 0.284510 0.215440 0.500020 0.953650
Zn6   Zn    Zn3+2 0.715490 0.215440 0.499980 0.952065
Zn7   Zn    Zn3+2 0.784510 0.715440 0.500020 0.954057
Zn8   Zn    Zn3+2 0.215490 0.715440 0.499980 0.952978
Zn9   Zn    Zn3+2 0.045990 0.000000 0.408050 0.942722
Zn10  Zn    Zn3+2 0.954010 1.000000 0.591950 0.941045
Zn11  Zn    Zn3+2 0.545990 0.500000 0.408050 0.944204
Zn12  Zn    Zn3+2 0.454010 0.500000 0.591950 0.942094
C129  C     C_R   0.372203 0.393382 0.337340 0.183474
C130  C     C_R   0.432930 0.379069 0.278171 -0.152660
C131  C     C_R   0.458475 0.363971 0.200318 -0.160086
C132  C     C_R   0.423779 0.362748 0.180858 -0.111077
C133  C     C_R   0.363290 0.376185 0.239512 -0.127928
C134  C     C_R   0.337581 0.391455 0.317348 -0.129088
H53   H     H_    0.460593 0.379761 0.292018 0.135985
H54   H     H_    0.505274 0.353366 0.154965 0.125437
H55   H     H_    0.443679 0.351317 0.120406 0.133673
H56   H     H_    0.336351 0.374940 0.224537 0.127519
H57   H     H_    0.290681 0.401936 0.361892 0.109552
C135  C     C_R   0.612235 0.387710 0.678267 0.182057
C136  C     C_R   0.552812 0.370961 0.729427 -0.156778
C137  C     C_R   0.522186 0.354835 0.809029 -0.154280
C138  C     C_R   0.550384 0.355151 0.838350 -0.106272
C139  C     C_R   0.609755 0.370700 0.787481 -0.139846
C140  C     C_R   0.640588 0.386913 0.707822 -0.137668
H58   H     H_    0.529901 0.370816 0.708216 0.137791
H59   H     H_    0.476381 0.342379 0.848257 0.133792
H60   H     H_    0.526272 0.343197 0.900409 0.138276
H61   H     H_    0.631749 0.370470 0.810024 0.123136
H62   H     H_    0.686343 0.399313 0.669616 0.111524
C141  C     C_R   0.902338 0.881644 0.308993 0.178343
C142  C     C_R   0.959188 0.862614 0.267285 -0.152004
C143  C     C_R   0.993668 0.844375 0.188216 -0.156917
C144  C     C_R   0.971991 0.844933 0.149920 -0.105834
C145  C     C_R   0.915226 0.862935 0.191305 -0.135118
C146  C     C_R   0.880481 0.881153 0.270496 -0.143307
H63   H     H_    0.977214 0.862351 0.295369 0.137023
H64   H     H_    0.037465 0.830119 0.156312 0.131453
H65   H     H_    0.999093 0.831247 0.088294 0.136786
H66   H     H_    0.898274 0.862965 0.161800 0.127381
H67   H     H_    0.836892 0.895419 0.301236 0.116201
C147  C     C_R   0.132188 0.893573 0.657968 0.184193
C148  C     C_R   0.071126 0.879931 0.719491 -0.155071
C149  C     C_R   0.047348 0.863930 0.796145 -0.160305
C150  C     C_R   0.084177 0.861019 0.812007 -0.112129
C151  C     C_R   0.144995 0.873785 0.751003 -0.129467
C152  C     C_R   0.168911 0.890054 0.674420 -0.127132
H68   H     H_    0.041895 0.881691 0.708305 0.136583
H69   H     H_    0.000301 0.853827 0.843282 0.126400
H70   H     H_    0.065686 0.848708 0.871429 0.132127
H71   H     H_    0.173623 0.871146 0.763103 0.119838
H72   H     H_    0.216156 0.899857 0.627920 0.106054
C153  C     C_R   0.040398 0.174357 0.685385 0.174637
C154  C     C_R   0.026074 0.195660 0.752967 -0.162547
C155  C     C_R   0.994667 0.235251 0.782113 -0.119694
C156  C     C_R   0.977320 0.254019 0.744051 -0.111763
C157  C     C_R   0.990918 0.233070 0.677136 -0.145283
C158  C     C_R   0.022020 0.193384 0.648042 -0.123488
H73   H     H_    0.038884 0.181501 0.783517 0.113772
H74   H     H_    0.983601 0.251344 0.834418 0.129873
H75   H     H_    0.953069 0.284686 0.766692 0.120167
H76   H     H_    0.977131 0.247488 0.647976 0.126307
H77   H     H_    0.031570 0.177556 0.596590 0.136737
C159  C     C_R   0.813597 0.197676 0.650826 0.182738
C160  C     C_R   0.791002 0.238560 0.689775 -0.132126
C161  C     C_R   0.732487 0.242219 0.769261 -0.139536
C162  C     C_R   0.695986 0.205140 0.810504 -0.113267
C163  C     C_R   0.717417 0.164479 0.771849 -0.154813
C164  C     C_R   0.775848 0.160628 0.692507 -0.157285
H78   H     H_    0.818898 0.267573 0.659074 0.108921
H79   H     H_    0.715596 0.273784 0.799082 0.120883
H80   H     H_    0.651053 0.207823 0.872419 0.142620
H81   H     H_    0.688911 0.135840 0.803691 0.137764
H82   H     H_    0.791753 0.128679 0.664157 0.149609
C165  C     C_R   0.540186 0.675147 0.684746 0.174556
C166  C     C_R   0.525944 0.696752 0.752041 -0.162390
C167  C     C_R   0.495097 0.736567 0.780261 -0.119244
C168  C     C_R   0.478178 0.755237 0.741593 -0.112131
C169  C     C_R   0.491670 0.733979 0.674980 -0.144596
C170  C     C_R   0.522254 0.694087 0.646775 -0.123905
H83   H     H_    0.538417 0.682667 0.783053 0.113745
H84   H     H_    0.484152 0.752913 0.832303 0.129754
H85   H     H_    0.454352 0.786073 0.763518 0.120715
H86   H     H_    0.478221 0.748329 0.645343 0.129302
H87   H     H_    0.531780 0.678042 0.595495 0.137790
C171  C     C_R   0.342884 0.714412 0.613340 0.196156
C172  C     C_R   0.331932 0.759283 0.630857 -0.125918
C173  C     C_R   0.277281 0.773842 0.707540 -0.119638
C174  C     C_R   0.233073 0.743803 0.767636 -0.113551
C175  C     C_R   0.243324 0.699115 0.751110 -0.164724
C176  C     C_R   0.297901 0.684368 0.674472 -0.157553
H88   H     H_    0.365514 0.783101 0.584855 0.098895
H89   H     H_    0.269130 0.808464 0.720282 0.115102
H90   H     H_    0.190846 0.755225 0.826897 0.125004
H91   H     H_    0.208892 0.675874 0.797629 0.131485
H92   H     H_    0.304767 0.649622 0.662659 0.145565
C177  C     C_R   0.099040 0.188545 0.913936 0.125277
C178  C     C_R   0.108876 0.158218 0.858291 -0.133487
C179  C     C_R   0.156031 0.127949 0.817771 -0.130804
C180  C     C_R   0.193403 0.127462 0.832903 -0.110875
C181  C     C_R   0.183573 0.157176 0.888760 -0.135283
C182  C     C_R   0.136506 0.187551 0.929346 -0.161742
H93   H     H_    0.079852 0.157836 0.846679 0.114809
H94   H     H_    0.163477 0.104785 0.774820 0.125202
H95   H     H_    0.229871 0.103990 0.801525 0.121065
H96   H     H_    0.212474 0.156703 0.900559 0.127455
H97   H     H_    0.129597 0.210520 0.972175 0.127699
C183  C     C_R   0.900036 0.311297 0.086405 0.124223
C184  C     C_R   0.887210 0.341210 0.144702 -0.145321
C185  C     C_R   0.837802 0.369526 0.186700 -0.136566
C186  C     C_R   0.801193 0.368548 0.170321 -0.106746
C187  C     C_R   0.814112 0.339391 0.111603 -0.139341
C188  C     C_R   0.863382 0.310926 0.069611 -0.161650
H98   H     H_    0.915450 0.342630 0.157589 0.131737
H99   H     H_    0.827922 0.392258 0.231916 0.133921
H100  H     H_    0.762909 0.390444 0.202985 0.130479
H101  H     H_    0.785802 0.338730 0.098828 0.127238
H102  H     H_    0.872483 0.288226 0.024841 0.123892
C189  C     C_R   0.597944 0.687610 0.913993 0.125433
C190  C     C_R   0.607309 0.657554 0.858367 -0.133276
C191  C     C_R   0.653987 0.626876 0.817868 -0.131218
C192  C     C_R   0.691345 0.625707 0.833003 -0.110788
C193  C     C_R   0.681977 0.655149 0.888841 -0.134826
C194  C     C_R   0.635388 0.685932 0.929406 -0.162144
H103  H     H_    0.578283 0.657698 0.846757 0.114678
H104  H     H_    0.661072 0.603922 0.774931 0.124844
H105  H     H_    0.727443 0.601919 0.801640 0.121179
H106  H     H_    0.710866 0.654149 0.900642 0.128146
H107  H     H_    0.628838 0.708684 0.972218 0.127616
C195  C     C_R   0.401033 0.812215 0.086295 0.124467
C196  C     C_R   0.388847 0.841913 0.144417 -0.145212
C197  C     C_R   0.340055 0.870811 0.186241 -0.137654
C198  C     C_R   0.303432 0.870626 0.169868 -0.105519
C199  C     C_R   0.315711 0.841673 0.111347 -0.138920
C200  C     C_R   0.364365 0.812631 0.069524 -0.161930
H108  H     H_    0.417126 0.842730 0.157272 0.131232
H109  H     H_    0.330674 0.893384 0.231304 0.132414
H110  H     H_    0.265634 0.892980 0.202380 0.130225
H111  H     H_    0.287391 0.841626 0.098579 0.126965
H112  H     H_    0.372985 0.790114 0.024883 0.123871

loop_
_geom_bond_atom_site_label_1
_geom_bond_atom_site_label_2
_ccdc_geom_bond_type
C133  H56   S    
C142  H63   S    
C83   C87   S    
O9    Zn9   S    
C99   O7    A    
C18   H38   S    
C181  C182  A    
C97   O5    A    
C171  C176  A    
C15   H35   S    
C100  O8    A    
C101  O9    A    
C185  H99   S    
C108  O44   A    
O5    Zn12  S    
C104  O12   A    
C29   C33   S    
C132  C133  A    
C147  C148  A    
C9    C13   A    
C64   C84   A    
C91   O35   A    
C172  H88   S    
C11   C15   A    
C182  H97   S    
C23   C103  S    
C12   C16   A    
O10   Zn10  S    
C70   C74   A    
C160  H78   S    
C200  H112  S    
C4    C12   S    
O28   Zn8   S    
C95   C141  S    
C32   H44   S    
C133  C134  A    
C69   H9    S    
C19   H39   S    
O33   Zn5   S    
C102  O14   A    
C41   C49   A    
C25   C29   S    
C115  C123  S    
C178  C179  A    
C27   C31   S    
C28   C32   S    
C183  C184  A    
C62   C66   A    
C189  C194  A    
C73   H13   S    
C17   C21   A    
O24   Zn4   S    
C19   C23   A    
C143  H64   S    
O48   Zn10  S    
O19   Zn7   S    
C145  H66   S    
C78   C82   A    
C193  C194  A    
C68   C72   A    
C190  C191  A    
C48   O28   A    
C88   H20   S    
O31   Zn3   S    
C124  C127  T    
C107  O39   A    
C154  H73   S    
C159  C160  A    
C33   C153  S    
C70   H10   S    
C105  O37   A    
C8    C28   A    
C118  H30   S    
C161  C162  A    
C90   O34   A    
C163  C164  A    
C187  H101  S    
O42   Zn6   S    
C84   C88   S    
C94   C135  S    
C39   C43   A    
C53   C58   T    
C65   C89   S    
C85   H21   S    
C56   C59   T    
C93   H25   S    
C148  H68   S    
C198  C199  A    
C37   C50   A    
C96   H28   S    
C137  H59   S    
O32   Zn4   S    
C68   C92   S    
C38   H6    S    
C112  H3    S    
C3    C11   S    
C166  H83   S    
O6    Zn11  S    
C160  C161  A    
C61   C65   A    
C119  H31   S    
C174  C175  A    
C50   C177  S    
C120  H32   S    
C73   C77   A    
C29   H41   S    
C75   C79   A    
C199  H111  S    
C30   H46   S    
C131  C132  A    
C135  C136  A    
C163  H81   S    
O23   Zn3   S    
C150  H70   S    
C75   H15   S    
C96   C147  S    
C196  H108  S    
C111  C112  A    
O27   Zn7   S    
C66   C70   A    
C16   H36   S    
C194  H107  S    
C64   C68   A    
C85   H17   S    
C144  H65   S    
C86   H22   S    
C136  C137  A    
O12   Zn12  S    
C195  C196  A    
C197  C198  A    
C110  H1    S    
C165  C170  A    
C188  H102  S    
C85   C93   S    
O2    Zn2   S    
C30   H42   S    
C142  C143  A    
C87   C95   S    
C179  H94   S    
C110  C114  A    
C44   C52   A    
O21   Zn1   S    
C150  C151  A    
C190  H103  S    
C51   C195  S    
C136  H58   S    
C177  C182  A    
C134  H57   S    
C35   H51   S    
C132  H55   S    
C30   C34   S    
C33   H49   S    
C147  C152  A    
C180  C181  A    
C64   C96   S    
C91   O31   A    
C10   C14   A    
O17   Zn5   S    
C89   O29   A    
C59   C107  S    
C116  C120  A    
C197  H109  S    
C5    C9    A    
C129  C134  A    
C8    C12   A    
C78   C97   S    
C157  C158  A    
C149  C150  A    
C41   C53   S    
C42   C50   A    
C113  C117  A    
C43   C55   S    
C26   C30   S    
C115  C119  A    
C151  H71   S    
C80   C99   S    
C74   C78   A    
C164  H82   S    
C92   O32   A    
C103  O11   A    
C183  C188  A    
O3    Zn3   S    
C112  C116  A    
O7    Zn10  S    
C46   O26   A    
C21   C25   A    
C138  H60   S    
O41   Zn5   S    
C18   C22   A    
C1    O17   A    
C24   C28   A    
O39   Zn3   S    
C180  H95   S    
C145  C146  A    
C47   C127  S    
C173  C174  A    
C40   C51   A    
C48   O24   A    
C13   C17   A    
C178  H93   S    
C122  C125  T    
C61   C81   A    
C117  C118  A    
C6    C26   A    
C31   H43   S    
C105  O41   A    
C37   H5    S    
C161  H79   S    
C37   C41   A    
O13   Zn10  S    
C4    O20   A    
C113  C121  S    
C187  C188  A    
C192  C193  A    
C151  C152  A    
C139  H61   S    
C3    O3    A    
C81   C85   S    
O16   Zn11  S    
C97   O45   A    
C88   C96   S    
C148  C149  A    
C36   H52   S    
C80   C84   A    
C191  C192  A    
C141  C142  A    
C66   C90   S    
C38   C49   A    
C39   H7    S    
C15   C19   A    
C40   H8    S    
C87   H19   S    
C35   C165  S    
C61   C93   S    
C174  H90   S    
C63   C95   S    
C7    C27   A    
C8    C36   S    
C100  O48   A    
C199  C200  A    
O38   Zn2   S    
O8    Zn9   S    
C189  C190  A    
C196  C197  A    
C69   C73   A    
C60   C108  S    
C168  H85   S    
C175  C176  A    
C62   C82   A    
C2    O18   A    
C55   C60   T    
O34   Zn6   S    
C103  O15   A    
C86   H18   S    
C101  O13   A    
C135  C140  A    
C195  C200  A    
C141  C146  A    
O46   Zn12  S    
C165  C166  A    
C76   C80   A    
C79   C100  S    
C1    C9    S    
C82   C86   S    
C140  H62   S    
C63   C83   A    
C14   H34   S    
C162  C163  A    
C153  C154  A    
C48   C128  S    
C44   C56   S    
C155  C156  A    
C77   C81   A    
C67   C91   S    
C130  C131  A    
C104  O16   A    
C47   O23   A    
C173  H89   S    
C106  O38   A    
C62   C94   S    
O36   Zn8   S    
C31   C35   S    
C34   H50   S    
C32   C36   S    
C89   O33   A    
C168  C169  A    
C45   O25   A    
C116  C124  S    
C185  C186  A    
C6    C10   A    
C184  H98   S    
C38   C42   A    
C34   C159  S    
C157  H76   S    
O26   Zn6   S    
O44   Zn8   S    
C98   O6    A    
C179  C180  A    
C17   H37   S    
C109  C110  A    
C42   C54   S    
C79   C83   A    
C43   C51   A    
C181  H96   S    
C65   C69   A    
C102  O10   A    
C92   O36   A    
C67   C71   A    
C172  C173  A    
C108  O40   A    
C6    C34   S    
C46   O22   A    
C22   C26   A    
C58   C106  S    
C93   C129  S    
O47   Zn9   S    
C57   C105  S    
C186  C187  A    
C177  C178  A    
C14   C18   A    
C72   C76   A    
C1    O1    A    
C31   H47   S    
C167  C168  A    
C7    C11   A    
C32   H48   S    
C137  C138  A    
C129  C130  A    
C154  C155  A    
C36   C171  S    
C149  H69   S    
C192  H105  S    
C131  H54   S    
C176  H92   S    
C2    O2    A    
C86   C94   S    
O37   Zn1   S    
C20   C24   A    
O1    Zn1   S    
C146  H67   S    
C3    O19   A    
C23   C27   A    
C143  C144  A    
C191  H104  S    
C16   C20   A    
O22   Zn2   S    
C21   C101  S    
C39   C52   A    
C74   H14   S    
C87   H23   S    
C169  H86   S    
C88   H24   S    
C107  O43   A    
O11   Zn11  S    
C159  C164  A    
C20   H40   S    
C63   C67   A    
O40   Zn4   S    
C117  H29   S    
C158  H77   S    
O15   Zn12  S    
O35   Zn7   S    
O4    Zn4   S    
O18   Zn6   S    
C45   C125  S    
C90   O30   A    
C71   H11   S    
C169  C170  A    
C156  H75   S    
C153  C158  A    
C5    C33   S    
C24   C104  S    
C171  C172  A    
C175  H91   S    
C40   C44   A    
C94   H26   S    
C139  C140  A    
C152  H72   S    
C77   C98   S    
O29   Zn1   S    
C4    O4    A    
C119  C120  A    
C114  C118  A    
O43   Zn7   S    
C198  H110  S    
C49   C183  S    
C5    C25   A    
C72   H12   S    
C138  C139  A    
C2    C10   S    
C76   H16   S    
C166  C167  A    
C52   C189  S    
C162  H80   S    
C155  H74   S    
C7    C35   S    
C46   C126  S    
O20   Zn8   S    
C29   H45   S    
C13   H33   S    
C109  C113  A    
C130  H53   S    
C22   C102  S    
C47   O27   A    
C156  C157  A    
O25   Zn5   S    
C121  C126  T    
C167  H84   S    
C71   C75   A    
C123  C128  T    
C106  O42   A    
O45   Zn11  S    
C193  H106  S    
C95   H27   S    
O14   Zn9   S    
C99   O47   A    
O30   Zn2   S    
C144  C145  A    
C114  C122  S    
C111  H4    S    
C45   O21   A    
C109  H2    S    
C184  C185  A    
C170  H87   S    
C111  C115  A    
C186  H100  S    
C54   C57   T    
C98   O46   A    
