data_mof_unit_42411.cif
_audit_creation_date              2012-12-10T19:00:00-0500
_audit_creation_method            fapswitch 2.2
_symmetry_space_group_name_H-M    P1
_symmetry_Int_Tables_number       1
_space_group_crystal_system       triclinic
_cell_length_a                    10.6932
_cell_length_b                    10.833306
_cell_length_c                    9.948878
_cell_angle_alpha                 91.074624
_cell_angle_beta                  91.869521
_cell_angle_gamma                 90.67474
_cell_volume                      1151.60040341

loop_
_atom_site_label
_atom_site_type_symbol
_atom_type_description
_atom_site_fract_x
_atom_site_fract_y
_atom_site_fract_z
_atom_type_partial_charge
C1    C     C_R   0.492686 0.260077 0.498590 0.891622
C2    C     C_R   0.441896 0.063097 0.609902 0.127296
C3    C     C_R   0.499038 0.872432 0.500976 -0.187917
C4    C     C_R   0.482011 0.126745 0.496071 -0.216245
C5    C     C_R   0.598621 0.549480 0.077105 0.396522
C6    C     C_R   0.404745 0.444648 0.922506 0.482537
C7    C     C_R   0.595925 0.554719 0.933402 0.222165
C8    C     C_R   0.405069 0.443798 0.066352 0.222017
C9    C     C_R   0.259905 0.498959 0.497489 0.971265
C10   C     C_R   0.739060 0.499202 0.502339 0.979822
C11   C     C_R   0.234895 0.739984 0.139408 -0.320709
C12   C     C_R   0.502964 0.739779 0.500884 0.977795
C13   C     C_R   0.796743 0.086704 0.623207 -0.375430
C14   C     C_R   0.188719 0.715783 0.266008 0.475602
C15   C     C_R   0.842749 0.190340 0.558158 0.440610
C16   C     C_R   0.104765 0.615283 0.279190 -0.047399
C17   C     C_R   0.868911 0.300421 0.634032 -0.053350
C18   C     C_R   0.060816 0.549477 0.163790 -0.197371
C19   C     C_R   0.843323 0.304901 0.771384 -0.354280
C20   C     C_R   0.104227 0.576461 0.037039 0.525479
C21   C     C_R   0.798059 0.199878 0.836253 0.449682
C22   C     C_R   0.197454 0.668084 0.025692 0.304974
C23   C     C_R   0.871199 0.500195 0.507529 -0.181952
C24   C     C_R   0.776044 0.089945 0.762149 0.426320
C25   C     C_R   0.931083 0.588304 0.431146 0.401041
C26   C     C_R   0.066666 0.408203 0.573565 0.437148
C27   C     C_3   0.349168 0.101985 0.218764 -0.719188
C28   C     C_3   0.237063 0.888552 0.701597 -0.629036
C29   C     C_3   0.584536 0.855874 0.162451 -0.557017
C30   C     C_3   0.464550 0.139959 0.840648 -0.646549
C31   C     C_R   0.126074 0.494023 0.492453 -0.178348
C32   C     C_R   0.936064 0.406703 0.575380 -0.144482
C33   C     C_R   0.057612 0.574750 0.409715 -0.205343
C34   C     C_R   0.514594 0.060466 0.379331 0.169457
C35   C     C_R   0.438909 0.935079 0.605030 0.153379
C36   C     C_R   0.542412 0.936534 0.389518 0.136065
H1    H     H_    0.300528 0.815225 0.128856 0.155999
H2    H     H_    0.887702 0.259178 0.385781 0.340357
H3    H     H_    0.090002 0.541504 0.844278 0.389840
H4    H     H_    0.793279 0.286003 0.009197 0.331676
H5    H     H_    0.918832 0.745113 0.337834 0.342131
H6    H     H_    0.089259 0.276269 0.704454 0.354116
H7    H     H_    0.533577 0.176955 0.213017 0.272799
H8    H     H_    0.329542 0.130300 0.114323 0.241384
H9    H     H_    0.299819 0.164437 0.288496 0.250398
H10   H     H_    0.310901 0.007406 0.230116 0.268799
H11   H     H_    0.414094 0.871560 0.796283 0.222883
H12   H     H_    0.778551 0.002469 0.565112 0.174891
H13   H     H_    0.204328 0.945041 0.615375 0.240472
H14   H     H_    0.210826 0.935941 0.796443 0.237035
H15   H     H_    0.187746 0.797994 0.693704 0.258260
H16   H     H_    0.713364 0.928797 0.302132 0.255548
H17   H     H_    0.555641 0.939971 0.109189 0.228748
H18   H     H_    0.506691 0.787892 0.160764 0.227929
H19   H     H_    0.662030 0.816970 0.104513 0.262832
H20   H     H_    0.330735 0.197981 0.696845 0.311136
H21   H     H_    0.408875 0.179403 0.921867 0.222236
H22   H     H_    0.542831 0.204649 0.823187 0.260285
H23   H     H_    0.993177 0.474938 0.172742 0.188588
H24   H     H_    0.502090 0.050621 0.874762 0.249625
H25   H     H_    0.769869 0.613774 0.094454 0.372116
H26   H     H_    0.248541 0.349387 0.903740 0.381481
H27   H     H_    0.861842 0.389460 0.828564 0.242706
H28   H     H_    0.333892 0.728026 0.922764 0.323170
H29   H     H_    0.720889 0.918254 0.761749 0.325174
H30   H     H_    0.656187 0.649191 0.787414 0.384978
H31   H     H_    0.341101 0.358120 0.215255 0.390292
H32   H     H_    0.184504 0.767044 0.453798 0.325811
N1    N     N_R   0.499970 0.499970 0.857200 -0.179979
N2    N     N_R   0.500030 0.500030 0.142800 -0.188261
N3    N     N_2   0.482711 0.104155 0.249089 -0.304820
N4    N     N_2   0.371284 0.869283 0.702159 -0.265138
N5    N     N_2   0.628596 0.882196 0.299481 -0.259369
N6    N     N_2   0.385876 0.123970 0.720426 -0.298373
O1    O     O_R   0.499990 0.316750 0.614620 -0.605648
O2    O     O_3   0.734161 0.987109 0.828002 -0.734130
O3    O     O_3   0.690366 0.618272 0.873293 -0.766410
O4    O     O_3   0.309063 0.383387 0.126602 -0.787953
O5    O     O_3   0.228584 0.791132 0.372470 -0.782323
O6    O     O_3   0.862868 0.178477 0.422043 -0.748679
O7    O     O_3   0.057064 0.507961 0.928186 -0.776438
O8    O     O_3   0.774912 0.201903 0.971989 -0.723536
O9    O     O_3   0.861681 0.680587 0.370895 -0.727996
O10   O     O_3   0.138762 0.320564 0.637970 -0.759530
O11   O     O_3   0.699281 0.595258 0.153093 -0.675231
O12   O     O_R   0.500010 0.683250 0.385380 -0.557463
O13   O     O_3   0.309496 0.389759 0.845616 -0.686854
O14   O     O_R   0.499990 0.316780 0.385290 -0.659352
O15   O     O_R   0.500010 0.683220 0.614710 -0.655934
O16   O     O_R   0.316760 0.500000 0.614660 -0.507439
O17   O     O_R   0.683240 0.500000 0.385340 -0.523911
O18   O     O_R   0.316760 0.500020 0.385330 -0.639897
O19   O     O_R   0.683240 0.499980 0.614670 -0.635166
O20   O     O_3   0.254071 0.682624 0.904863 -0.776764
Zn1   Zn    Zn3+2 0.500000 0.499980 0.653120 1.007959
Zn2   Zn    Zn3+2 0.500000 0.500020 0.346880 1.008756

loop_
_geom_bond_atom_site_label_1
_geom_bond_atom_site_label_2
_ccdc_geom_bond_type
C2    C35   A    
C6    N1    A    
O14   Zn2   S    
C26   C32   A    
N2    Zn2   S    
O1    Zn1   S    
O16   Zn1   S    
C35   N4    S    
H29   O2    S    
H2    O6    S    
C19   C21   A    
C30   N6    S    
C28   H15   S    
C29   N5    S    
C29   H18   S    
H5    O9    S    
C30   H21   S    
O18   Zn2   S    
C11   H1    S    
C3    C12   S    
C17   C19   A    
O17   Zn2   S    
C28   H14   S    
C27   H8    S    
C19   H27   S    
C30   H24   S    
C26   O10   S    
C31   C33   A    
C34   C36   A    
C2    N6    S    
C7    O3    S    
C5    O11   S    
C27   H9    S    
H32   O5    S    
C26   C31   A    
O19   Zn1   S    
C20   O7    S    
C8    O4    S    
C22   O20   S    
C28   N4    S    
H31   O4    S    
C9    O18   A    
C4    C34   A    
H20   N6    S    
C1    O1    A    
H4    O8    S    
C12   O15   A    
H6    O10   S    
H3    O7    S    
H16   N5    S    
C5    C7    A    
C24   O2    S    
C6    C8    A    
C29   H19   S    
C10   O19   A    
C6    O13   S    
C13   C24   A    
O15   Zn1   S    
C2    C4    A    
C5    N2    A    
C16   C33   S    
C28   H13   S    
C15   O6    S    
C3    C35   A    
C14   O5    S    
O12   Zn2   S    
C27   H10   S    
C20   C22   A    
C10   O17   A    
C13   C15   A    
C14   C16   A    
C27   N3    S    
C15   C17   A    
H30   O3    S    
H7    N3    S    
N1    Zn1   S    
C9    O16   A    
C7    N1    A    
C13   H12   S    
C10   C23   S    
H26   O13   S    
C11   C22   A    
C8    N2    A    
C12   O12   A    
C1    C4    S    
C23   C32   A    
H25   O11   S    
H28   O20   S    
C29   H17   S    
C3    C36   A    
C1    O14   A    
C30   H22   S    
C11   C14   A    
C18   C20   A    
C23   C25   A    
H11   N4    S    
C36   N5    S    
C9    C31   S    
C18   H23   S    
C21   O8    S    
C16   C18   A    
C21   C24   A    
C25   O9    S    
C17   C32   S    
C34   N3    S    
C25   C33   A    
