data_mof_unit_28863.cif
_audit_creation_date              2012-12-11T15:08:39-0500
_audit_creation_method            fapswitch 2.2
_symmetry_space_group_name_H-M    P1
_symmetry_Int_Tables_number       1
_space_group_crystal_system       triclinic
_cell_length_a                    26.813911
_cell_length_b                    7.078625
_cell_length_c                    11.979764
_cell_angle_alpha                 90.00111
_cell_angle_beta                  103.506006
_cell_angle_gamma                 89.998988
_cell_volume                      2210.94487903

loop_
_atom_site_label
_atom_site_type_symbol
_atom_type_description
_atom_site_fract_x
_atom_site_fract_y
_atom_site_fract_z
_atom_type_partial_charge
O1    O     O_R   0.437360 0.505910 0.042120 -0.536538
O2    O     O_R   0.562640 0.005910 0.957880 -0.536536
O3    O     O_R   0.542480 0.176660 0.157100 -0.536386
O4    O     O_R   0.457520 0.676660 0.842900 -0.536385
C1    C     C_R   0.556360 0.344459 0.198146 0.694935
C2    C     C_R   0.443640 0.844457 0.801854 0.694926
O5    O     O_R   0.436520 0.176250 0.054800 -0.543977
O6    O     O_R   0.563480 0.676250 0.945200 -0.543974
O7    O     O_R   0.455920 0.005040 0.854840 -0.541303
O8    O     O_R   0.544080 0.505040 0.145160 -0.541308
C3    C     C_R   0.417421 0.344778 0.063029 0.691427
C4    C     C_R   0.582579 0.844773 0.936968 0.691417
O9    O     O_3   0.506490 0.338900 0.934520 -0.374321
O10   O     O_3   0.493510 0.838900 0.065480 -0.374325
V1    V     V_3+5 0.498800 0.064400 0.012150 1.426187
V2    V     V_3+5 0.501200 0.564400 0.987850 1.426194
C5    C     C_R   0.680794 0.882204 0.760102 -0.156598
C6    C     C_R   0.319208 0.382555 0.239883 -0.156610
H1    H     H_    0.598582 0.877465 0.723384 0.105091
H2    H     H_    0.401420 0.377840 0.276597 0.105094
H3    H     H_    0.774212 0.903908 0.723009 0.139934
H4    H     H_    0.225791 0.404421 0.276968 0.139951
H5    H     H_    0.681289 0.896268 0.670255 0.131992
H6    H     H_    0.318714 0.396787 0.329722 0.132013
C7    C     C_R   0.631977 0.853554 0.904983 -0.036311
C8    C     C_R   0.368023 0.353584 0.095017 -0.036317
C9    C     C_R   0.868447 0.838816 0.211341 -0.190014
C10   C     C_R   0.131551 0.338610 0.788667 -0.189993
C11   C     C_R   0.822787 0.824832 0.246569 -0.118849
C12   C     C_R   0.177210 0.324535 0.753443 -0.118808
C13   C     C_R   0.775882 0.831177 0.166485 -0.137099
C14   C     C_R   0.224116 0.330941 0.833524 -0.137136
C15   C     C_R   0.773427 0.850998 0.047583 0.056601
C16   C     C_R   0.226573 0.350943 0.952418 0.056569
C17   C     C_R   0.820522 0.864961 0.012028 0.059786
C18   C     C_R   0.179478 0.365025 0.987968 0.059765
C19   C     C_R   0.725942 0.857292 0.962922 0.062636
C20   C     C_R   0.274058 0.357315 0.037078 0.062626
C21   C     C_R   0.726771 0.876069 0.845099 0.135290
C22   C     C_R   0.273230 0.376309 0.154891 0.135293
C23   C     C_R   0.773381 0.889121 0.812649 -0.209414
C24   C     C_R   0.226621 0.389474 0.187335 -0.209414
C25   C     C_R   0.819499 0.884030 0.894544 -0.209104
C26   C     C_R   0.180502 0.384294 0.105443 -0.209098
C27   C     C_R   0.677493 0.846176 0.990687 -0.219864
C28   C     C_R   0.322507 0.346082 0.009319 -0.219850
C29   C     C_R   0.633706 0.871419 0.789953 -0.189634
C30   C     C_R   0.366295 0.371682 0.210035 -0.189629
C31   C     C_R   0.867867 0.858888 0.095031 -0.076489
C32   C     C_R   0.132132 0.358862 0.904968 -0.076506
H7    H     H_    0.673585 0.832885 0.077835 0.113092
H8    H     H_    0.326413 0.332622 0.922178 0.113077
H9    H     H_    0.904502 0.833314 0.275098 0.104618
H10   H     H_    0.095496 0.333034 0.724914 0.104621
H11   H     H_    0.742316 0.819749 0.200806 0.136157
H12   H     H_    0.257681 0.319431 0.799206 0.136130
H13   H     H_    0.823691 0.809187 0.336944 0.134170
H14   H     H_    0.176306 0.308753 0.663074 0.134165
H15   H     H_    0.854506 0.895123 0.864678 0.128924
H16   H     H_    0.145496 0.395479 0.135304 0.128936
C33   C     C_R   0.091242 0.857792 0.311644 -0.036623
C34   C     C_R   0.908757 0.357777 0.688356 -0.036623
C35   C     C_R   0.408978 0.850202 0.687863 -0.057493
C36   C     C_R   0.591023 0.350208 0.312133 -0.057495
C37   C     C_R   0.104707 0.808822 0.515655 -0.137735
C38   C     C_R   0.895298 0.308673 0.484357 -0.137743
C39   C     C_R   0.071515 0.828928 0.408122 -0.175723
C40   C     C_R   0.928488 0.328777 0.591894 -0.175705
C41   C     C_R   0.144286 0.867562 0.322723 -0.197348
C42   C     C_R   0.855713 0.367636 0.677261 -0.197381
C43   C     C_R   0.179031 0.842075 0.430764 0.077711
C44   C     C_R   0.820971 0.342078 0.569221 0.077717
C45   C     C_R   0.158100 0.814208 0.527645 0.065379
C46   C     C_R   0.841905 0.314159 0.472350 0.065373
C47   C     C_R   0.233474 0.839973 0.445182 -0.007310
C48   C     C_R   0.766529 0.339953 0.554800 -0.007311
C49   C     C_R   0.266344 0.823096 0.557988 -0.045642
C50   C     C_R   0.733659 0.323138 0.441990 -0.045653
C51   C     C_R   0.243753 0.784133 0.652394 0.435248
C52   C     C_R   0.756252 0.284223 0.347579 0.435240
C53   C     C_R   0.190178 0.782476 0.635216 -0.279729
C54   C     C_R   0.809827 0.282480 0.364771 -0.279721
C55   C     C_R   0.256053 0.845956 0.349622 -0.166163
C56   C     C_R   0.743953 0.345807 0.650363 -0.166157
C57   C     C_R   0.308720 0.838183 0.362803 -0.203496
C58   C     C_R   0.691286 0.338018 0.637181 -0.203463
C59   C     C_R   0.341343 0.834723 0.471570 0.127333
C60   C     C_R   0.658661 0.334646 0.528416 0.127338
C61   C     C_R   0.320864 0.837080 0.570721 0.100797
C62   C     C_R   0.679139 0.337098 0.429263 0.100783
C63   C     C_R   0.394613 0.830675 0.481897 -0.166693
C64   C     C_R   0.605392 0.330562 0.518095 -0.166695
C65   C     C_R   0.428209 0.833106 0.589768 -0.176945
C66   C     C_R   0.571794 0.333031 0.410227 -0.176957
C67   C     C_R   0.356048 0.859150 0.678150 -0.170146
C68   C     C_R   0.643952 0.359211 0.321843 -0.170167
H17   H     H_    0.173034 0.746603 0.705776 0.147334
H18   H     H_    0.826970 0.246596 0.294210 0.147359
H19   H     H_    0.343788 0.888530 0.755649 0.150269
H20   H     H_    0.656208 0.388657 0.244347 0.150278
H21   H     H_    0.469172 0.824791 0.596729 0.102930
H22   H     H_    0.530832 0.324677 0.403268 0.102938
H23   H     H_    0.324095 0.837881 0.286709 0.135315
H24   H     H_    0.675911 0.337617 0.713276 0.135310
H25   H     H_    0.088590 0.785519 0.589510 0.113966
H26   H     H_    0.911418 0.285298 0.410514 0.113962
H27   H     H_    0.030471 0.820402 0.399943 0.098422
H28   H     H_    0.969532 0.320165 0.600088 0.098422
H29   H     H_    0.156837 0.894391 0.245100 0.098331
H30   H     H_    0.843156 0.394597 0.754865 0.098347
H31   H     H_    0.234052 0.849062 0.262157 0.132525
H32   H     H_    0.765957 0.348789 0.737827 0.132528
H33   H     H_    0.410259 0.824094 0.406326 0.116469
H34   H     H_    0.589748 0.323910 0.593666 0.116473
O11   O     O_R   0.955980 0.206520 0.854760 -0.538137
O12   O     O_R   0.044020 0.706520 0.145240 -0.538142
O13   O     O_R   0.063490 0.536770 0.945200 -0.542105
O14   O     O_R   0.936510 0.036770 0.054800 -0.542101
C69   C     C_R   0.082734 0.368304 0.937689 0.682466
C70   C     C_R   0.917266 0.868308 0.062310 0.682456
O15   O     O_R   0.957530 0.536190 0.842880 -0.541595
O16   O     O_R   0.042470 0.036190 0.157120 -0.541588
O17   O     O_R   0.937350 0.707210 0.042130 -0.537211
O18   O     O_R   0.062650 0.207210 0.957870 -0.537204
C71   C     C_R   0.943245 0.367672 0.802441 0.690052
C72   C     C_R   0.056752 0.867674 0.197562 0.690051
O19   O     O_3   0.993540 0.373870 0.065440 -0.373434
O20   O     O_3   0.006460 0.873870 0.934560 -0.373435
V3    V     V_3+5 0.001200 0.648440 0.987860 1.417191
V4    V     V_3+5 0.998800 0.148440 0.012140 1.417214
O21   O     O_3   0.273317 0.710141 0.753916 -0.560247
C73   C     C_3   0.264714 0.808521 0.850471 -0.286156
H35   H     H_    0.229895 0.755475 0.875335 0.163290
H36   H     H_    0.262429 0.963885 0.836589 0.130227
H37   H     H_    0.297632 0.781605 0.924170 0.169766
O22   O     O_3   0.726688 0.210333 0.246030 -0.560271
C74   C     C_3   0.735282 0.308866 0.149523 -0.286147
H38   H     H_    0.770113 0.255956 0.124650 0.163266
H39   H     H_    0.737539 0.464217 0.163469 0.130226
H40   H     H_    0.702373 0.281952 0.075804 0.169763

loop_
_geom_bond_atom_site_label_1
_geom_bond_atom_site_label_2
_ccdc_geom_bond_type
C38   C40   A    
C61   C67   A    
C59   C63   A    
C9    C11   A    
C23   C25   A    
O1    C3    A    
C44   C48   A    
C58   H24   S    
O20   V3    S    
C48   C56   A    
C2    O7    A    
C18   C32   A    
C21   C23   A    
C69   O18   A    
C50   C62   A    
O5    C3    A    
C74   H39   S    
C49   C61   A    
C56   H32   S    
C68   H20   S    
C6    H6    S    
C10   C32   A    
C20   C22   A    
C46   C54   A    
O13   C69   A    
C58   C60   A    
C31   C70   S    
C27   H7    S    
C38   C46   A    
C35   C67   A    
C37   C45   A    
C34   C42   A    
C5    C21   A    
C45   C53   A    
C41   C43   A    
C6    C22   A    
C42   H30   S    
C41   H29   S    
C47   C55   A    
O12   V3    S    
C60   C64   A    
C73   H35   S    
C37   C39   A    
C17   C31   A    
C13   C15   A    
C33   C72   S    
O13   V3    S    
C7    C29   A    
C16   C18   A    
C57   H23   S    
C70   O17   A    
C8    C30   A    
C22   C24   A    
O2    C4    A    
O6    V2    S    
O12   C72   A    
O17   V3    S    
C54   H18   S    
C24   C26   A    
C38   H26   S    
C37   H25   S    
O4    V2    S    
C49   C51   A    
C74   H40   S    
C43   C47   A    
C11   H13   S    
C57   C59   A    
C32   C69   S    
C36   C68   A    
C44   C46   A    
C65   H21   S    
C51   C53   A    
C10   H10   S    
C3    C8    S    
C15   C19   A    
C63   H33   S    
C1    C36   S    
C6    C30   A    
C14   C16   A    
C2    C35   S    
O16   C72   A    
O19   V3    S    
O15   C71   A    
O14   V4    S    
C63   C65   A    
C33   C39   A    
O6    C4    A    
C51   O21   S    
C64   C66   A    
C50   C52   A    
O18   V4    S    
O1    V2    S    
C5    H5    S    
O2    V1    S    
C47   C49   A    
H2    C30   S    
C73   H36   S    
H3    C23   S    
C52   C54   A    
C55   C57   A    
C60   C62   A    
C59   C61   A    
C55   H31   S    
C18   C26   A    
O4    C2    A    
C19   C27   A    
O21   C73   S    
C7    C27   A    
C17   C25   A    
C43   C45   A    
C33   C41   A    
C48   C50   A    
C16   C20   A    
C5    C29   A    
O15   V3    S    
O22   C74   S    
O3    C1    A    
O20   V4    S    
C34   C71   S    
C9    H9    S    
C62   C68   A    
C25   H15   S    
C74   H38   S    
C35   C65   A    
O11   C71   A    
C34   C40   A    
C4    C7    S    
H1    C29   S    
C10   C12   A    
O7    V1    S    
O19   V4    S    
C36   C66   A    
C1    O8    A    
C19   C21   A    
O8    V2    S    
C28   H8    S    
C12   C14   A    
C39   H27   S    
H4    C24   S    
C53   H17   S    
C26   H16   S    
C73   H37   S    
C12   H14   S    
O5    V1    S    
C15   C17   A    
C14   H12   S    
C67   H19   S    
O14   C70   A    
C20   C28   A    
C52   O22   S    
C8    C28   A    
C66   H22   S    
C11   C13   A    
O9    V2    S    
O10   V1    S    
C56   C58   A    
O3    V1    S    
C42   C44   A    
C40   H28   S    
C13   H11   S    
C64   H34   S    
O16   V4    S    
C9    C31   A    
O11   V4    S    
