data_mof_unit_21536.cif
_audit_creation_date              2013-03-05T16:36:12-0500
_audit_creation_method            fapswitch 2.2
_symmetry_space_group_name_H-M    P1
_symmetry_Int_Tables_number       1
_space_group_crystal_system       triclinic
_cell_length_a                    27.802535
_cell_length_b                    9.155021
_cell_length_c                    7.779595
_cell_angle_alpha                 90.10158
_cell_angle_beta                  89.998991
_cell_angle_gamma                 90.001033
_cell_volume                      1980.15892161

loop_
_atom_site_label
_atom_site_type_symbol
_atom_site_description
_atom_site_fract_x
_atom_site_fract_y
_atom_site_fract_z
_atom_type_partial_charge
O1    O     O_R   0.500000 0.288390 0.642760 -0.575488
O2    O     O_R   0.500000 0.711610 0.357240 -0.575488
O3    O     O_R   0.500000 0.711610 0.642760 -0.577503
O4    O     O_R   0.500000 0.288390 0.357240 -0.577503
C1    C     C_R   0.500000 0.219901 0.499907 0.846369
C2    C     C_R   0.500000 0.780099 0.500093 0.846370
O5    O     O_R   0.430260 0.500000 0.642770 -0.586191
O6    O     O_R   0.569740 0.500000 0.357230 -0.585776
O7    O     O_R   0.569740 0.500000 0.642770 -0.585776
O8    O     O_R   0.430260 0.500000 0.357230 -0.586187
C3    C     C_R   0.407166 0.500000 0.500002 0.844517
C4    C     C_R   0.592823 0.499999 0.499999 0.844119
Cu1   Cu    Cu3+1 0.500000 0.500000 0.669080 1.010029
Cu2   Cu    Cu3+1 0.500000 0.500000 0.330920 1.010030
C5    C     C_R   0.177164 0.371149 0.477107 0.654954
C6    C     C_R   0.822251 0.626965 0.466072 0.652878
C7    C     C_R   0.177163 0.628844 0.523007 0.654966
C8    C     C_R   0.822249 0.372964 0.533934 0.652901
O9    O     O_2   0.201902 0.245310 0.458009 -0.493082
O10   O     O_2   0.797320 0.750153 0.432549 -0.502180
O11   O     O_2   0.201900 0.754688 0.542096 -0.493073
O12   O     O_2   0.797317 0.249773 0.567441 -0.502169
N1    N     N_R   0.201359 0.499999 0.500048 -0.436586
N2    N     N_R   0.798220 0.499963 0.499992 -0.431077
C9    C     C_R   0.278279 0.533202 0.651978 0.400841
C10   C     C_R   0.721685 0.462052 0.349556 0.395620
C11   C     C_R   0.278275 0.466796 0.348076 0.400843
C12   C     C_R   0.721685 0.537894 0.650427 0.395668
C13   C     C_R   0.328799 0.532096 0.651138 -0.322881
C14   C     C_R   0.671166 0.463323 0.350122 -0.320210
C15   C     C_R   0.328795 0.467902 0.348893 -0.322885
C16   C     C_R   0.671166 0.536651 0.649865 -0.320194
C17   C     C_R   0.253107 0.500003 0.500033 0.284112
C18   C     C_R   0.746660 0.499964 0.499991 0.300090
C19   C     C_R   0.101220 0.499988 0.500074 -0.054220
C20   C     C_R   0.898199 0.499971 0.500039 -0.052290
C21   C     C_R   0.126675 0.369186 0.474124 -0.057349
C22   C     C_R   0.872745 0.629423 0.465907 -0.055515
C23   C     C_R   0.126674 0.630795 0.526016 -0.057361
C24   C     C_R   0.872743 0.370514 0.534146 -0.055527
C25   C     C_R   0.101326 0.240687 0.439334 -0.274589
C26   C     C_R   0.898107 0.756747 0.426290 -0.273317
C27   C     C_R   0.101324 0.759289 0.560818 -0.274579
C28   C     C_R   0.898102 0.243193 0.573787 -0.273306
C29   C     C_R   0.354203 0.500000 0.500009 -0.104708
C30   C     C_R   0.645763 0.499991 0.499996 -0.104356
C31   C     C_R   0.974427 0.366656 0.517489 0.047300
C32   C     C_R   0.024976 0.633691 0.512291 0.048773
C33   C     C_R   0.974428 0.633300 0.482655 0.047306
C34   C     C_R   0.024977 0.366270 0.487870 0.048782
C35   C     C_R   0.949088 0.499976 0.500063 -0.090683
C36   C     C_R   0.050318 0.499983 0.500081 -0.089627
C37   C     C_R   0.948619 0.241246 0.571664 0.462142
C38   C     C_R   0.050805 0.760472 0.561750 0.460037
C39   C     C_R   0.948623 0.758705 0.428458 0.462117
C40   C     C_R   0.050807 0.239493 0.438411 0.460000
C41   C     C_1   0.500000 0.065241 0.499873 -0.161235
C42   C     C_1   0.500000 0.934759 0.500127 -0.161235
N3    N     N_1   0.500000 0.500000 0.076820 -0.049595
N4    N     N_1   0.500000 0.500000 0.923180 -0.049595
H1    H     H_    0.348196 0.442752 0.231747 0.166601
H2    H     H_    0.651767 0.565690 0.765806 0.166896
H3    H     H_    0.348203 0.557244 0.768275 0.166607
H4    H     H_    0.651767 0.434294 0.234182 0.166904
O13   O     O_3   0.252607 0.434418 0.200968 -0.679867
H5    H     H_    0.275406 0.405225 0.109159 0.334899
O14   O     O_3   0.747558 0.575591 0.795353 -0.685284
H6    H     H_    0.724800 0.602415 0.888391 0.336678
O15   O     O_3   0.252615 0.565566 0.799103 -0.679857
H7    H     H_    0.275419 0.594686 0.890929 0.334898
O16   O     O_3   0.747558 0.424336 0.204626 -0.685293
H8    H     H_    0.724802 0.397591 0.111590 0.336729
H9    H     H_    0.120680 0.141615 0.407078 0.186658
H10   H     H_    0.878762 0.854472 0.389105 0.188580
H11   H     H_    0.120678 0.858363 0.593076 0.186653
H12   H     H_    0.878756 0.145464 0.610953 0.188579
O17   O     O_3   0.973094 0.124237 0.640463 -0.658193
H13   H     H_    0.949777 0.049052 0.678890 0.350296
O18   O     O_3   0.026418 0.878226 0.629564 -0.656343
H14   H     H_    0.049837 0.953000 0.668622 0.350366
O19   O     O_3   0.973101 0.875718 0.359678 -0.658206
H15   H     H_    0.949786 0.950877 0.321175 0.350279
O20   O     O_3   0.026421 0.121733 0.370600 -0.656355
H16   H     H_    0.049841 0.046989 0.331475 0.350347

loop_
_geom_bond_atom_site_label_1
_geom_bond_atom_site_label_2
_geom_bond_distance
_ccdc_geom_bond_type
O5    Cu1   1.949726 S    
C13   H3    1.083397 S    
C14   H4    1.083611 S    
C15   H1    1.083395 S    
C9    O15   1.380471 S    
C37   O17   1.378077 S    
O3    C2    1.275723 A    
O19   H15   0.992026 S    
Cu1   N4    1.976794 S    
O17   H13   0.992025 S    
C11   C17   1.406505 A    
C32   C38   1.417502 A    
Cu2   N3    1.976794 S    
C7    N1    1.369354 A    
O1    C1    1.275052 A    
C19   C21   1.405270 A    
C22   C26   1.397207 A    
C32   C36   1.415445 A    
C7    C23   1.404025 A    
C28   H12   1.083667 S    
C2    C42   1.415920 S    
C5    C21   1.404020 A    
O7    Cu1   1.949716 S    
C5    O9    1.349735 S    
C28   C37   1.404691 A    
C10   C18   1.403868 A    
N1    C17   1.438709 S    
C34   C36   1.415449 A    
C39   O19   1.378073 S    
C34   C40   1.417501 A    
O3    Cu1   1.948446 S    
O6    C4    1.282775 A    
C31   C37   1.418573 A    
C5    N1    1.369350 A    
C12   C18   1.403899 A    
N3    N4    1.195258 T    
C6    N2    1.367102 A    
Cu1   Cu2   2.630749 S    
C27   H11   1.083690 S    
C10   O16   1.380768 S    
O2    C2    1.275052 A    
O5    C3    1.282923 A    
C31   C34   1.424179 A    
C9    C13   1.404639 A    
C26   H10   1.083660 S    
C11   C15   1.404643 A    
O14   H6    0.991912 S    
C12   C16   1.404609 A    
C12   O14   1.380717 S    
C4    C30   1.471877 S    
O8    Cu2   1.949719 S    
C23   C27   1.397411 A    
C33   C35   1.415994 A    
C33   C39   1.418572 A    
C7    O11   1.349729 S    
C13   C29   1.402235 A    
C19   C23   1.405273 A    
C25   C40   1.404623 A    
C11   O13   1.380475 S    
C26   C39   1.404682 A    
C27   C38   1.404619 A    
O20   H16   0.992039 S    
C20   C24   1.406079 A    
C6    O10   1.349612 S    
C20   C35   1.414832 A    
C32   C33   1.424171 A    
C10   C14   1.404617 A    
C8    N2    1.367105 A    
C3    C29   1.472497 S    
O1    Cu1   1.947725 S    
C40   O20   1.377755 S    
C38   O18   1.377749 S    
O6    Cu2   1.949723 S    
C8    O12   1.349609 S    
C16   C30   1.403369 A    
C14   C30   1.403399 A    
O4    C1    1.275723 A    
C31   C35   1.415989 A    
C1    C41   1.415920 S    
C20   C22   1.406074 A    
C16   H2    1.083628 S    
O16   H8    0.991711 S    
O4    Cu2   1.948447 S    
C41   C42   1.194564 T    
C21   C25   1.397410 A    
O15   H7    0.991297 S    
O2    Cu2   1.947724 S    
O7    C4    1.282774 A    
N2    C18   1.433510 S    
O8    C3    1.282929 A    
C25   H9    1.083691 S    
O18   H14   0.992039 S    
C24   C28   1.397211 A    
C8    C24   1.404031 A    
O13   H5    0.991294 S    
C15   C29   1.402234 A    
C9    C17   1.406494 A    
C19   C36   1.415202 A    
C6    C22   1.404033 A    
