data_mof_unit_30929.cif
_audit_creation_date              2012-12-10T16:55:00-0500
_audit_creation_method            fapswitch 2.2
_symmetry_space_group_name_H-M    P1
_symmetry_Int_Tables_number       1
_space_group_crystal_system       triclinic
_cell_length_a                    7.763976
_cell_length_b                    8.604343
_cell_length_c                    15.721283
_cell_angle_alpha                 90.86119
_cell_angle_beta                  85.888316
_cell_angle_gamma                 93.563799
_cell_volume                      1045.45537801

loop_
_atom_site_label
_atom_site_type_symbol
_atom_type_description
_atom_site_fract_x
_atom_site_fract_y
_atom_site_fract_z
_atom_type_partial_charge
C1    C     C_R   0.546054 0.794290 0.502128 0.909501
C2    C     C_2   0.434692 0.042053 0.507826 -0.422747
C3    C     C_R   0.502067 0.499981 0.661610 0.896211
C4    C     C_R   0.455236 0.205639 0.505684 0.955349
C5    C     C_R   0.497946 0.500178 0.338398 0.912488
C6    C     C_3   0.364896 0.614535 0.953847 -0.429136
C7    C     C_3   0.681850 0.562119 0.946385 -0.401219
C8    C     C_3   0.678502 0.561698 0.044611 -0.394126
C9    C     C_1   0.493886 0.502686 0.249697 -0.167142
C10   C     C_3   0.502580 0.503968 0.917229 0.339539
C11   C     C_1   0.383521 0.777150 0.085717 0.155427
C12   C     C_3   0.358384 0.616078 0.052706 -0.121170
C13   C     C_1   0.739159 0.013016 0.544100 0.237332
C14   C     C_3   0.495153 0.507254 0.082757 0.300963
C15   C     C_3   0.451342 0.339793 0.049751 -0.414328
C16   C     C_3   0.455971 0.337890 0.951518 -0.398738
C17   C     C_1   0.493099 0.505015 0.174416 -0.109459
C18   C     C_1   0.506442 0.501803 0.825685 -0.112918
C19   C     C_1   0.506370 0.500560 0.750338 -0.174217
C20   C     C_2   0.571541 0.955766 0.515980 -0.200377
H1    H     H_    0.235281 0.574430 0.932935 0.157101
H2    H     H_    0.716645 0.680402 0.068459 0.179165
H3    H     H_    0.775636 0.482361 0.064789 0.168821
H4    H     H_    0.327528 0.293905 0.930792 0.171148
H5    H     H_    0.553101 0.256540 0.925396 0.175572
H6    H     H_    0.320650 0.296674 0.076429 0.175725
H7    H     H_    0.227226 0.570925 0.077674 0.122009
H8    H     H_    0.545872 0.258840 0.070939 0.190365
H9    H     H_    0.307593 0.991572 0.494079 0.184374
H10   H     H_    0.013562 0.381827 0.436793 0.197533
H11   H     H_    0.986412 0.618127 0.563230 0.194376
H12   H     H_    0.395222 0.733447 0.927447 0.172120
H13   H     H_    0.783269 0.485859 0.919278 0.170014
H14   H     H_    0.716660 0.682164 0.922820 0.171480
N1    N     N_2   0.950340 0.457950 0.477370 -0.165801
N2    N     N_2   0.049660 0.542050 0.522630 -0.168467
N3    N     N_1   0.403213 0.903208 0.111523 -0.229113
N4    N     N_1   0.872345 0.057897 0.566451 -0.208539
O1    O     O_R   0.389240 0.738570 0.505550 -0.617390
O2    O     O_R   0.678400 0.711630 0.491050 -0.627489
O3    O     O_R   0.355360 0.513470 0.630110 -0.613185
O4    O     O_R   0.644510 0.486530 0.615610 -0.623592
O5    O     O_R   0.321600 0.288370 0.508950 -0.621000
O6    O     O_R   0.610760 0.261430 0.494450 -0.602591
O7    O     O_R   0.355490 0.513470 0.384390 -0.620549
O8    O     O_R   0.644640 0.486530 0.369890 -0.612061
Zn1   Zn    Zn3+2 0.306930 0.517990 0.509680 0.957116
Zn2   Zn    Zn3+2 0.693070 0.482010 0.490320 0.961623

loop_
_geom_bond_atom_site_label_1
_geom_bond_atom_site_label_2
_ccdc_geom_bond_type
C6    C10   S    
C7    C10   S    
C2    C4    S    
C11   C12   S    
C3    O4    A    
C5    C9    S    
C4    O5    A    
C5    O8    A    
C6    H12   S    
N1    N2    D    
C13   C20   S    
O3    Zn1   S    
C7    C8    S    
C16   H4    S    
C10   C16   S    
C3    C19   S    
C7    H13   S    
C14   C17   S    
C15   H8    S    
O4    Zn2   S    
C5    O7    A    
H10   N1    S    
C10   C18   S    
C2    H9    S    
N1    Zn2   S    
C9    C17   T    
C13   N4    T    
O7    Zn1   S    
C6    C12   S    
C7    H14   S    
O8    Zn2   S    
C1    O1    A    
C12   H7    S    
C2    C20   D    
C15   C16   S    
C8    H3    S    
N2    Zn1   S    
O1    Zn1   S    
C18   C19   T    
C16   H5    S    
C11   N3    T    
O2    Zn2   S    
C14   C15   S    
C3    O3    A    
C15   H6    S    
C8    C14   S    
C4    O6    A    
C1    O2    A    
H11   N2    S    
C6    H1    S    
O5    Zn1   S    
C8    H2    S    
O6    Zn2   S    
C12   C14   S    
C1    C20   S    
