data_mof_unit_34563.cif
_audit_creation_date              2012-12-10T20:30:11-0500
_audit_creation_method            fapswitch 2.2
_symmetry_space_group_name_H-M    P1
_symmetry_Int_Tables_number       1
_space_group_crystal_system       triclinic
_cell_length_a                    9.895591
_cell_length_b                    10.696522
_cell_length_c                    13.19735
_cell_angle_alpha                 91.421434
_cell_angle_beta                  70.521078
_cell_angle_gamma                 88.053503
_cell_volume                      1315.23669461

loop_
_atom_site_label
_atom_site_type_symbol
_atom_type_description
_atom_site_fract_x
_atom_site_fract_y
_atom_site_fract_z
_atom_type_partial_charge
C1    C     C_R   0.501700 0.740383 0.492501 0.904763
C2    C     C_R   0.429291 0.497912 0.985937 0.076412
C3    C     C_R   0.449127 0.538945 0.881932 0.078545
C4    C     C_R   0.535106 0.524107 0.033249 0.097108
C5    C     C_R   0.645643 0.606193 0.983497 0.154531
C6    C     C_R   0.648912 0.661416 0.888980 -0.165159
C7    C     C_R   0.551288 0.628926 0.839128 -0.147625
C8    C     C_R   0.533966 0.471776 0.129016 -0.234996
C9    C     C_R   0.736931 0.590809 0.131407 -0.172898
C10   C     C_R   0.366388 0.490131 0.822839 -0.179983
C11   C     C_R   0.404877 0.941325 0.445129 0.098696
C12   C     C_R   0.419723 0.498651 0.704443 0.894418
C13   C     C_R   0.514149 0.870864 0.465269 -0.098237
C14   C     C_R   0.644078 0.929254 0.453019 -0.157888
C15   C     C_R   0.646469 0.059131 0.455663 -0.182763
C16   C     C_R   0.520334 0.128855 0.465227 -0.102582
C17   C     C_R   0.408895 0.069263 0.444841 0.105382
C18   C     C_3   0.250913 0.089733 0.495102 -0.400847
C19   C     C_3   0.245510 0.949359 0.496316 -0.465716
C20   C     C_R   0.895130 0.580049 0.568473 0.187849
C21   C     C_R   0.959537 0.417391 0.436472 -0.101047
C22   C     C_R   0.103550 0.418310 0.435601 -0.112965
C23   C     C_R   0.505238 0.259918 0.492686 0.905248
C24   C     C_R   0.036595 0.573586 0.572726 0.185156
C25   C     C_3   0.046547 0.708976 0.580447 0.019402
C26   C     C_3   0.906526 0.719836 0.557938 0.001505
C27   C     C_R   0.579289 0.498628 0.296494 0.844275
C28   C     C_R   0.748156 0.636119 0.031306 -0.199116
C29   C     C_R   0.625565 0.512908 0.181690 -0.030989
C30   C     C_R   0.242566 0.422643 0.876269 -0.225054
C31   C     C_R   0.206623 0.402083 0.987456 -0.040934
C32   C     C_R   0.302773 0.436276 0.039735 -0.225117
H1    H     H_    0.808281 0.623317 0.172371 0.167477
H2    H     H_    0.741726 0.103462 0.459131 0.180213
H3    H     H_    0.217659 0.134547 0.577109 0.269159
H4    H     H_    0.201067 0.132219 0.439328 0.189094
H5    H     H_    0.210729 0.915835 0.579292 0.266078
H6    H     H_    0.190290 0.914378 0.441140 0.194520
H7    H     H_    0.931213 0.351809 0.383945 0.177685
H8    H     H_    0.183912 0.354431 0.381466 0.144953
H9    H     H_    0.138451 0.737024 0.513150 0.126980
H10   H     H_    0.727451 0.729650 0.854282 0.229481
H11   H     H_    0.924237 0.745761 0.473472 0.095159
H12   H     H_    0.832187 0.699432 0.993889 0.172634
H13   H     H_    0.457242 0.403860 0.168089 0.138590
H14   H     H_    0.274353 0.416665 0.123866 0.161751
H15   H     H_    0.553332 0.676356 0.767691 0.206263
H16   H     H_    0.739852 0.876410 0.450808 0.189225
N1    N     N_R   0.856940 0.500860 0.500710 -0.128126
N2    N     N_R   0.142580 0.500820 0.500710 -0.128227
O1    O     O_R   0.385310 0.683210 0.499990 -0.618089
O2    O     O_R   0.614650 0.683240 0.500000 -0.608228
O3    O     O_R   0.328390 0.499940 0.653610 -0.576206
O4    O     O_R   0.557730 0.499980 0.653620 -0.590683
O5    O     O_R   0.385350 0.316760 0.500000 -0.608670
O6    O     O_R   0.614690 0.316790 0.500010 -0.617824
O7    O     O_R   0.442270 0.500020 0.346380 -0.629554
O8    O     O_R   0.671610 0.500060 0.346390 -0.608585
Zn1   Zn    Zn3+2 0.346870 0.499980 0.499990 0.986342
Zn2   Zn    Zn3+2 0.653130 0.500020 0.500010 0.989437
Br1   Br    Br    0.045458 0.753344 0.725182 -0.485837
Br2   Br    Br    0.760115 0.830446 0.657492 -0.504105
C33   C     C_2   0.151360 0.373367 0.816505 1.085351
O9    O     O_2   0.193396 0.281157 0.756333 -0.570463
O10   O     O_R   0.017726 0.430624 0.828251 -0.732950
H17   H     H_    0.995221 0.507074 0.878843 0.312354
C34   C     C_2   0.072689 0.341104 0.051295 0.887062
O11   O     O_2   0.020894 0.363712 0.148254 -0.662434
O12   O     O_R   0.006462 0.256801 0.002263 -0.761730
H18   H     H_    0.916481 0.222929 0.054867 0.352533

loop_
_geom_bond_atom_site_label_1
_geom_bond_atom_site_label_2
_ccdc_geom_bond_type
C2    C4    A    
C34   O11   D    
C33   O10   S    
C18   H4    S    
C23   O5    A    
C6    C7    A    
C19   H5    S    
C19   H6    S    
O5    Zn1   S    
C27   C29   S    
C5    C28   A    
C11   C13   A    
C18   H3    S    
C10   C30   A    
C15   H2    S    
C31   C32   A    
C21   H7    S    
C9    C29   A    
C30   C31   A    
C4    C8    A    
C22   H8    S    
C31   C34   S    
C21   N1    A    
C17   C18   S    
O3    Zn1   S    
C23   O6    A    
C20   C26   S    
C3    C10   A    
O4    Zn2   S    
C21   C22   A    
C12   O3    A    
C9    H1    S    
C1    O1    A    
C11   C19   S    
C5    C6    A    
N1    Zn2   S    
C10   C12   S    
C20   N1    A    
N2    Zn1   S    
O6    Zn2   S    
C26   H11   S    
C2    C3    A    
C16   C23   S    
C3    C7    A    
C24   N2    A    
O12   H18   S    
C1    O2    A    
C12   O4    A    
O7    Zn1   S    
C1    C13   S    
C8    H13   S    
C8    C29   A    
O8    Zn2   S    
C15   C16   A    
C16   C17   A    
C20   C24   A    
C22   N2    A    
O1    Zn1   S    
C24   C25   S    
C2    C32   A    
O10   H17   S    
C27   O7    A    
C25   H9    S    
C14   H16   S    
C26   Br2   S    
C14   C15   A    
C18   C19   S    
C25   Br1   S    
O2    Zn2   S    
C13   C14   A    
C25   C26   S    
C30   C33   S    
C32   H14   S    
C28   H12   S    
C11   C17   A    
C33   O9    D    
C9    C28   A    
C7    H15   S    
C4    C5    A    
C34   O12   S    
C27   O8    A    
C6    H10   S    
