data_mof_unit_11386.cif
_audit_creation_date              2012-12-11T14:38:07-0500
_audit_creation_method            fapswitch 2.2
_symmetry_space_group_name_H-M    P1
_symmetry_Int_Tables_number       1
_space_group_crystal_system       triclinic
_cell_length_a                    19.529986
_cell_length_b                    11.085908
_cell_length_c                    19.679299
_cell_angle_alpha                 90.017381
_cell_angle_beta                  96.591364
_cell_angle_gamma                 90.028448
_cell_volume                      4232.55453353

loop_
_atom_site_label
_atom_site_type_symbol
_atom_type_description
_atom_site_fract_x
_atom_site_fract_y
_atom_site_fract_z
_atom_type_partial_charge
C1    C     C_R   0.723841 0.956431 0.361371 0.535630
C2    C     C_R   0.290899 0.992830 0.633367 0.545222
C3    C     C_R   0.223841 0.456432 0.361371 0.535630
C4    C     C_R   0.790898 0.492830 0.633367 0.545222
C5    C     C_3   0.686638 0.459364 0.456406 -0.237075
C6    C     C_3   0.319537 0.447405 0.542623 -0.233822
C7    C     C_3   0.186638 0.959364 0.456406 -0.237075
C8    C     C_3   0.819537 0.947405 0.542623 -0.233822
C9    C     C_3   0.830816 0.514548 0.519060 -0.241399
C10   C     C_3   0.177028 0.496076 0.469932 -0.212342
C11   C     C_3   0.330816 0.014548 0.519060 -0.241399
C12   C     C_3   0.677028 0.996076 0.469932 -0.212342
C13   C     C_3   0.783139 0.318833 0.553469 -0.234717
C14   C     C_3   0.232225 0.298108 0.448343 -0.261012
C15   C     C_3   0.283139 0.818833 0.553469 -0.234717
C16   C     C_3   0.732225 0.798108 0.448343 -0.261012
C17   C     C_3   0.775709 0.456293 0.561381 0.055668
C18   C     C_3   0.235940 0.432718 0.434508 0.064606
C19   C     C_3   0.275709 0.956293 0.561381 0.055668
C20   C     C_3   0.735940 0.932718 0.434508 0.064606
C21   C     C_3   0.751769 0.402050 0.432473 0.057569
C22   C     C_3   0.251352 0.399579 0.566091 0.049205
C23   C     C_3   0.251769 0.902050 0.432473 0.057569
C24   C     C_3   0.751352 0.899579 0.566091 0.049205
C25   C     C_3   0.812210 0.491376 0.442058 -0.238349
C26   C     C_3   0.194202 0.493972 0.548543 -0.253480
C27   C     C_3   0.312210 0.991376 0.442058 -0.238349
C28   C     C_3   0.694202 0.993972 0.548543 -0.253480
C29   C     C_3   0.773682 0.289871 0.477540 -0.233125
C30   C     C_3   0.228479 0.283708 0.524651 -0.222784
C31   C     C_3   0.273682 0.789871 0.477540 -0.233125
C32   C     C_3   0.728479 0.783708 0.524651 -0.222784
C33   C     C_3   0.446960 0.281274 0.968448 -0.299357
C34   C     C_3   0.470007 0.287616 0.044646 -0.297838
C35   C     C_3   0.946960 0.781274 0.968448 -0.299357
C36   C     C_3   0.970007 0.787616 0.044646 -0.297838
C37   C     C_3   0.452558 0.055881 0.965395 -0.183802
C38   C     C_3   0.575982 0.161210 0.033121 -0.204870
C39   C     C_3   0.952558 0.555881 0.965395 -0.183802
C40   C     C_3   0.075982 0.661210 0.033121 -0.204870
C41   C     C_3   0.561137 0.183607 0.955674 0.086819
C42   C     C_3   0.458099 0.062195 0.044299 0.120224
C43   C     C_3   0.061136 0.683607 0.955674 0.086819
C44   C     C_3   0.958099 0.562195 0.044299 0.120224
C45   C     C_R   0.536137 0.180298 0.338711 0.532733
C46   C     C_R   0.464133 0.180294 0.661475 0.558342
C47   C     C_R   0.036137 0.680298 0.338711 0.532733
C48   C     C_R   0.964133 0.680294 0.661475 0.558342
C49   C     C_3   0.482230 0.172966 0.935375 -0.015126
C50   C     C_3   0.508159 0.169240 0.068406 -0.000095
C51   C     C_3   0.982230 0.672966 0.935375 -0.015126
C52   C     C_3   0.008159 0.669240 0.068406 -0.000095
C53   C     C_1   0.762137 0.427157 0.904495 0.035851
C54   C     C_1   0.242076 0.413786 0.099101 0.009896
C55   C     C_1   0.262137 0.927157 0.904495 0.035851
C56   C     C_1   0.742076 0.913786 0.099101 0.009896
C57   C     C_1   0.748010 0.406136 0.034488 -0.002785
C58   C     C_1   0.262888 0.365276 0.972874 0.002154
C59   C     C_1   0.248010 0.906136 0.034488 -0.002785
C60   C     C_1   0.762888 0.865276 0.972874 0.002154
C61   C     C_1   0.754034 0.415734 0.963931 0.010970
C62   C     C_1   0.253533 0.389148 0.041768 -0.020766
C63   C     C_1   0.254034 0.915734 0.963931 0.010970
C64   C     C_1   0.753533 0.889148 0.041768 -0.020765
C65   C     C_1   0.743363 0.391896 0.094482 0.020088
C66   C     C_1   0.269270 0.344463 0.913714 0.042474
C67   C     C_1   0.243363 0.891897 0.094482 0.020088
C68   C     C_1   0.769270 0.844463 0.913714 0.042474
C69   C     C_R   0.739359 0.361319 0.361426 0.540839
C70   C     C_R   0.260216 0.364079 0.638950 0.552424
C71   C     C_R   0.239359 0.861319 0.361426 0.540838
C72   C     C_R   0.760216 0.864080 0.638950 0.552424
C73   C     C_R   0.722635 0.952666 0.163809 0.539127
C74   C     C_R   0.277791 0.954087 0.836767 0.553518
C75   C     C_R   0.222635 0.452666 0.163809 0.539127
C76   C     C_R   0.777791 0.454087 0.836767 0.553518
C77   C     C_R   0.529680 0.178122 0.142127 0.555264
C78   C     C_R   0.463764 0.179598 0.860930 0.606540
C79   C     C_R   0.029681 0.678122 0.142127 0.555264
C80   C     C_R   0.963764 0.679598 0.860930 0.606540
C81   C     C_R   0.735984 0.358168 0.163540 0.551711
C82   C     C_R   0.276670 0.313192 0.844072 0.551103
C83   C     C_R   0.235984 0.858168 0.163540 0.551711
C84   C     C_R   0.776670 0.813192 0.844072 0.551103
C85   C     C_1   0.485943 0.172845 0.594538 -0.024639
C86   C     C_1   0.515091 0.172834 0.405968 -0.027393
C87   C     C_1   0.985943 0.672845 0.594538 -0.024639
C88   C     C_1   0.015091 0.672834 0.405968 -0.027393
C89   C     C_1   0.505049 0.169719 0.465214 -0.068006
C90   C     C_1   0.496436 0.169757 0.535415 -0.069652
C91   C     C_1   0.005049 0.669719 0.465214 -0.068006
C92   C     C_1   0.996436 0.669757 0.535415 -0.069652
C93   C     C_3   0.699008 0.483364 0.533039 -0.229507
C94   C     C_3   0.309005 0.474068 0.465747 -0.238114
C95   C     C_3   0.199008 0.983364 0.533039 -0.229507
C96   C     C_3   0.809005 0.974068 0.465747 -0.238114
Cr1   Cr    Cr6+3 0.765780 0.160710 0.267420 1.036087
Cr2   Cr    Cr6+3 0.234220 0.160710 0.732580 1.039521
Cr3   Cr    Cr6+3 0.265780 0.660710 0.267420 1.036087
Cr4   Cr    Cr6+3 0.734220 0.660710 0.732580 1.039521
Cr5   Cr    Cr6+3 0.612200 0.009560 0.248850 1.106189
Cr6   Cr    Cr6+3 0.387800 0.009560 0.751150 1.067447
Cr7   Cr    Cr6+3 0.112200 0.509560 0.248850 1.106189
Cr8   Cr    Cr6+3 0.887800 0.509560 0.751150 1.067447
Cr9   Cr    Cr6+3 0.616030 0.323720 0.248510 1.023815
Cr10  Cr    Cr6+3 0.383970 0.323720 0.751490 1.039263
Cr11  Cr    Cr6+3 0.116030 0.823720 0.248510 1.023815
Cr12  Cr    Cr6+3 0.883970 0.823720 0.751490 1.039263
H1    H     H_    0.680949 0.573334 0.544841 0.124530
H2    H     H_    0.316831 0.569974 0.456818 0.132625
H3    H     H_    0.180950 0.073334 0.544841 0.124530
H4    H     H_    0.816831 0.069974 0.456818 0.132625
H5    H     H_    0.824461 0.258097 0.464298 0.135691
H6    H     H_    0.173753 0.264287 0.531612 0.135221
H7    H     H_    0.324460 0.758097 0.464298 0.135691
H8    H     H_    0.673753 0.764287 0.531612 0.135221
H9    H     H_    0.881398 0.470517 0.534946 0.131827
H10   H     H_    0.128198 0.444750 0.456941 0.140323
H11   H     H_    0.381398 0.970517 0.534946 0.131827
H12   H     H_    0.628198 0.944750 0.456941 0.140323
H13   H     H_    0.858137 0.454117 0.420593 0.136299
H14   H     H_    0.147113 0.470637 0.572709 0.137684
H15   H     H_    0.358137 0.954117 0.420593 0.136299
H16   H     H_    0.647113 0.970637 0.572709 0.137684
H17   H     H_    0.390494 0.268654 0.960459 0.109315
H18   H     H_    0.504654 0.367252 0.054117 0.172154
H19   H     H_    0.890494 0.768654 0.960459 0.109315
H20   H     H_    0.004654 0.867252 0.054117 0.172153
H21   H     H_    0.458939 0.369830 0.945865 0.173266
H22   H     H_    0.424534 0.302493 0.073001 0.132358
H23   H     H_    0.958939 0.869830 0.945865 0.173266
H24   H     H_    0.924534 0.802493 0.073001 0.132358
H25   H     H_    0.397276 0.044603 0.945400 0.103030
H26   H     H_    0.614283 0.229528 0.054809 0.112643
H27   H     H_    0.897275 0.544603 0.945400 0.103030
H28   H     H_    0.114283 0.729528 0.054809 0.112643
H29   H     H_    0.406186 0.085477 0.058700 0.112663
H30   H     H_    0.576487 0.278148 0.945526 0.134375
H31   H     H_    0.906186 0.585477 0.058700 0.112663
H32   H     H_    0.076487 0.778148 0.945526 0.134375
H33   H     H_    0.600498 0.071956 0.043592 0.186390
H34   H     H_    0.479915 0.975861 0.948305 0.236997
H35   H     H_    0.100498 0.571956 0.043592 0.186390
H36   H     H_    0.979915 0.475861 0.948305 0.236997
H37   H     H_    0.664296 0.423304 0.558961 0.134858
H38   H     H_    0.349390 0.426625 0.440279 0.119074
H39   H     H_    0.164296 0.923304 0.558961 0.134858
H40   H     H_    0.849391 0.926625 0.440279 0.119074
H41   H     H_    0.641673 0.397550 0.445873 0.141568
H42   H     H_    0.360957 0.378581 0.552932 0.141295
H43   H     H_    0.141673 0.897550 0.445873 0.141568
H44   H     H_    0.860956 0.878581 0.552932 0.141295
H45   H     H_    0.673800 0.544776 0.428347 0.121011
H46   H     H_    0.336564 0.530779 0.571271 0.125154
H47   H     H_    0.173800 0.044776 0.428347 0.121011
H48   H     H_    0.836563 0.030779 0.571271 0.125154
H49   H     H_    0.342848 0.110359 0.529009 0.090208
H50   H     H_    0.663454 0.086946 0.450170 0.105156
H51   H     H_    0.842848 0.610359 0.529009 0.090208
H52   H     H_    0.163454 0.586946 0.450170 0.105156
H53   H     H_    0.298343 0.074505 0.413243 0.107219
H54   H     H_    0.711711 0.083548 0.567879 0.116079
H55   H     H_    0.798343 0.574505 0.413243 0.107219
H56   H     H_    0.211711 0.583548 0.567879 0.116079
H57   H     H_    0.834734 0.285247 0.575454 0.142430
H58   H     H_    0.186526 0.255017 0.419119 0.131821
H59   H     H_    0.334734 0.785247 0.575454 0.142430
H60   H     H_    0.686526 0.755017 0.419119 0.131821
H61   H     H_    0.744297 0.271558 0.580697 0.126322
H62   H     H_    0.279299 0.255086 0.433676 0.111738
H63   H     H_    0.244297 0.771558 0.580697 0.126322
H64   H     H_    0.779299 0.755086 0.433676 0.111738
H65   H     H_    0.735494 0.218771 0.467787 0.115886
H66   H     H_    0.259785 0.208515 0.545045 0.121215
H67   H     H_    0.235494 0.718771 0.467787 0.115886
H68   H     H_    0.759785 0.708515 0.545045 0.121215
O1    O     O_R   0.783100 0.287550 0.345460 -0.530486
O2    O     O_R   0.216900 0.287550 0.654540 -0.526375
O3    O     O_R   0.283100 0.787550 0.345460 -0.530486
O4    O     O_R   0.716900 0.787550 0.654540 -0.526375
O5    O     O_R   0.554710 0.081900 0.170950 -0.420929
O6    O     O_R   0.445290 0.081900 0.829050 -0.468245
O7    O     O_R   0.054710 0.581900 0.170950 -0.420929
O8    O     O_R   0.945290 0.581900 0.829050 -0.468245
O9    O     O_R   0.545650 0.284910 0.163740 -0.532937
O10   O     O_R   0.454350 0.284910 0.836260 -0.525237
O11   O     O_R   0.045650 0.784910 0.163740 -0.532936
O12   O     O_R   0.954350 0.784910 0.836260 -0.525237
O13   O     O_R   0.677950 0.374280 0.185410 -0.503284
O14   O     O_R   0.322050 0.374280 0.814590 -0.479666
O15   O     O_R   0.177950 0.874280 0.185410 -0.503284
O16   O     O_R   0.822050 0.874280 0.814590 -0.479666
O17   O     O_3   0.664670 0.164660 0.254930 -0.277135
O18   O     O_3   0.335330 0.164660 0.745070 -0.319567
O19   O     O_3   0.164670 0.664660 0.254930 -0.277135
O20   O     O_3   0.835330 0.664660 0.745070 -0.319567
O21   O     O_R   0.760020 0.037400 0.337700 -0.517187
O22   O     O_R   0.239980 0.037400 0.662300 -0.506631
O23   O     O_R   0.260020 0.537400 0.337700 -0.517187
O24   O     O_R   0.739980 0.537400 0.662300 -0.506631
O25   O     O_R   0.666600 0.921990 0.332020 -0.525492
O26   O     O_R   0.333400 0.921990 0.667980 -0.516758
O27   O     O_R   0.166600 0.421990 0.332020 -0.525492
O28   O     O_R   0.833400 0.421990 0.667980 -0.516758
O29   O     O_R   0.557260 0.082670 0.312540 -0.492721
O30   O     O_R   0.442740 0.082670 0.687460 -0.496254
O31   O     O_R   0.057260 0.582670 0.312540 -0.492721
O32   O     O_R   0.942740 0.582670 0.687460 -0.496254
O33   O     O_R   0.548410 0.285740 0.316480 -0.513931
O34   O     O_R   0.451590 0.285740 0.683520 -0.504883
O35   O     O_R   0.048410 0.785740 0.316480 -0.513931
O36   O     O_R   0.951590 0.785740 0.683520 -0.504883
O37   O     O_R   0.680500 0.375040 0.327000 -0.505918
O38   O     O_R   0.319500 0.375040 0.673000 -0.501291
O39   O     O_R   0.180500 0.875040 0.327000 -0.505918
O40   O     O_R   0.819500 0.875040 0.673000 -0.501291
O41   O     O_R   0.780350 0.286720 0.192720 -0.478220
O42   O     O_R   0.219650 0.286720 0.807280 -0.454763
O43   O     O_R   0.280350 0.786720 0.192720 -0.478220
O44   O     O_R   0.719650 0.786720 0.807280 -0.454763
O45   O     O_R   0.757470 0.036630 0.196110 -0.501858
O46   O     O_R   0.242530 0.036630 0.803890 -0.513108
O47   O     O_R   0.257470 0.536630 0.196110 -0.501858
O48   O     O_R   0.742530 0.536630 0.803890 -0.513108
O49   O     O_R   0.663840 0.921160 0.179280 -0.457391
O50   O     O_R   0.336160 0.921160 0.820720 -0.488824
O51   O     O_R   0.163840 0.421160 0.179280 -0.457391
O52   O     O_R   0.836160 0.421160 0.820720 -0.488824
S1    S     S_3+6 0.614473 0.090562 0.907872 0.004306
O53   O     O_2   0.606171 0.128862 0.834143 -0.227966
O54   O     O_2   0.688567 0.108587 0.936175 -0.296573
O55   O     O_3   0.594324 0.943472 0.912079 -0.493964
H69   H     H_    0.612764 0.917691 0.958748 0.356724
S2    S     S_3+6 0.475329 0.913372 0.079550 -0.006582
O56   O     O_2   0.549181 0.878061 0.076798 -0.289278
O57   O     O_2   0.458584 0.909165 0.152201 -0.272334
O58   O     O_3   0.424190 0.814146 0.033150 -0.527326
H70   H     H_    0.433172 0.735670 0.056530 0.373416
S3    S     S_3+6 0.114473 0.590562 0.907872 0.004306
O59   O     O_2   0.106171 0.628862 0.834143 -0.227966
O60   O     O_2   0.188567 0.608587 0.936175 -0.296573
O61   O     O_3   0.094324 0.443472 0.912079 -0.493965
H71   H     H_    0.112764 0.417691 0.958748 0.356724
S4    S     S_3+6 0.975329 0.413371 0.079550 -0.006582
O62   O     O_2   0.049181 0.378061 0.076798 -0.289278
O63   O     O_2   0.958584 0.409165 0.152201 -0.272334
O64   O     O_3   0.924191 0.314146 0.033150 -0.527325
H72   H     H_    0.933172 0.235670 0.056530 0.373416

loop_
_geom_bond_atom_site_label_1
_geom_bond_atom_site_label_2
_ccdc_geom_bond_type
C94   H38   S    
C39   C51   S    
C29   H65   S    
C58   C62   S    
C8    C24   S    
Cr4   O44   S    
C47   O35   A    
C76   O52   A    
C77   O9    A    
C14   C18   S    
Cr8   O8    S    
C35   C36   S    
C8    C96   S    
C2    O26   A    
C14   H62   S    
C11   H11   S    
Cr11  O19   S    
C9    C25   S    
Cr10  O18   S    
C31   H67   S    
C93   H1    S    
C76   O48   A    
C67   C83   S    
C40   H28   S    
C11   C19   S    
C57   C61   S    
C79   O11   A    
C12   C20   S    
C12   C28   S    
C11   H49   S    
Cr7   O7    S    
Cr8   O28   S    
C83   O15   A    
C8    H44   S    
S3    O59   D    
C10   C18   S    
S1    O55   S    
C73   O45   A    
C36   H24   S    
C16   H60   S    
C7    C23   S    
C4    O28   A    
Cr11  O35   S    
C9    H51   S    
Cr7   O51   S    
C6    C22   S    
Cr3   O19   S    
C83   O43   A    
Cr6   O50   S    
C5    H41   S    
S4    O62   D    
Cr2   O18   S    
C3    C18   S    
Cr5   O49   S    
C95   H3    S    
Cr1   O17   S    
C37   C42   S    
Cr1   O45   S    
C51   C80   S    
C21   C25   S    
C84   O44   A    
C69   O1    A    
C43   C51   S    
C12   H12   S    
C55   C74   S    
Cr1   O1    S    
C58   C66   T    
C40   C43   S    
C48   O36   A    
S4    O63   D    
C6    C94   S    
C55   C63   T    
Cr6   O6    S    
C77   O5    A    
C56   C64   T    
C93   H37   S    
C78   O10   A    
Cr8   O32   S    
C23   C27   S    
Cr2   O2    S    
C52   C79   S    
C22   C30   S    
C75   O47   A    
C36   C52   S    
C16   C20   S    
C46   C85   S    
C59   C67   T    
C44   C52   S    
C7    H47   S    
C38   H26   S    
C20   C96   S    
C41   S1    S    
Cr3   O23   S    
O58   H70   S    
C82   O14   A    
C42   H29   S    
C15   H59   S    
Cr12  O20   S    
C36   H20   S    
S2    O57   D    
C14   C30   S    
Cr10  O38   S    
Cr6   O18   S    
C31   H7    S    
C22   C70   S    
Cr12  O36   S    
Cr5   O17   S    
Cr8   O52   S    
Cr4   O20   S    
C44   S4    S    
C80   O12   A    
C96   H40   S    
Cr3   O47   S    
C34   C50   S    
Cr9   O37   S    
C49   C78   S    
Cr2   O22   S    
C28   H54   S    
C68   C84   S    
Cr1   O21   S    
C95   H39   S    
Cr10  O10   S    
C38   C41   S    
C37   H34   S    
C57   C65   T    
C91   C92   S    
Cr7   O19   S    
C27   H15   S    
C70   O2    A    
C39   H27   S    
C54   C62   T    
C46   O34   A    
C21   C29   S    
C94   H2    S    
C45   O33   A    
C13   C29   S    
C21   C69   S    
C78   O6    A    
S2    O58   S    
C70   O38   A    
C15   C19   S    
C24   C32   S    
Cr3   O3    S    
S1    O53   D    
C10   H10   S    
Cr9   O13   S    
C66   C82   S    
C32   H68   S    
C16   H64   S    
C65   C81   S    
C82   O42   A    
C88   C91   T    
C11   C27   S    
C34   H18   S    
C81   O41   A    
C48   O32   A    
C33   H17   S    
C33   C34   S    
Cr8   O20   S    
C48   C87   S    
C69   O37   A    
C43   H32   S    
S3    O60   D    
Cr12  O40   S    
C13   H57   S    
C32   H8    S    
C3    O23   A    
C35   H19   S    
Cr6   O30   S    
C81   O13   A    
C37   C49   S    
C6    H46   S    
Cr5   O29   S    
C42   C50   S    
C7    H43   S    
C4    C17   S    
Cr4   O24   S    
C9    C17   S    
C72   O40   A    
Cr3   O43   S    
C44   H31   S    
Cr2   O42   S    
C35   C51   S    
C15   H63   S    
C38   H33   S    
C37   H25   S    
C53   C76   S    
C17   C93   S    
S2    O56   D    
Cr10  O14   S    
Cr9   O33   S    
C53   C61   T    
Cr4   O4    S    
C50   C77   S    
C10   H52   S    
C19   C95   S    
C24   C72   S    
C30   H6    S    
C33   H21   S    
C46   O30   A    
C29   H5    S    
C43   S3    S    
C1    C20   S    
C45   O29   A    
C56   C73   S    
Cr9   O17   S    
O61   H71   S    
C2    C19   S    
C2    O22   A    
Cr12  O12   S    
C1    O21   A    
C24   C28   S    
Cr7   O31   S    
C86   C89   T    
C5    C93   S    
C85   C90   T    
C28   H16   S    
C15   C31   S    
C39   C44   S    
C38   C50   S    
C47   O31   A    
C16   C32   S    
C41   C49   S    
C7    C95   S    
C1    O25   A    
C74   O46   A    
C59   C63   S    
C6    H42   S    
C5    C21   S    
S4    O64   S    
C13   C17   S    
C60   C64   S    
C60   C68   T    
C12   H50   S    
C47   C88   S    
C72   O4    A    
C75   O51   A    
C45   C86   S    
Cr6   O26   S    
C35   H23   S    
S1    O54   D    
C40   C52   S    
C27   H53   S    
C73   O49   A    
C42   S2    S    
C10   C26   S    
C25   H13   S    
C25   H55   S    
C71   O39   A    
Cr2   O46   S    
C13   H61   S    
O55   H69   S    
C96   H4    S    
C79   O7    A    
C84   O16   A    
S3    O61   S    
Cr1   O41   S    
C80   O8    A    
C8    H48   S    
Cr5   O5    S    
Cr7   O27   S    
C26   H56   S    
Cr9   O9    S    
C71   O3    A    
C54   C75   S    
C5    H45   S    
C4    O24   A    
Cr11  O39   S    
C39   H36   S    
C34   H22   S    
C23   C71   S    
C74   O50   A    
C14   H58   S    
C22   C26   S    
C40   H35   S    
Cr11  O15   S    
C18   C94   S    
Cr4   O48   S    
C3    O27   A    
Cr12  O16   S    
Cr11  O11   S    
Cr5   O25   S    
C26   H14   S    
C41   H30   S    
C89   C90   S    
C87   C92   T    
C33   C49   S    
C30   H66   S    
C9    H9    S    
O64   H72   S    
C23   C31   S    
Cr10  O34   S    
