data_mof_unit_39510.cif
_audit_creation_date              2012-12-10T19:00:00-0500
_audit_creation_method            fapswitch 2.2
_symmetry_space_group_name_H-M    P1
_symmetry_Int_Tables_number       1
_space_group_crystal_system       triclinic
_cell_length_a                    10.81432
_cell_length_b                    10.700237
_cell_length_c                    9.870633
_cell_angle_alpha                 90.010377
_cell_angle_beta                  91.033585
_cell_angle_gamma                 89.98343
_cell_volume                      1142.00215868

loop_
_atom_site_label
_atom_site_type_symbol
_atom_type_description
_atom_site_fract_x
_atom_site_fract_y
_atom_site_fract_z
_atom_type_partial_charge
C1    C     C_R   0.499943 0.260011 0.499945 0.871023
C2    C     C_R   0.467502 0.064046 0.617754 -0.183630
C3    C     C_R   0.500078 0.872472 0.500049 -0.018624
C4    C     C_R   0.499922 0.127528 0.499951 -0.018624
C5    C     C_R   0.515790 0.608491 0.072029 -0.090972
C6    C     C_R   0.484210 0.391509 0.927971 -0.090972
C7    C     C_R   0.516204 0.608418 0.928559 -0.071073
C8    C     C_R   0.483796 0.391582 0.071441 -0.071073
C9    C     C_R   0.259943 0.502099 0.498387 0.876510
C10   C     C_R   0.740057 0.497901 0.501613 0.876509
C11   C     C_R   0.199616 0.654631 0.063927 -0.098151
C12   C     C_R   0.500057 0.739989 0.500054 0.871022
C13   C     C_R   0.800384 0.345369 0.936073 -0.098151
C14   C     C_R   0.151280 0.642057 0.193288 -0.073864
C15   C     C_R   0.848720 0.357943 0.806712 -0.073864
C16   C     C_R   0.110888 0.524964 0.238037 0.077888
C17   C     C_R   0.889112 0.475036 0.761963 0.077888
C18   C     C_R   0.117101 0.421076 0.151879 -0.111752
C19   C     C_R   0.882899 0.578924 0.848121 -0.111752
C20   C     C_R   0.166612 0.433002 0.022037 0.059012
C21   C     C_R   0.833388 0.566998 0.977963 0.059012
C22   C     C_R   0.207923 0.550654 0.978986 -0.234669
C23   C     C_R   0.872677 0.496167 0.504332 -0.086868
C24   C     C_R   0.792077 0.449346 0.021014 -0.234669
C25   C     C_R   0.931385 0.506148 0.380182 -0.240171
C26   C     C_R   0.068615 0.493852 0.619818 -0.240171
C27   C     C_2   0.177611 0.323259 0.931991 0.338922
C28   C     C_2   0.822389 0.676741 0.068009 0.338923
C29   C     C_R   0.127323 0.503833 0.495668 -0.086867
C30   C     C_R   0.942224 0.488642 0.626157 0.005281
C31   C     C_R   0.057776 0.511358 0.373843 0.005281
C32   C     C_R   0.532393 0.063979 0.382187 -0.182113
C33   C     C_R   0.467607 0.936021 0.617813 -0.182113
C34   C     C_R   0.532498 0.935954 0.382246 -0.183630
H1    H     H_    0.248134 0.562281 0.880379 0.150645
H2    H     H_    0.915402 0.668840 0.812960 0.169567
H3    H     H_    0.879129 0.511634 0.286535 0.152113
H4    H     H_    0.120871 0.488366 0.713464 0.152113
H5    H     H_    0.558634 0.112842 0.290932 0.150820
H6    H     H_    0.441366 0.887158 0.709068 0.150820
H7    H     H_    0.558861 0.887059 0.291049 0.151476
H8    H     H_    0.441139 0.112941 0.708951 0.151476
H9    H     H_    0.528673 0.695573 0.125829 0.127732
H10   H     H_    0.471327 0.304427 0.874171 0.127732
H11   H     H_    0.224076 0.331711 0.835962 0.073469
H12   H     H_    0.751866 0.437719 0.119621 0.150645
H13   H     H_    0.775924 0.668289 0.164038 0.073469
H14   H     H_    0.529611 0.695418 0.875258 0.136189
H15   H     H_    0.470389 0.304581 0.124742 0.136189
H16   H     H_    0.231794 0.744856 0.029768 0.143269
H17   H     H_    0.768206 0.255144 0.970232 0.143269
H18   H     H_    0.145576 0.723062 0.258691 0.131260
H19   H     H_    0.854424 0.276938 0.741309 0.131260
H20   H     H_    0.084598 0.331160 0.187040 0.169567
N1    N     N_R   0.499970 0.499970 0.857200 -0.083306
N2    N     N_R   0.500030 0.500030 0.142800 -0.083305
O1    O     O_R   0.499990 0.316750 0.614620 -0.635992
O2    O     O_2   0.864405 0.778211 0.035962 -0.569162
O3    O     O_R   0.500010 0.683250 0.385380 -0.635992
O4    O     O_R   0.499990 0.316780 0.385290 -0.633218
O5    O     O_R   0.500010 0.683220 0.614710 -0.633219
O6    O     O_R   0.316760 0.500000 0.614660 -0.642527
O7    O     O_R   0.683240 0.500000 0.385340 -0.642527
O8    O     O_R   0.316760 0.500020 0.385330 -0.601724
O9    O     O_R   0.683240 0.499980 0.614670 -0.601724
O10   O     O_2   0.135595 0.221788 0.964038 -0.569161
Zn1   Zn    Zn3+2 0.500000 0.499980 0.653120 0.942639
Zn2   Zn    Zn3+2 0.500000 0.500020 0.346880 0.942639

loop_
_geom_bond_atom_site_label_1
_geom_bond_atom_site_label_2
_ccdc_geom_bond_type
C25   C31   A    
C2    C4    A    
C28   H13   S    
C26   C29   A    
C22   H1    S    
C20   C27   S    
C28   O2    D    
O3    Zn2   S    
C9    O8    A    
C5    C7    A    
O5    Zn1   S    
C11   C22   A    
N1    Zn1   S    
C10   O7    A    
C9    C29   S    
C6    N1    A    
C1    C4    S    
C24   H12   S    
C7    H14   S    
C27   H11   S    
C23   C25   A    
C5    H9    S    
C29   C31   A    
C11   H16   S    
C6    H10   S    
C1    O4    A    
C16   C31   S    
C12   O5    A    
C8    N2    A    
C4    C32   A    
C34   H7    S    
C17   C30   S    
O6    Zn1   S    
C2    H8    S    
C7    N1    A    
O8    Zn2   S    
C2    C33   A    
C17   C19   A    
C21   C28   S    
O1    Zn1   S    
C26   C30   A    
C1    O1    A    
C19   H2    S    
C13   C15   A    
C27   O10   D    
C10   C23   S    
C11   C14   A    
C14   C16   A    
C21   C24   A    
C33   H6    S    
C3    C33   A    
C9    O6    A    
C23   C30   A    
C15   H19   S    
C13   H17   S    
O4    Zn2   S    
C18   C20   A    
C16   C18   A    
C32   H5    S    
C15   C17   A    
C18   H20   S    
O7    Zn2   S    
C26   H4    S    
C6    C8    A    
C3    C12   S    
C5    N2    A    
C3    C34   A    
C19   C21   A    
C32   C34   A    
N2    Zn2   S    
C12   O3    A    
C8    H15   S    
C14   H18   S    
C13   C24   A    
C20   C22   A    
O9    Zn1   S    
C10   O9    A    
C25   H3    S    
