data_mof_unit_30044.cif
_audit_creation_date              2012-12-10T17:05:13-0500
_audit_creation_method            fapswitch 2.2
_symmetry_space_group_name_H-M    P1
_symmetry_Int_Tables_number       1
_space_group_crystal_system       triclinic
_cell_length_a                    10.722648
_cell_length_b                    10.929327
_cell_length_c                    9.80801
_cell_angle_alpha                 110.411604
_cell_angle_beta                  98.625282
_cell_angle_gamma                 90.960903
_cell_volume                      1062.09690359

loop_
_atom_site_label
_atom_site_type_symbol
_atom_type_description
_atom_site_fract_x
_atom_site_fract_y
_atom_site_fract_z
_atom_type_partial_charge
C1    C     C_R   0.486672 0.253662 0.441733 0.849168
C2    C     C_3   0.877103 0.489941 0.494367 0.123824
C3    C     C_3   0.938802 0.632234 0.568833 -0.417386
C4    C     C_3   0.905056 0.432744 0.332218 -0.045984
C5    C     C_2   0.461993 0.114636 0.412489 -0.376897
C6    C     C_2   0.455070 0.073445 0.524759 -0.188422
C7    C     C_2   0.498635 0.885515 0.588916 -0.389320
C8    C     C_2   0.425212 0.935690 0.500550 0.123200
C9    C     C_2   0.511368 0.510003 0.081070 -0.083916
C10   C     C_2   0.489054 0.489504 0.918826 -0.084213
C11   C     C_R   0.259697 0.497326 0.499830 0.751007
C12   C     C_R   0.502094 0.745767 0.558407 0.851757
C13   C     C_R   0.739659 0.494666 0.497806 0.749377
C14   C     C_3   0.080993 0.400878 0.574869 -0.392937
C15   C     C_3   0.938376 0.406404 0.582734 -0.375757
C16   C     C_3   0.083594 0.633308 0.579379 -0.397153
C17   C     C_3   0.049398 0.444889 0.336292 -0.377358
C18   C     C_3   0.121453 0.494080 0.498147 0.146370
Cu1   Cu    Cu3+1 0.522160 0.521810 0.644910 0.921938
Cu2   Cu    Cu3+1 0.477840 0.478190 0.355090 0.913686
H1    H     H_    0.135383 0.429001 0.688604 0.169218
H2    H     H_    0.861263 0.494940 0.271687 0.145664
H3    H     H_    0.116932 0.703029 0.530332 0.155564
H4    H     H_    0.900998 0.693134 0.503925 0.153862
H5    H     H_    0.477678 0.140811 0.638389 0.168112
H6    H     H_    0.566426 0.949422 0.681555 0.132001
H7    H     H_    0.443546 0.046953 0.299030 0.155631
H8    H     H_    0.414585 0.417846 0.846210 0.155011
H9    H     H_    0.585898 0.581574 0.153669 0.159051
H10   H     H_    0.626306 0.621166 0.933867 0.187428
H11   H     H_    0.101534 0.298840 0.512503 0.146883
H12   H     H_    0.374197 0.378244 0.066005 0.186362
H13   H     H_    0.891550 0.305658 0.539592 0.144629
H14   H     H_    0.926200 0.450518 0.700332 0.179409
H15   H     H_    0.129050 0.668266 0.697389 0.176810
H16   H     H_    0.915321 0.677823 0.681679 0.175419
H17   H     H_    0.070938 0.514816 0.281709 0.151180
H18   H     H_    0.084046 0.349682 0.272618 0.166742
N1    N     N_2   0.444530 0.445420 0.137360 -0.284905
N2    N     N_2   0.555520 0.554510 0.862630 -0.285504
O1    O     O_R   0.511820 0.332340 0.577400 -0.573487
O2    O     O_R   0.474400 0.295500 0.332650 -0.575042
O3    O     O_R   0.336400 0.518400 0.622370 -0.582584
O4    O     O_R   0.298980 0.481560 0.377620 -0.591321
O5    O     O_R   0.525600 0.704500 0.667350 -0.565154
O6    O     O_R   0.488180 0.667660 0.422600 -0.574401
O7    O     O_R   0.701020 0.518440 0.622380 -0.576347
O8    O     O_R   0.663600 0.481600 0.377630 -0.587261
C19   C     C_3   0.314651 0.858694 0.382022 -0.323407
C20   C     C_3   0.192615 0.930295 0.399720 -0.373659
C21   C     C_3   0.081395 0.851244 0.284086 -0.891971
H19   H     H_    0.101383 0.834715 0.171359 0.256630
H20   H     H_    0.063168 0.755270 0.295546 0.247159
H21   H     H_    0.995102 0.905924 0.299284 0.242273
H22   H     H_    0.169713 0.946821 0.511386 0.214769
H23   H     H_    0.205153 0.026961 0.387743 0.227001
H24   H     H_    0.338875 0.843457 0.271317 0.190591
H25   H     H_    0.293677 0.761124 0.387732 0.205481
C22   C     C_3   0.849970 0.288586 0.246740 -0.389663
C23   C     C_3   0.835259 0.253673 0.078956 -0.354497
C24   C     C_3   0.781978 0.112260 0.996274 -0.852336
H26   H     H_    0.846296 0.043853 0.026630 0.249803
H27   H     H_    0.687068 0.097161 0.022803 0.255804
H28   H     H_    0.772654 0.090027 0.875590 0.236344
H29   H     H_    0.769919 0.319553 0.044751 0.222966
H30   H     H_    0.928384 0.266911 0.047244 0.211999
H31   H     H_    0.912123 0.219833 0.279968 0.198121
H32   H     H_    0.755841 0.271840 0.273749 0.212635

loop_
_geom_bond_atom_site_label_1
_geom_bond_atom_site_label_2
_ccdc_geom_bond_type
C17   C18   S    
C24   H28   S    
C2    C4    S    
Cu1   O5    S    
C11   C18   S    
C11   O3    A    
C22   H32   S    
C13   O8    A    
C4    H2    S    
C9    C10   S    
C14   C18   S    
C15   H14   S    
Cu2   O2    S    
C20   H22   S    
C9    H9    S    
C14   H11   S    
C21   H21   S    
C24   H26   S    
C2    C3    S    
C23   H30   S    
C22   C23   S    
C16   C18   S    
C17   H17   S    
C20   H23   S    
C2    C15   S    
C2    C13   S    
Cu1   O1    S    
C3    H4    S    
C5    C6    D    
C7    H6    S    
C3    H16   S    
C1    C5    S    
C4    C17   S    
C4    C22   S    
C1    O1    A    
Cu2   O4    S    
Cu1   O3    S    
C23   H29   S    
C20   C21   S    
C16   H3    S    
C17   H18   S    
C16   H15   S    
C7    C12   S    
Cu1   O7    S    
C6    H5    S    
C7    C8    D    
Cu1   N2    S    
C19   H25   S    
H10   N2    S    
C21   H19   S    
C11   O4    A    
C1    O2    A    
C9    N1    D    
C19   H24   S    
C14   H1    S    
C10   N2    D    
C19   C20   S    
H12   N1    S    
C10   H8    S    
C24   H27   S    
Cu2   N1    S    
C14   C15   S    
C12   O5    A    
C6    C8    S    
Cu2   O8    S    
C22   H31   S    
C5    H7    S    
C13   O7    A    
C8    C19   S    
C15   H13   S    
Cu2   O6    S    
C3    C16   S    
Cu1   Cu2   S    
C23   C24   S    
C21   H20   S    
C12   O6    A    
