data_mof_unit_9026.cif
_audit_creation_date              2012-12-11T14:05:41-0500
_audit_creation_method            fapswitch 2.2
_symmetry_space_group_name_H-M    P1
_symmetry_Int_Tables_number       1
_space_group_crystal_system       triclinic
_cell_length_a                    17.802702
_cell_length_b                    17.615731
_cell_length_c                    17.665943
_cell_angle_alpha                 90.173847
_cell_angle_beta                  90.107478
_cell_angle_gamma                 89.769715
_cell_volume                      5540.09428192

loop_
_atom_site_label
_atom_site_type_symbol
_atom_type_description
_atom_site_fract_x
_atom_site_fract_y
_atom_site_fract_z
_atom_type_partial_charge
C1    C     C_R   0.716170 0.803542 0.188691 -0.088180
C2    C     C_R   0.297673 0.797154 0.211244 -0.099340
C3    C     C_R   0.910002 0.818532 0.622521 -0.099154
C4    C     C_R   0.090971 0.378913 0.817999 -0.129757
C5    C     C_R   0.925745 0.647783 0.161778 -0.124110
C6    C     C_R   0.090940 0.818081 0.621299 -0.141521
C7    C     C_R   0.902856 0.181307 0.381042 -0.036827
C8    C     C_R   0.819675 0.904203 0.619755 -0.106963
C9    C     C_R   0.179776 0.095632 0.379281 -0.109972
C10   C     C_R   0.622241 0.906775 0.180725 -0.106677
C11   C     C_R   0.375718 0.088185 0.819294 -0.069338
C12   C     C_R   0.183353 0.903927 0.384458 -0.106400
C13   C     C_R   0.201679 0.297308 0.788506 -0.118790
C14   C     C_R   0.816630 0.096126 0.615420 -0.092265
C15   C     C_R   0.377307 0.904120 0.820463 -0.166896
C16   C     C_R   0.614372 0.096883 0.184079 -0.105816
C17   C     C_R   0.183383 0.096313 0.615082 -0.107090
C18   C     C_R   0.819570 0.905029 0.378938 -0.137804
C19   C     C_R   0.380558 0.096806 0.180729 -0.117168
C20   C     C_R   0.619659 0.903282 0.819312 -0.122934
C21   C     C_R   0.818411 0.090464 0.379020 -0.128542
C22   C     C_R   0.180457 0.904027 0.620285 -0.036902
C23   C     C_R   0.624377 0.088509 0.819556 -0.051784
C24   C     C_R   0.840311 0.761994 0.158826 -0.242908
C25   C     C_R   0.375933 0.911378 0.180688 -0.056401
C26   C     C_R   0.292087 0.790037 0.802324 -0.151596
C27   C     C_R   0.676936 0.223570 0.222216 -0.123178
C28   C     C_R   0.777241 0.675120 0.775616 -0.240715
C29   C     C_R   0.222411 0.324186 0.223604 -0.243431
C30   C     C_R   0.222932 0.223491 0.675176 -0.131862
C31   C     C_R   0.811325 0.801753 0.284675 -0.162971
C32   C     C_R   0.223560 0.776885 0.323668 -0.237860
C33   C     C_R   0.292820 0.198397 0.789680 -0.150989
C34   C     C_R   0.776703 0.222996 0.676413 -0.236316
C35   C     C_R   0.788684 0.201032 0.296947 -0.125749
C36   C     C_R   0.201268 0.788707 0.703416 -0.118745
C37   C     C_R   0.797737 0.788403 0.701958 -0.105343
C38   C     C_R   0.200997 0.210761 0.296354 -0.100703
C39   C     C_R   0.648791 0.832939 0.839486 0.173262
C40   C     C_R   0.351570 0.167156 0.160512 0.187933
C41   C     C_R   0.170453 0.634596 0.828860 0.067279
C42   C     C_R   0.836392 0.346284 0.157298 0.143315
C43   C     C_R   0.349036 0.158875 0.833920 0.152701
C44   C     C_R   0.205181 0.699161 0.212406 -0.101481
C45   C     C_R   0.645227 0.833862 0.164283 0.194926
C46   C     C_R   0.838354 0.353887 0.832278 0.189102
C47   C     C_R   0.163867 0.643419 0.168410 0.182665
C48   C     C_R   0.635013 0.171545 0.170922 0.072098
C49   C     C_R   0.348235 0.834174 0.841859 0.154438
C50   C     C_R   0.170655 0.365172 0.171388 0.093671
C51   C     C_R   0.829080 0.633273 0.827330 0.108836
C52   C     C_R   0.351092 0.839750 0.166392 0.189697
C53   C     C_R   0.650043 0.159727 0.834407 0.179984
C54   C     C_R   0.870178 0.691574 0.129021 0.092914
C55   C     C_R   0.796780 0.298801 0.788358 -0.107680
C56   C     C_R   0.161918 0.353997 0.832235 0.186140
C57   C     C_R   0.829051 0.171176 0.635325 0.100481
C58   C     C_R   0.171026 0.828834 0.364544 0.086973
C59   C     C_R   0.836862 0.832455 0.355546 0.075721
C60   C     C_R   0.170591 0.171574 0.634639 0.060761
C61   C     C_R   0.159247 0.165972 0.350237 0.180384
C62   C     C_R   0.839270 0.833244 0.647750 0.185232
C63   C     C_R   0.161660 0.832372 0.646622 0.184852
C64   C     C_R   0.831612 0.162110 0.354744 0.178899
C65   C     C_R   0.770922 0.786610 0.133868 0.389360
C66   C     C_R   0.296733 0.211399 0.202099 -0.102700
C67   C     C_R   0.240719 0.242414 0.828723 0.336187
C68   C     C_R   0.247873 0.751054 0.172114 0.313133
C69   C     C_R   0.754147 0.246938 0.828566 0.316911
C70   C     C_R   0.287450 0.290219 0.192845 0.417263
C71   C     C_R   0.712498 0.709441 0.806874 0.411078
C72   C     C_R   0.713190 0.286002 0.189061 0.397722
C73   C     C_R   0.285447 0.710839 0.810233 0.402579
C74   C     C_R   0.192552 0.709697 0.712124 0.367144
C75   C     C_R   0.829502 0.238570 0.241897 0.344965
C76   C     C_R   0.193035 0.288827 0.709625 0.371482
C77   C     C_R   0.703248 0.788297 0.797545 -0.100137
C78   C     C_R   0.865376 0.786121 0.228696 0.443167
C79   C     C_R   0.191383 0.289652 0.288204 0.413710
C80   C     C_R   0.807835 0.709504 0.710692 0.404584
C81   C     C_R   0.194459 0.710190 0.290710 0.415077
C82   C     C_R   0.806424 0.289064 0.709872 0.407629
C83   C     C_R   0.712568 0.191424 0.710858 0.407502
C84   C     C_R   0.287943 0.808271 0.289580 0.410775
C85   C     C_R   0.710247 0.193266 0.287622 0.369735
C86   C     C_R   0.240294 0.829229 0.758069 0.340643
C87   C     C_R   0.245376 0.171332 0.245120 0.315896
C88   C     C_R   0.791760 0.290916 0.196977 -0.151514
C89   C     C_R   0.754084 0.828065 0.753701 0.314063
C90   C     C_R   0.286110 0.190474 0.710584 0.410820
C91   C     C_R   0.734640 0.804219 0.265516 0.345079
C92   C     C_R   0.623902 0.818814 0.910796 -0.020680
C93   C     C_R   0.376317 0.181263 0.089147 -0.076776
C94   C     C_R   0.183236 0.615169 0.903895 -0.120781
C95   C     C_R   0.820878 0.373975 0.087328 -0.052830
C96   C     C_R   0.377564 0.179949 0.904309 -0.159396
C97   C     C_R   0.614723 0.816542 0.095427 -0.058822
C98   C     C_R   0.819077 0.382116 0.902876 -0.125251
C99   C     C_R   0.222464 0.675423 0.777273 -0.123825
C100  C     C_R   0.181428 0.617443 0.096460 -0.101038
C101  C     C_R   0.615528 0.183948 0.095853 -0.108817
C102  C     C_R   0.374952 0.819634 0.912337 -0.057093
C103  C     C_R   0.183449 0.384716 0.096459 -0.097044
C104  C     C_R   0.815898 0.612392 0.901636 -0.139091
C105  C     C_R   0.380487 0.819230 0.096394 -0.136906
C106  C     C_R   0.621015 0.180283 0.904703 -0.110678
C107  C     C_R   0.838544 0.647876 0.072776 -0.115152
C108  C     C_R   0.180662 0.380127 0.904011 -0.031426
C109  C     C_R   0.904122 0.615107 0.815775 -0.115935
C110  C     C_R   0.703699 0.201748 0.789458 -0.098821
C111  C     C_R   0.096079 0.384807 0.183937 -0.102551
C112  C     C_R   0.903600 0.184059 0.615660 -0.128376
C113  C     C_R   0.096514 0.815930 0.384327 -0.062567
C114  C     C_R   0.906102 0.375271 0.178762 -0.150491
C115  C     C_R   0.096107 0.614559 0.815990 -0.090031
C116  C     C_R   0.905979 0.816227 0.385082 0.019178
C117  C     C_R   0.096056 0.184317 0.614744 -0.090238
C118  C     C_R   0.093235 0.618165 0.183102 -0.115920
C119  C     C_R   0.909479 0.377852 0.818257 -0.089827
C120  C     C_R   0.088412 0.180686 0.375574 -0.048224
H1    H     H_    0.629270 0.766921 0.942447 0.156754
H2    H     H_    0.369246 0.768470 0.945100 0.146924
H3    H     H_    0.236518 0.384159 0.067082 0.128264
H4    H     H_    0.761802 0.608854 0.928703 0.131306
H5    H     H_    0.383609 0.762710 0.072790 0.079385
H6    H     H_    0.619902 0.236194 0.929939 0.079295
H7    H     H_    0.788619 0.659797 0.040470 0.140488
H8    H     H_    0.234949 0.377060 0.931428 0.116927
H9    H     H_    0.934086 0.616474 0.762783 0.126420
H10   H     H_    0.066646 0.384441 0.237252 0.132295
H11   H     H_    0.932673 0.237671 0.616600 0.127035
H12   H     H_    0.370965 0.233029 0.057207 0.154543
H13   H     H_    0.067700 0.762197 0.383596 0.128458
H14   H     H_    0.932964 0.370822 0.233521 0.140351
H15   H     H_    0.066974 0.613250 0.762680 0.090963
H16   H     H_    0.936302 0.763003 0.381987 0.110827
H17   H     H_    0.066703 0.237738 0.613643 0.089400
H18   H     H_    0.065456 0.617200 0.237195 0.160977
H19   H     H_    0.939631 0.373767 0.765712 0.147791
H20   H     H_    0.056214 0.232332 0.369999 0.153705
H21   H     H_    0.940156 0.765670 0.625962 0.151044
H22   H     H_    0.060483 0.375558 0.765709 0.099226
H23   H     H_    0.236214 0.615738 0.933638 0.125210
H24   H     H_    0.955429 0.659533 0.213412 0.135320
H25   H     H_    0.060642 0.765757 0.624555 0.100143
H26   H     H_    0.928755 0.236616 0.378602 0.112529
H27   H     H_    0.764453 0.929798 0.618482 0.078533
H28   H     H_    0.235194 0.070472 0.380498 0.078938
H29   H     H_    0.633013 0.938749 0.231855 0.126713
H30   H     H_    0.370826 0.055830 0.767692 0.158989
H31   H     H_    0.236098 0.933826 0.384002 0.124479
H32   H     H_    0.763829 0.066318 0.615829 0.123184
H33   H     H_    0.374585 0.929167 0.764798 0.137769
H34   H     H_    0.770041 0.368211 0.054621 0.147194
H35   H     H_    0.612258 0.068565 0.237851 0.094126
H36   H     H_    0.236519 0.066663 0.615240 0.129563
H37   H     H_    0.767004 0.934450 0.370496 0.121396
H38   H     H_    0.382748 0.072814 0.236865 0.080080
H39   H     H_    0.617330 0.927226 0.763164 0.079817
H40   H     H_    0.767705 0.058187 0.374700 0.090788
H41   H     H_    0.234689 0.931290 0.623490 0.118654
H42   H     H_    0.629730 0.056091 0.767986 0.145269
H43   H     H_    0.370449 0.943953 0.232146 0.144954
H44   H     H_    0.805549 0.794943 0.029522 0.337440
H45   H     H_    0.374581 0.235604 0.929982 0.135861
H46   H     H_    0.231865 0.177681 0.917031 0.336804
H47   H     H_    0.263380 0.737236 0.065486 0.302426
H48   H     H_    0.740238 0.262292 0.935229 0.302175
H49   H     H_    0.329354 0.385977 0.160675 0.319259
H50   H     H_    0.669310 0.613922 0.837730 0.321475
H51   H     H_    0.619629 0.333129 0.158129 0.326687
H52   H     H_    0.330261 0.615542 0.841210 0.323584
H53   H     H_    0.111732 0.660145 0.661186 0.302485
H54   H     H_    0.917860 0.227456 0.178372 0.338545
H55   H     H_    0.112165 0.339879 0.659895 0.302405
H56   H     H_    0.616169 0.762147 0.067089 0.113959
H57   H     H_    0.968511 0.795487 0.192525 0.336414
H58   H     H_    0.158460 0.385049 0.331651 0.329591
H59   H     H_    0.841392 0.613880 0.668094 0.327647
H60   H     H_    0.161942 0.669406 0.386765 0.329336
H61   H     H_    0.838560 0.330942 0.614169 0.322557
H62   H     H_    0.669829 0.158119 0.615709 0.328883
H63   H     H_    0.329950 0.842363 0.384759 0.321631
H64   H     H_    0.665657 0.110208 0.339744 0.297758
H65   H     H_    0.231675 0.918655 0.822095 0.334521
H66   H     H_    0.260885 0.064367 0.258809 0.304265
H67   H     H_    0.763451 0.385106 0.926991 0.076350
H68   H     H_    0.738802 0.935087 0.740215 0.304516
H69   H     H_    0.330654 0.159196 0.615554 0.323455
H70   H     H_    0.698137 0.802977 0.369290 0.324739
H71   H     H_    0.236160 0.615839 0.070216 0.075141
H72   H     H_    0.616424 0.237247 0.065954 0.124979
N1    N     N_R   0.584840 0.879720 0.932190 -0.062010
N2    N     N_R   0.415160 0.879720 0.932190 -0.059513
N3    N     N_R   0.120280 0.415160 0.067810 -0.048813
N4    N     N_R   0.879720 0.584840 0.932190 -0.047564
N5    N     N_R   0.415160 0.879720 0.067810 -0.051378
N6    N     N_R   0.584840 0.120280 0.932190 -0.048035
N7    N     N_R   0.879720 0.584840 0.067810 -0.048052
N8    N     N_R   0.120280 0.415160 0.932190 -0.060112
N9    N     N_R   0.932190 0.584840 0.879720 -0.046840
N10   N     N_R   0.067810 0.415160 0.120280 -0.047447
N11   N     N_R   0.932190 0.120280 0.584840 -0.048110
N12   N     N_R   0.415160 0.120280 0.067810 -0.060933
N13   N     N_R   0.067810 0.879720 0.415160 -0.048179
N14   N     N_R   0.932190 0.415160 0.120280 -0.050208
N15   N     N_R   0.067810 0.584840 0.879720 -0.045878
N16   N     N_R   0.932190 0.879720 0.415160 -0.050440
N17   N     N_R   0.067810 0.120280 0.584840 -0.045601
N18   N     N_R   0.067810 0.584840 0.120280 -0.058121
N19   N     N_R   0.932190 0.415160 0.879720 -0.056525
N20   N     N_R   0.067810 0.120280 0.415160 -0.062733
N21   N     N_R   0.932190 0.879720 0.584840 -0.059706
N22   N     N_R   0.067810 0.415160 0.879720 -0.052098
N23   N     N_R   0.120280 0.584840 0.932190 -0.044680
N24   N     N_R   0.932190 0.584840 0.120280 -0.048545
N25   N     N_R   0.067810 0.879720 0.584840 -0.052928
N26   N     N_R   0.932190 0.120280 0.415160 -0.059731
N27   N     N_R   0.879720 0.932190 0.584840 -0.047268
N28   N     N_R   0.120280 0.067810 0.415160 -0.047638
N29   N     N_R   0.584840 0.932190 0.120280 -0.058040
N30   N     N_R   0.415160 0.067810 0.879720 -0.059362
N31   N     N_R   0.120280 0.932190 0.415160 -0.046180
N32   N     N_R   0.879720 0.067810 0.584840 -0.045024
N33   N     N_R   0.415160 0.932190 0.879720 -0.053285
N34   N     N_R   0.879720 0.415160 0.067810 -0.057831
N35   N     N_R   0.584840 0.067810 0.120280 -0.045018
N36   N     N_R   0.120280 0.067810 0.584840 -0.046156
N37   N     N_R   0.879720 0.932190 0.415160 -0.045265
N38   N     N_R   0.415160 0.067810 0.120280 -0.048897
N39   N     N_R   0.584840 0.932190 0.879720 -0.048438
N40   N     N_R   0.879720 0.067810 0.415160 -0.048397
N41   N     N_R   0.120280 0.932190 0.584840 -0.060062
N42   N     N_R   0.584840 0.067810 0.879720 -0.058933
N43   N     N_R   0.415160 0.932190 0.120280 -0.060008
N44   N     N_R   0.415160 0.120280 0.932190 -0.052629
N45   N     N_R   0.584840 0.879720 0.067810 -0.053078
N46   N     N_R   0.879720 0.415160 0.932190 -0.046976
N47   N     N_R   0.120280 0.584840 0.067810 -0.046765
N48   N     N_R   0.584840 0.120280 0.067810 -0.042882
Ni1   Ni    Ni4+2 0.500000 0.880920 0.000000 0.226027
Ni2   Ni    Ni4+2 0.119080 0.000000 0.500000 0.212675
Ni3   Ni    Ni4+2 0.500000 1.000000 0.119080 0.227891
Ni4   Ni    Ni4+2 0.500000 0.000000 0.880920 0.228793
Ni5   Ni    Ni4+2 0.500000 0.119080 0.000000 0.222314
Ni6   Ni    Ni4+2 0.119080 0.500000 0.000000 0.210934
Ni7   Ni    Ni4+2 0.880920 0.500000 0.000000 0.222813
Ni8   Ni    Ni4+2 1.000000 0.500000 0.880920 0.226018
Ni9   Ni    Ni4+2 0.000000 0.500000 0.119080 0.220106
Ni10  Ni    Ni4+2 0.000000 0.119080 0.500000 0.221025
Ni11  Ni    Ni4+2 1.000000 0.880920 0.500000 0.220866
Ni12  Ni    Ni4+2 0.880920 0.000000 0.500000 0.218259
O1    O     O_3   0.757176 0.796472 0.057354 -0.763491
O2    O     O_3   0.905225 0.222742 0.232786 -0.750235
O3    O     O_3   0.166728 0.347449 0.665698 -0.711038
O4    O     O_3   0.941383 0.796841 0.241563 -0.759439
O5    O     O_3   0.149273 0.330189 0.339964 -0.768409
O6    O     O_3   0.849843 0.668740 0.659023 -0.778962
O7    O     O_3   0.153397 0.658853 0.332233 -0.774430
O8    O     O_3   0.847484 0.340773 0.668774 -0.779830
O9    O     O_3   0.661592 0.148658 0.670398 -0.772990
O10   O     O_3   0.338359 0.851673 0.330071 -0.777102
O11   O     O_3   0.665404 0.165988 0.344501 -0.728101
O12   O     O_3   0.226421 0.232385 0.905067 -0.751370
O13   O     O_3   0.226301 0.906049 0.767622 -0.755184
O14   O     O_3   0.228609 0.097009 0.226934 -0.703292
O15   O     O_3   0.771355 0.902320 0.771674 -0.704825
O16   O     O_3   0.338584 0.149208 0.670241 -0.765141
O17   O     O_3   0.678515 0.815826 0.318391 -0.751447
O18   O     O_3   0.229617 0.767690 0.097991 -0.710790
O19   O     O_3   0.772283 0.230030 0.902669 -0.708917
O20   O     O_3   0.338649 0.331188 0.151261 -0.777575
O21   O     O_3   0.661213 0.668653 0.848490 -0.772666
O22   O     O_3   0.674013 0.339618 0.147928 -0.774643
O23   O     O_3   0.337898 0.670399 0.851385 -0.770948
O24   O     O_3   0.166357 0.665297 0.653791 -0.718354

loop_
_geom_bond_atom_site_label_1
_geom_bond_atom_site_label_2
_ccdc_geom_bond_type
C53   C110  S    
C120  N20   A    
C16   N35   A    
C108  N8    A    
N2    Ni1   S    
C115  N15   A    
C1    C65   A    
N35   Ni3   S    
C2    C84   A    
H44   O1    S    
C3    H21   S    
H47   O18   S    
C32   C58   S    
C40   C93   A    
C30   C90   A    
C75   O2    S    
C103  H3    S    
N15   Ni8   S    
C16   C48   A    
C37   C62   S    
N21   N27   A    
H65   O13   S    
N34   Ni7   S    
N3    N10   A    
C22   H41   S    
N33   Ni4   S    
C32   C81   A    
C77   C89   A    
C94   N23   A    
C98   H67   S    
C54   C107  A    
C15   N33   A    
N47   Ni6   S    
C72   O22   S    
C94   H23   S    
C39   C77   S    
N2    N33   A    
C14   N32   A    
C28   C71   A    
C41   C115  A    
C116  H16   S    
H50   O21   S    
C2    C68   A    
C10   H29   S    
C4    H22   S    
C28   C51   S    
C57   C112  A    
C38   C79   A    
C48   C101  A    
N6    Ni5   S    
C24   C54   S    
C22   N41   A    
C26   C73   A    
C11   N30   A    
C100  N47   A    
C6    C63   A    
C31   C59   S    
C27   C85   A    
N14   Ni9   S    
N20   N28   A    
C56   C108  A    
C21   C64   A    
N38   Ni3   S    
C11   H30   S    
C10   N29   A    
C71   O21   S    
C22   C63   A    
C23   N42   A    
C53   C106  A    
C42   C114  A    
C47   C118  A    
N29   N45   A    
C73   O23   S    
C59   C116  A    
C20   H39   S    
C30   C60   S    
N46   Ni7   S    
N14   N34   A    
C34   C57   S    
N8    N22   A    
C41   C99   S    
H69   O16   S    
C11   C43   A    
C35   C64   S    
C120  H20   S    
N17   N36   A    
H46   O12   S    
C27   C72   A    
C36   C63   S    
N18   Ni9   S    
N12   Ni5   S    
C44   C47   S    
N7    Ni7   S    
N17   Ni10  S    
C106  N6    A    
C7    H26   S    
C12   C58   A    
C101  H72   S    
C105  N5    A    
C46   C98   A    
C50   C103  A    
C51   C109  A    
C20   N39   A    
C113  H13   S    
C4    C56   A    
C101  N48   A    
N26   Ni10  S    
C12   H31   S    
C84   O10   S    
C103  N3    A    
C85   O11   S    
C102  N2    A    
C111  N10   A    
C72   C88   A    
H59   O6    S    
H54   O2    S    
C67   O12   S    
C29   C50   S    
C58   C113  A    
N5    N43   A    
C32   C84   A    
C37   C80   A    
C81   O7    S    
C4    N22   A    
C75   C88   A    
H68   O15   S    
C82   O8    S    
C42   C95   A    
C33   C43   S    
C5    C54   A    
C27   C48   S    
C44   C81   A    
N6    N42   A    
H48   O19   S    
N8    Ni6   S    
C49   C102  A    
H61   O8    S    
C6    H25   S    
N30   Ni4   S    
H49   O20   S    
N24   Ni9   S    
C5    H24   S    
C18   H37   S    
C92   H1    S    
C87   O14   S    
C36   C86   A    
C51   C104  A    
H62   O9    S    
N28   Ni2   S    
C17   N36   A    
N13   N31   A    
C47   C100  A    
N7    N24   A    
C65   O1    S    
C89   O15   S    
N16   Ni11  S    
C113  N13   A    
N19   Ni8   S    
C46   C55   S    
C90   O16   S    
C14   C57   A    
C12   N31   A    
C68   O18   S    
N31   Ni2   S    
N13   Ni11  S    
H58   O5    S    
C69   O19   S    
N11   Ni10  S    
C30   C76   A    
C69   C110  A    
N41   Ni2   S    
C111  H10   S    
C70   O20   S    
C41   C94   A    
C29   C79   A    
C13   C76   A    
C26   C86   A    
N5    Ni1   S    
C8    N27   A    
C16   H35   S    
N15   N23   A    
C43   C96   A    
C104  N4    A    
N19   N46   A    
N36   Ni2   S    
C60   C117  A    
C116  N16   A    
N3    Ni6   S    
C108  H8    S    
C55   C82   A    
C61   C120  A    
C93   N12   A    
N43   Ni3   S    
C55   C69   A    
C2    C52   S    
C24   C65   A    
H60   O7    S    
C5    N24   A    
N40   Ni12  S    
C9    N28   A    
C24   C78   A    
C8    C62   A    
C52   C105  A    
C92   N1    A    
C31   C91   A    
N27   Ni12  S    
N11   N32   A    
N4    Ni7   S    
C109  H9    S    
N48   Ni5   S    
C21   H40   S    
C9    C61   A    
C26   C49   S    
C8    H27   S    
C42   C88   S    
C34   C83   A    
N1    N39   A    
H70   O17   S    
N25   N41   A    
C93   H12   S    
C39   C92   A    
C71   C77   A    
H52   O23   S    
C66   C87   A    
C96   N44   A    
C31   C78   A    
C29   C70   A    
C13   C67   A    
C3    C62   A    
C73   C99   A    
H57   O4    S    
C83   C110  A    
C36   C74   A    
C25   N43   A    
C34   C82   A    
C9    H28   S    
C19   H38   S    
N1    Ni1   S    
N44   Ni5   S    
C117  H17   S    
C35   C75   A    
C91   O17   S    
C18   N37   A    
N22   Ni8   S    
H64   O11   S    
C7    N26   A    
C38   C61   S    
H55   O3    S    
C74   C99   A    
N30   N44   A    
N45   Ni1   S    
C3    N21   A    
H63   O10   S    
C97   N45   A    
C106  H6    S    
H53   O24   S    
C119  N19   A    
C86   O13   S    
C105  H5    S    
C38   C87   A    
C118  N18   A    
C95   H34   S    
C119  H19   S    
N18   N47   A    
C13   C56   S    
C109  N9    A    
N39   Ni4   S    
C20   C39   A    
C25   C52   A    
C78   O4    S    
C1    C45   S    
H51   O22   S    
C45   C97   A    
C33   C90   A    
N9    Ni8   S    
C107  N7    A    
N4    N9    A    
C21   N40   A    
H66   O14   S    
C15   H33   S    
C66   C70   A    
C115  H15   S    
C25   H43   S    
N35   N48   A    
C23   C53   A    
C117  N17   A    
C50   C111  A    
C114  H14   S    
C37   C89   A    
C46   C119  A    
N21   Ni11  S    
C15   C49   A    
C112  H11   S    
N12   N38   A    
N26   N40   A    
C28   C80   A    
C19   N38   A    
C79   O5    S    
C7    C64   A    
C95   N34   A    
N37   Ni12  S    
C44   C68   A    
C19   C40   A    
N32   Ni12  S    
C17   C60   A    
C107  H7    S    
N29   Ni3   S    
C100  H71   S    
C35   C85   A    
C114  N14   A    
C18   C59   A    
C102  H2    S    
N10   Ni9   S    
C80   O6    S    
C83   O9    S    
N23   Ni6   S    
C1    C91   A    
C74   O24   S    
C10   C45   A    
C14   H32   S    
C97   H56   S    
C6    N25   A    
C96   H45   S    
C98   N46   A    
C40   C66   S    
N25   Ni11  S    
C112  N11   A    
C104  H4    S    
C118  H18   S    
C17   H36   S    
N20   Ni10  S    
C23   H42   S    
C33   C67   A    
N16   N37   A    
N42   Ni4   S    
C76   O3    S    
