data_mof_unit_26475.cif
_audit_creation_date              2013-03-05T16:30:35-0500
_audit_creation_method            fapswitch 2.2
_symmetry_space_group_name_H-M    P1
_symmetry_Int_Tables_number       1
_space_group_crystal_system       triclinic
_cell_length_a                    8.841205
_cell_length_b                    10.936347
_cell_length_c                    9.597748
_cell_angle_alpha                 90.824411
_cell_angle_beta                  95.792992
_cell_angle_gamma                 90.992451
_cell_volume                      923.011652006

loop_
_atom_site_label
_atom_site_type_symbol
_atom_site_description
_atom_site_fract_x
_atom_site_fract_y
_atom_site_fract_z
_atom_type_partial_charge
O1    O     O_R   0.500000 0.319640 0.618810 -0.600690
O2    O     O_R   0.500020 0.319680 0.381230 -0.586857
C1    C     C_R   0.497005 0.263059 0.499055 0.780675
O3    O     O_R   0.274830 0.499980 0.591380 -0.580881
O4    O     O_R   0.274850 0.500020 0.353800 -0.578910
C2    C     C_R   0.204886 0.493985 0.466421 0.853573
Cu1   Cu    Cu3+1 0.499990 0.499980 0.640670 0.927557
Cu2   Cu    Cu3+1 0.500010 0.500020 0.359330 0.976123
O5    O     O_R   0.499980 0.680320 0.618770 -0.592279
O6    O     O_R   0.500000 0.680360 0.381190 -0.573634
O7    O     O_R   0.725150 0.499980 0.646200 -0.615923
O8    O     O_R   0.725170 0.500020 0.408620 -0.547812
C3    C     C_R   0.496000 0.737753 0.499500 0.818745
C4    C     C_R   0.793882 0.489904 0.534695 0.853152
C5    C     C_2   0.040538 0.490969 0.452070 -0.329300
H1    H     H_    0.986584 0.518094 0.353060 0.236770
C6    C     C_2   0.954761 0.463968 0.555513 -0.047565
C7    C     C_R   0.564134 0.066053 0.608306 0.055302
C8    C     C_R   0.495985 0.130780 0.496522 -0.125244
C9    C     C_R   0.433325 0.065486 0.377683 -0.235436
H2    H     H_    0.380446 0.115262 0.289382 0.159322
C10   C     C_R   0.424397 0.936796 0.377295 0.158680
C11   C     C_R   0.493422 0.871993 0.495223 -0.087619
C12   C     C_R   0.571683 0.940470 0.604367 0.038040
C13   C     C_3   0.566483 0.934413 0.758666 -0.501409
C14   C     C_3   0.553029 0.072479 0.762694 -0.013225
H3    H     H_    0.464472 0.882812 0.786394 0.206171
H4    H     H_    0.676503 0.906939 0.811694 0.199280
H5    H     H_    0.652950 0.120755 0.819965 0.165082
C15   C     C_R   0.621995 0.545611 0.085451 0.182101
N1    N     N_R   0.500980 0.500930 0.148050 -0.219039
C16   C     C_R   0.389593 0.440312 0.063223 -0.054786
H6    H     H_    0.298738 0.392975 0.108972 0.152779
C17   C     C_R   0.390732 0.439470 0.915118 -0.089392
H7    H     H_    0.303295 0.389397 0.852065 0.144640
N2    N     N_R   0.500990 0.500890 0.852140 -0.194697
C18   C     C_R   0.621513 0.546850 0.938198 0.164183
C19   C     C_3   0.681694 0.675324 0.940711 -0.224999
C20   C     C_3   0.686631 0.672061 0.100500 0.160759
H8    H     H_    0.590548 0.734803 0.897072 0.140590
H9    H     H_    0.609690 0.738377 0.143849 0.085121
C21   C     C_3   0.830730 0.690260 0.869639 -0.235107
C22   C     C_3   0.927808 0.803484 0.919592 -0.807897
H10   H     H_    0.949259 0.861151 0.828980 0.215014
H11   H     H_    0.872073 0.860587 0.995495 0.258456
H12   H     H_    0.040150 0.775120 0.969447 0.261983
H13   H     H_    0.900621 0.606893 0.881278 0.224140
H14   H     H_    0.798457 0.700097 0.755671 0.208612
N3    N     N_R   0.837342 0.673234 0.176999 0.132230
O9    O     O_R   0.858395 0.731370 0.296768 -0.421421
O10   O     O_R   0.943524 0.603528 0.137378 -0.442524
C23   C     C_3   0.012920 0.402813 0.691671 -0.361237
C24   C     C_3   0.069327 0.274048 0.665211 -0.855390
H15   H     H_    0.977953 0.218358 0.605152 0.250205
H16   H     H_    0.170512 0.276068 0.605856 0.254676
H17   H     H_    0.099339 0.229173 0.766991 0.228821
H18   H     H_    0.097801 0.462549 0.752381 0.216035
H19   H     H_    0.922018 0.391086 0.762362 0.209809
C25   C     C_3   0.325228 0.875959 0.257491 -0.477374
C26   C     C_3   0.179848 0.824382 0.306884 -0.668793
H20   H     H_    0.111332 0.784089 0.214615 0.293655
H21   H     H_    0.203033 0.752249 0.385756 0.241057
H22   H     H_    0.114375 0.898488 0.352088 0.245787
H23   H     H_    0.289969 0.942952 0.175413 0.195139
H24   H     H_    0.385674 0.804637 0.203870 0.223193
C27   C     C_3   0.398308 0.110799 0.807800 -0.344635
C28   C     C_3   0.398144 0.103478 0.966241 -0.896604
H25   H     H_    0.428209 0.010095 0.001551 0.257352
H26   H     H_    0.482246 0.169948 0.019218 0.263487
H27   H     H_    0.283592 0.125447 0.996436 0.233960
H28   H     H_    0.375060 0.205536 0.778085 0.229368
H29   H     H_    0.304197 0.052563 0.755436 0.209055

loop_
_geom_bond_atom_site_label_1
_geom_bond_atom_site_label_2
_geom_bond_distance
_ccdc_geom_bond_type
O4    Cu2   1.986031 S    
Cu1   O7    1.986032 S    
C22   H10   1.111297 S    
C27   H28   1.095945 S    
C1    C8    1.446359 S    
C18   C19   1.492766 S    
C13   H3    1.112585 S    
O3    Cu1   1.999130 S    
Cu1   N2    2.028643 S    
C8    C9    1.397523 A    
C7    C14   1.495610 S    
Cu2   O8    1.999129 S    
C11   C12   1.396453 A    
C28   H27   1.110452 S    
C16   H6    1.081375 S    
C9    H2    1.084086 S    
C27   C28   1.524075 S    
C13   C14   1.516916 S    
Cu1   Cu2   2.700255 S    
C20   H9    1.107864 S    
C21   H14   1.109465 S    
C24   H15   1.111167 S    
C25   H24   1.103300 S    
C13   H4    1.100025 S    
C19   H8    1.098093 S    
C22   H11   1.110657 S    
C4    C6    1.449736 S    
C25   H23   1.108817 S    
O4    C2    1.300368 A    
C23   H19   1.109819 S    
C26   H22   1.112186 S    
C7    C12   1.376355 A    
C5    H1    1.067740 S    
C6    C23   1.523440 S    
Cu2   O6    1.980386 S    
N2    C18   1.364600 A    
C20   N3    1.454766 S    
O8    C4    1.305094 A    
C15   C20   1.486628 S    
C19   C21   1.550927 S    
C17   N2    1.369224 A    
C21   H13   1.110895 S    
C24   H16   1.108097 S    
C15   N1    1.365498 A    
C17   H7    1.070075 S    
O7    C4    1.287224 A    
C27   H29   1.112897 S    
C22   H12   1.109370 S    
O3    C2    1.292942 A    
C21   C22   1.537144 S    
C9    C10   1.408172 A    
C28   H25   1.108919 S    
C14   C27   1.538971 S    
C25   C26   1.516756 S    
C19   C20   1.530780 S    
C12   C13   1.488653 S    
C3    C11   1.469772 S    
C14   H5    1.113008 S    
C26   H21   1.108534 S    
N3    O9    1.300746 A    
C23   H18   1.101488 S    
C24   H17   1.109720 S    
C28   H26   1.110932 S    
C10   C25   1.512553 S    
Cu1   O5    1.986436 S    
O5    C3    1.311282 A    
C10   C11   1.433315 A    
C7    C8    1.386121 A    
O1    Cu1   1.980386 S    
O2    C1    1.299480 A    
O1    C1    1.295177 A    
C2    C5    1.445396 S    
C5    C6    1.341898 D    
Cu2   N1    2.028862 S    
O2    Cu2   1.986435 S    
N1    C16   1.368260 A    
C15   C18   1.413129 A    
C23   C24   1.528356 S    
C26   H20   1.102993 S    
N3    O10   1.302138 A    
O6    C3    1.293433 A    
C16   C17   1.422423 A    
