data_mof_unit_22204.cif
_audit_creation_date              2012-12-11T14:54:37-0500
_audit_creation_method            fapswitch 2.2
_symmetry_space_group_name_H-M    P1
_symmetry_Int_Tables_number       1
_space_group_crystal_system       triclinic
_cell_length_a                    18.884614
_cell_length_b                    10.982044
_cell_length_c                    18.718179
_cell_angle_alpha                 89.939977
_cell_angle_beta                  90.426343
_cell_angle_gamma                 90.222851
_cell_volume                      3881.85540098

loop_
_atom_site_label
_atom_site_type_symbol
_atom_type_description
_atom_site_fract_x
_atom_site_fract_y
_atom_site_fract_z
_atom_type_partial_charge
C1    C     C_R   0.728837 0.374213 0.644801 0.568411
C2    C     C_R   0.315945 0.904915 0.467763 0.278681
C3    C     C_R   0.034309 0.563561 0.452241 -0.113671
C4    C     C_3   0.795283 0.178140 0.144090 -0.089732
C5    C     C_3   0.205547 0.175955 0.853413 -0.086204
C6    C     C_3   0.295325 0.678131 0.144082 -0.089753
C7    C     C_3   0.705525 0.675944 0.853422 -0.086238
C8    C     C_3   0.679980 0.700284 0.610180 -0.123678
C9    C     C_3   0.404250 0.797465 0.416373 -0.094618
C10   C     C_3   0.179993 0.200280 0.610185 -0.123716
C11   C     C_3   0.904248 0.297460 0.416370 -0.094625
C12   C     C_3   0.623898 0.687919 0.441668 -0.069517
C13   C     C_R   0.196080 0.363413 0.536457 0.247371
C14   C     C_3   0.410214 0.834746 0.597183 -0.067229
C15   C     C_3   0.123858 0.187937 0.441699 -0.069525
C16   C     C_3   0.910213 0.334744 0.597182 -0.067241
C17   C     C_R   0.815944 0.404908 0.467761 0.278684
C18   C     C_R   0.693292 0.860376 0.460942 0.276316
C19   C     C_R   0.308279 0.902648 0.542064 0.265493
C20   C     C_R   0.193292 0.360369 0.460941 0.276326
C21   C     C_R   0.808278 0.402642 0.542063 0.265495
C22   C     C_R   0.745562 0.924105 0.422168 0.004444
C23   C     C_R   0.240075 0.894777 0.569825 -0.006448
C24   C     C_R   0.245561 0.424103 0.422168 0.004453
C25   C     C_R   0.268186 0.379979 0.352637 0.545366
C26   C     C_R   0.740074 0.394770 0.569824 -0.006450
C27   C     C_R   0.789952 0.007182 0.456259 -0.214011
C28   C     C_R   0.180452 0.888339 0.524823 -0.212539
C29   C     C_R   0.289948 0.507186 0.456258 -0.214018
C30   C     C_R   0.680451 0.388328 0.524821 -0.212532
C31   C     C_R   0.791308 0.013404 0.529216 -0.199818
C32   C     C_R   0.187337 0.898763 0.452073 -0.229201
C33   C     C_R   0.291303 0.513409 0.529215 -0.199818
C34   C     C_R   0.687337 0.398752 0.452071 -0.229217
C35   C     C_R   0.745834 0.941041 0.570350 -0.010147
C36   C     C_R   0.228838 0.874214 0.644801 0.568407
C37   C     C_R   0.254235 0.914868 0.423417 -0.024156
C38   C     C_R   0.245833 0.441042 0.570350 -0.010131
C39   C     C_R   0.754234 0.414862 0.423415 -0.024175
C40   C     C_R   0.536077 0.053405 0.973926 -0.197590
C41   C     C_R   0.520425 0.054395 0.045094 -0.196958
C42   C     C_R   0.036059 0.553400 0.973920 -0.197584
C43   C     C_R   0.020402 0.554388 0.045085 -0.196977
C44   C     C_R   0.507893 0.164557 0.080353 0.036806
C45   C     C_R   0.546616 0.162103 0.936910 0.029244
C46   C     C_R   0.007887 0.664552 0.080350 0.036833
C47   C     C_R   0.768186 0.879979 0.352637 0.545358
C48   C     C_R   0.046615 0.662098 0.936909 0.029265
C49   C     C_R   0.520757 0.276150 0.045473 0.220379
C50   C     C_R   0.544273 0.274550 0.973711 0.214904
C51   C     C_R   0.020772 0.776145 0.045479 0.220466
C52   C     C_R   0.044291 0.774539 0.973717 0.214808
C53   C     C_R   0.535717 0.154100 0.644246 0.561069
C54   C     C_R   0.468883 0.155768 0.352771 0.560400
C55   C     C_R   0.035718 0.654100 0.644245 0.561071
C56   C     C_R   0.968884 0.655768 0.352771 0.560397
C57   C     C_R   0.777189 0.064144 0.981252 -0.091228
C58   C     C_3   0.436100 0.357209 0.468302 -0.239784
C59   C     C_R   0.222581 0.063347 0.018470 -0.101587
C60   C     C_R   0.277197 0.564132 0.981248 -0.091278
C61   C     C_R   0.722567 0.563328 0.018474 -0.101480
C62   C     C_R   0.782381 0.040894 0.054110 0.275773
C63   C     C_R   0.218373 0.041662 0.945342 0.271052
C64   C     C_R   0.282391 0.540885 0.054106 0.275708
C65   C     C_R   0.718359 0.541645 0.945347 0.271159
C66   C     C_R   0.743704 0.942139 0.083382 0.018569
C67   C     C_R   0.257350 0.943841 0.916213 0.021531
C68   C     C_R   0.243705 0.442145 0.083382 0.018562
C69   C     C_3   0.446675 0.353223 0.548555 -0.275821
C70   C     C_R   0.757346 0.443839 0.916214 0.021554
C71   C     C_R   0.690069 0.887276 0.042734 -0.184943
C72   C     C_R   0.312902 0.893500 0.956301 -0.183819
C73   C     C_R   0.190063 0.387292 0.042738 -0.184934
C74   C     C_R   0.812904 0.393511 0.956299 -0.183835
C75   C     C_R   0.683821 0.913862 0.970421 -0.160517
C76   C     C_R   0.320880 0.923790 0.028214 -0.150871
C77   C     C_R   0.183815 0.413876 0.970424 -0.160503
C78   C     C_R   0.820883 0.423803 0.028212 -0.150880
C79   C     C_R   0.729912 0.998105 0.938494 -0.035667
C80   C     C_3   0.936114 0.857224 0.468299 -0.239793
C81   C     C_R   0.271782 0.001537 0.061014 -0.031576
C82   C     C_R   0.229912 0.498106 0.938494 -0.035679
C83   C     C_R   0.771779 0.501535 0.061014 -0.031574
C84   C     C_R   0.740394 0.972762 0.645599 0.560328
C85   C     C_R   0.259396 0.967893 0.352513 0.558702
C86   C     C_R   0.240394 0.472761 0.645599 0.560332
C87   C     C_R   0.759396 0.467891 0.352513 0.558686
C88   C     C_R   0.731409 0.382322 0.851195 0.539526
C89   C     C_R   0.268680 0.382541 0.148979 0.535073
C90   C     C_R   0.231410 0.882323 0.851195 0.539518
C91   C     C_3   0.946690 0.853240 0.548553 -0.275822
C92   C     C_R   0.768680 0.882540 0.148979 0.535098
C93   C     C_R   0.563398 0.153399 0.860939 0.568711
C94   C     C_R   0.469652 0.157151 0.147762 0.567665
C95   C     C_R   0.063399 0.653398 0.860939 0.568716
C96   C     C_R   0.969650 0.657150 0.147760 0.567685
C97   C     C_R   0.727192 0.022224 0.861584 0.537891
C98   C     C_R   0.273242 0.023194 0.138521 0.558126
C99   C     C_R   0.227192 0.522224 0.861584 0.537886
C100  C     C_R   0.773241 0.523193 0.138521 0.558115
C101  C     C_R   0.505543 0.167528 0.420343 0.021040
C102  C     C_R   0.696081 0.863416 0.536457 0.247384
C103  C     C_R   0.521586 0.158428 0.568488 0.038355
C104  C     C_R   0.005545 0.667526 0.420342 0.021043
C105  C     C_R   0.021588 0.658427 0.568487 0.038358
C106  C     C_R   0.497496 0.272653 0.461862 -0.005484
C107  C     C_R   0.506142 0.268139 0.535011 -0.007422
C108  C     C_R   0.997504 0.772654 0.461860 -0.005484
C109  C     C_R   0.006151 0.768140 0.535008 -0.007420
C110  C     C_R   0.541347 0.058448 0.525981 -0.115805
C111  C     C_R   0.534310 0.063566 0.452241 -0.113669
C112  C     C_R   0.041346 0.558443 0.525981 -0.115807
Cr1   Cr    Cr6+3 0.771950 0.169480 0.750100 1.005426
Cr2   Cr    Cr6+3 0.383410 0.010620 0.249390 1.009528
Cr3   Cr    Cr6+3 0.116590 0.510620 0.750610 1.010322
Cr4   Cr    Cr6+3 0.883410 0.510620 0.249390 1.009542
Cr5   Cr    Cr6+3 0.228050 0.169480 0.249900 1.030764
Cr6   Cr    Cr6+3 0.271950 0.669480 0.750100 1.005412
Cr7   Cr    Cr6+3 0.728050 0.669480 0.249900 1.030742
Cr8   Cr    Cr6+3 0.614930 0.323340 0.749170 1.054045
Cr9   Cr    Cr6+3 0.385070 0.323340 0.250830 1.053653
Cr10  Cr    Cr6+3 0.114930 0.823340 0.749170 1.054059
Cr11  Cr    Cr6+3 0.885070 0.823340 0.250830 1.053686
Cr12  Cr    Cr6+3 0.616590 0.010620 0.750610 1.010320
H1    H     H_    0.559755 0.974526 0.549626 0.189477
H2    H     H_    0.347466 0.825963 0.933335 0.139415
H3    H     H_    0.155964 0.318602 0.065684 0.135902
H4    H     H_    0.847473 0.325983 0.933331 0.139421
H5    H     H_    0.644932 0.864435 0.939127 0.162119
H6    H     H_    0.362661 0.880532 0.058821 0.165799
H7    H     H_    0.144922 0.364455 0.939131 0.162132
H8    H     H_    0.862669 0.380555 0.058817 0.165813
H9    H     H_    0.885633 0.813650 0.451121 0.172062
H10   H     H_    0.965336 0.941296 0.571261 0.130235
H11   H     H_    0.385623 0.313627 0.451122 0.172057
H12   H     H_    0.543738 0.982109 0.421405 0.186047
H13   H     H_    0.465313 0.441283 0.571266 0.130242
H14   H     H_    0.447366 0.448097 0.444680 0.127314
H15   H     H_    0.401980 0.309468 0.577387 0.151244
H16   H     H_    0.947385 0.948109 0.444675 0.127299
H17   H     H_    0.901992 0.809497 0.577386 0.151246
H18   H     H_    0.828219 0.060283 0.426695 0.131809
H19   H     H_    0.127897 0.879446 0.546415 0.163362
H20   H     H_    0.328213 0.560290 0.426694 0.131805
H21   H     H_    0.627897 0.379432 0.546413 0.163367
H22   H     H_    0.828256 0.076824 0.553152 0.143745
H23   H     H_    0.059750 0.474519 0.549626 0.189456
H24   H     H_    0.140202 0.902857 0.418769 0.140046
H25   H     H_    0.328249 0.576833 0.553150 0.143746
H26   H     H_    0.640201 0.402845 0.418768 0.140046
H27   H     H_    0.538654 0.965856 0.947681 0.152548
H28   H     H_    0.512194 0.966920 0.070601 0.157180
H29   H     H_    0.038626 0.465852 0.947671 0.152554
H30   H     H_    0.012158 0.466913 0.070587 0.157180
H31   H     H_    0.765356 0.122020 0.183079 0.110457
H32   H     H_    0.758648 0.243140 0.117314 0.130356
H33   H     H_    0.835092 0.230628 0.175174 0.163387
H34   H     H_    0.043734 0.482101 0.421405 0.186031
H35   H     H_    0.233336 0.118040 0.814025 0.113982
H36   H     H_    0.244161 0.239955 0.878464 0.132878
H37   H     H_    0.165911 0.229442 0.822944 0.162705
H38   H     H_    0.265451 0.622009 0.183119 0.110544
H39   H     H_    0.258643 0.743074 0.117314 0.130302
H40   H     H_    0.335146 0.730689 0.175115 0.163398
H41   H     H_    0.733306 0.618036 0.814025 0.114002
H42   H     H_    0.744145 0.739934 0.878472 0.132870
H43   H     H_    0.665887 0.729442 0.822962 0.162702
H44   H     H_    0.717362 0.651378 0.574655 0.104200
H45   H     H_    0.811195 0.132341 0.957860 0.140074
H46   H     H_    0.638477 0.634460 0.626463 0.155047
H47   H     H_    0.708402 0.729854 0.659305 0.131547
H48   H     H_    0.404183 0.729506 0.460394 0.057719
H49   H     H_    0.459124 0.803568 0.395948 0.149639
H50   H     H_    0.369909 0.763947 0.372015 0.116877
H51   H     H_    0.217447 0.151458 0.574695 0.104180
H52   H     H_    0.138499 0.134381 0.626391 0.155048
H53   H     H_    0.208335 0.229844 0.659358 0.131609
H54   H     H_    0.904183 0.229499 0.460390 0.057707
H55   H     H_    0.959122 0.303564 0.395943 0.149623
H56   H     H_    0.186475 0.127185 0.042155 0.138932
H57   H     H_    0.869906 0.263943 0.372012 0.116884
H58   H     H_    0.673222 0.639494 0.456955 0.137739
H59   H     H_    0.601082 0.640859 0.394396 0.138845
H60   H     H_    0.583637 0.681503 0.484382 0.141911
H61   H     H_    0.382640 0.745243 0.597846 0.097057
H62   H     H_    0.436780 0.845318 0.649870 0.152007
H63   H     H_    0.452394 0.836015 0.556364 0.149670
H64   H     H_    0.173157 0.139488 0.457037 0.137755
H65   H     H_    0.101060 0.140841 0.394431 0.138814
H66   H     H_    0.083567 0.181611 0.484386 0.141904
H67   H     H_    0.311211 0.632316 0.957853 0.140076
H68   H     H_    0.882637 0.245242 0.597856 0.097074
H69   H     H_    0.936786 0.345327 0.649866 0.152015
H70   H     H_    0.952388 0.336001 0.556358 0.149647
H71   H     H_    0.492610 0.446090 0.045902 0.343424
H72   H     H_    0.580586 0.440212 0.974589 0.344846
H73   H     H_    0.992842 0.946207 0.045927 0.343496
H74   H     H_    0.080762 0.940059 0.974595 0.344764
H75   H     H_    0.686455 0.627152 0.042162 0.138936
H76   H     H_    0.655973 0.818578 0.065678 0.135904
O1    O     O_R   0.787510 0.042610 0.670410 -0.533502
O2    O     O_R   0.454250 0.051070 0.169440 -0.553857
O3    O     O_R   0.045750 0.551070 0.830560 -0.534886
O4    O     O_R   0.954250 0.551070 0.169440 -0.553868
O5    O     O_R   0.681210 0.959150 0.825320 -0.540544
O6    O     O_R   0.318790 0.959150 0.174680 -0.532244
O7    O     O_R   0.181210 0.459150 0.825320 -0.540542
O8    O     O_R   0.818790 0.459150 0.174680 -0.532227
O9    O     O_3   0.667820 0.167810 0.749960 -0.300236
O10   O     O_3   0.332180 0.167810 0.250040 -0.278633
O11   O     O_3   0.167820 0.667810 0.749960 -0.300234
O12   O     O_R   0.212490 0.042610 0.329590 -0.527062
O13   O     O_3   0.832180 0.667810 0.250040 -0.278639
O14   O     O_R   0.765670 0.292090 0.675090 -0.486531
O15   O     O_R   0.234330 0.292090 0.324910 -0.455986
O16   O     O_R   0.265670 0.792090 0.675090 -0.486528
O17   O     O_R   0.734330 0.792090 0.324910 -0.456026
O18   O     O_R   0.670220 0.409020 0.668560 -0.555935
O19   O     O_R   0.329780 0.409020 0.331440 -0.550102
O20   O     O_R   0.170220 0.909020 0.668560 -0.555938
O21   O     O_R   0.829780 0.909020 0.331440 -0.550095
O22   O     O_R   0.556580 0.251590 0.674980 -0.503243
O23   O     O_R   0.287510 0.542610 0.670410 -0.533502
O24   O     O_R   0.443420 0.251590 0.325020 -0.510070
O25   O     O_R   0.056580 0.751590 0.674980 -0.503240
O26   O     O_R   0.943420 0.751590 0.325020 -0.510076
O27   O     O_R   0.545890 0.049670 0.670030 -0.509398
O28   O     O_R   0.454110 0.049670 0.329970 -0.486614
O29   O     O_R   0.045890 0.549670 0.670030 -0.509400
O30   O     O_R   0.954110 0.549670 0.329970 -0.486615
O31   O     O_R   0.681340 0.957860 0.676500 -0.462324
O32   O     O_R   0.318660 0.957860 0.323500 -0.465849
O33   O     O_R   0.181340 0.457860 0.676500 -0.462336
O34   O     O_R   0.712490 0.542610 0.329590 -0.527114
O35   O     O_R   0.818660 0.457860 0.323500 -0.465839
O36   O     O_R   0.787380 0.044010 0.830940 -0.499791
O37   O     O_R   0.212620 0.044010 0.169060 -0.503571
O38   O     O_R   0.287380 0.544010 0.830940 -0.499815
O39   O     O_R   0.712620 0.544010 0.169060 -0.503552
O40   O     O_R   0.765540 0.293390 0.823910 -0.536863
O41   O     O_R   0.234460 0.293390 0.176090 -0.536341
O42   O     O_R   0.265540 0.793390 0.823910 -0.536859
O43   O     O_R   0.734460 0.793390 0.176090 -0.536350
O44   O     O_R   0.670090 0.410410 0.829090 -0.434495
O45   O     O_R   0.556450 0.252890 0.823790 -0.424359
O46   O     O_R   0.329910 0.410410 0.170910 -0.450108
O47   O     O_R   0.170090 0.910410 0.829090 -0.434500
O48   O     O_R   0.829910 0.910410 0.170910 -0.450057
O49   O     O_3   0.831463 0.106631 0.093617 -0.554806
O50   O     O_3   0.169464 0.107006 0.905583 -0.555199
O51   O     O_3   0.331488 0.606606 0.093604 -0.554853
O52   O     O_3   0.669446 0.606985 0.905591 -0.555212
O53   O     O_3   0.646525 0.799539 0.575861 -0.586039
O54   O     O_3   0.383454 0.914013 0.440220 -0.522061
O55   O     O_3   0.146531 0.299526 0.575863 -0.586071
O56   O     O_R   0.443550 0.252890 0.176210 -0.433613
O57   O     O_3   0.883454 0.414007 0.440219 -0.522059
O58   O     O_3   0.636353 0.810465 0.423289 -0.578118
O59   O     O_3   0.364113 0.934032 0.587125 -0.557308
O60   O     O_3   0.136360 0.310449 0.423280 -0.578107
O61   O     O_3   0.864113 0.434029 0.587124 -0.557301
O62   O     O_3   0.507542 0.383696 0.081109 -0.673636
O63   O     O_3   0.564146 0.379912 0.938818 -0.653162
O64   O     O_3   0.007568 0.883688 0.081126 -0.673649
O65   O     O_3   0.064184 0.879893 0.938832 -0.653242
O66   O     O_R   0.056450 0.752890 0.823790 -0.424349
O67   O     O_R   0.943550 0.752890 0.176210 -0.433577
O68   O     O_R   0.545750 0.051070 0.830560 -0.534886

loop_
_geom_bond_atom_site_label_1
_geom_bond_atom_site_label_2
_ccdc_geom_bond_type
C3    C104  A    
C44   C49   A    
Cr1   O36   S    
C21   C26   A    
Cr6   O38   S    
C69   H15   S    
C48   C95   S    
Cr3   O7    S    
Cr12  O5    S    
Cr9   O19   S    
C82   C99   S    
C57   C79   A    
C54   C101  S    
Cr3   O11   S    
C9    O54   S    
C11   H57   S    
C86   O23   A    
C72   C76   A    
C35   C102  A    
C45   C93   S    
C36   O20   A    
C70   C88   S    
C69   C107  S    
C57   C62   A    
C33   H25   S    
C98   O37   A    
C108  C109  A    
C60   C64   A    
Cr11  O21   S    
C87   O34   A    
Cr10  O20   S    
C6    O51   S    
C38   C86   S    
C103  C110  A    
C11   O57   S    
C37   C85   S    
Cr5   O10   S    
C53   C103  S    
C4    O49   S    
H73   O64   S    
C14   O59   S    
C17   C39   A    
Cr11  O48   S    
C14   H62   S    
C92   O43   A    
C111  H12   S    
C12   H59   S    
C106  C107  A    
C95   O3    A    
C65   C70   A    
C13   O55   S    
C29   C33   A    
C8    O53   S    
C101  C106  A    
C27   H18   S    
C87   O35   A    
C89   O46   A    
C100  O39   A    
C67   C72   A    
C18   C102  A    
Cr5   O15   S    
C84   O31   A    
C78   H8    S    
C24   C29   A    
C15   H66   S    
C105  C109  A    
C16   H69   S    
C8    H44   S    
C110  C111  A    
C99   O38   A    
C76   H6    S    
C78   C83   A    
Cr1   O40   S    
C12   H58   S    
C6    H38   S    
C5    H35   S    
Cr3   O3    S    
C70   C74   A    
C3    H34   S    
Cr2   O2    S    
C9    H49   S    
C1    O18   A    
C94   O2    A    
Cr1   O1    S    
C43   H30   S    
C16   H68   S    
C42   C43   A    
C100  O8    A    
C49   C50   A    
C8    H47   S    
C58   H14   S    
C96   O67   A    
C22   C47   S    
C7    H41   S    
Cr5   O37   S    
C69   H13   S    
C31   H22   S    
C61   H75   S    
C85   O32   A    
C12   O58   S    
Cr1   O14   S    
C2    O54   S    
C28   C32   A    
Cr4   O4    S    
C8    H46   S    
C81   C98   S    
C96   O4    A    
C57   H45   S    
C50   O63   S    
C62   O49   S    
C10   H52   S    
C40   C45   A    
C74   H4    S    
C86   O33   A    
C32   C37   A    
C62   C66   A    
C27   C31   A    
C34   C39   A    
C20   C24   A    
C71   H76   S    
H71   O62   S    
C44   C94   S    
C24   C25   S    
C56   C104  S    
H74   O65   S    
C61   C83   A    
Cr8   O44   S    
C41   H28   S    
C14   H61   S    
C30   C34   A    
C91   C109  S    
C95   O66   A    
C66   C92   S    
C68   C73   A    
C73   H3    S    
C29   H20   S    
C75   H5    S    
C46   C51   A    
Cr11  O26   S    
C67   C90   S    
C17   C21   A    
C80   H9    S    
Cr2   O6    S    
C40   H27   S    
C72   H2    S    
Cr6   O11   S    
C58   C106  S    
C5    H37   S    
Cr7   O13   S    
C19   C23   A    
C66   C71   A    
C63   C67   A    
C93   O45   A    
C94   O56   A    
C64   O51   S    
C47   O17   A    
Cr7   O34   S    
C54   O24   A    
C4    H33   S    
C25   O15   A    
C3    C112  A    
C49   O62   S    
C5    H36   S    
C90   O47   A    
C42   H29   S    
C59   H56   S    
C68   C89   S    
C56   O30   A    
C9    H50   S    
C11   H54   S    
C42   C48   A    
C23   C28   A    
C10   H51   S    
C63   O50   S    
C54   O28   A    
C13   C38   A    
Cr4   O8    S    
C60   C82   A    
C92   O48   A    
C19   O59   S    
C16   O61   S    
C10   O55   S    
C18   O58   S    
C21   O61   S    
C40   C41   A    
C4    H32   S    
C7    H42   S    
C20   O60   S    
C26   C30   A    
C22   C27   A    
C90   O42   A    
Cr8   O18   S    
C74   C78   A    
C1    C26   S    
C41   C44   A    
C89   O41   A    
C25   O19   A    
C11   H55   S    
Cr8   O45   S    
C17   O57   S    
C85   O12   A    
C64   C68   A    
Cr3   O33   S    
Cr12  O27   S    
Cr10  O66   S    
Cr9   O56   S    
C97   O36   A    
C51   O64   S    
Cr8   O9    S    
C84   O1    A    
C7    H43   S    
Cr9   O46   S    
Cr8   O22   S    
C13   C20   A    
Cr4   O30   S    
C2    C19   A    
C18   C22   A    
C10   H53   S    
C39   C87   S    
C5    O50   S    
C105  C112  A    
H72   O63   S    
C77   H7    S    
C59   C81   A    
C6    H40   S    
Cr4   O13   S    
C76   C81   A    
C88   O44   A    
C103  C107  A    
C35   C84   S    
C58   C69   S    
C79   C97   S    
C55   O25   A    
C32   H24   S    
C93   O68   A    
C58   H11   S    
C101  C111  A    
C15   H64   S    
C80   C108  S    
C55   O29   A    
C59   C63   A    
C33   C38   A    
C112  H23   S    
C56   O26   A    
C7    O52   S    
C83   C100  S    
C102  O53   S    
Cr2   O10   S    
C80   C91   S    
Cr11  O13   S    
C53   O22   A    
Cr1   O9    S    
C51   C52   A    
Cr5   O12   S    
Cr11  O67   S    
C80   H16   S    
C53   O27   A    
Cr9   O10   S    
C71   C75   A    
C14   H63   S    
Cr10  O25   S    
C2    C37   A    
Cr7   O39   S    
C12   H60   S    
C91   H10   S    
C75   C79   A    
C77   C82   A    
C28   H19   S    
C60   H67   S    
Cr4   O35   S    
C55   C105  S    
Cr9   O24   S    
Cr12  O68   S    
C52   O65   S    
C31   C35   A    
C34   H26   S    
C15   H65   S    
C43   C46   A    
Cr3   O29   S    
Cr12  O31   S    
C16   H70   S    
Cr6   O23   S    
C110  H1    S    
Cr2   O28   S    
C30   H21   S    
C61   C65   A    
C48   C52   A    
C4    H31   S    
C46   C96   S    
C6    H39   S    
C104  C108  A    
C23   C36   S    
Cr12  O9    S    
C65   O52   S    
C99   O7    A    
C1    O14   A    
Cr7   O17   S    
C73   C77   A    
Cr10  O11   S    
C98   O6    A    
C9    H48   S    
Cr6   O16   S    
C45   C50   A    
C97   O5    A    
Cr7   O43   S    
Cr2   O32   S    
C47   O21   A    
C36   O16   A    
C15   O60   S    
Cr6   O42   S    
Cr5   O41   S    
Cr10  O47   S    
C91   H17   S    
C88   O40   A    
