data_mof_unit_37829.cif
_audit_creation_date              2012-10-26T21:07:45-0400
_audit_creation_method            fapswitch 2.2
_symmetry_space_group_name_H-M    P1
_symmetry_Int_Tables_number       1
_space_group_crystal_system       triclinic
_cell_length_a                    11.087994
_cell_length_b                    9.09314
_cell_length_c                    7.792067
_cell_angle_alpha                 89.956996
_cell_angle_beta                  103.012265
_cell_angle_gamma                 89.92768
_cell_volume                      765.458070561

loop_
_atom_site_label
_atom_site_type_symbol
_atom_type_description
_atom_site_fract_x
_atom_site_fract_y
_atom_site_fract_z
_atom_type_partial_charge
C1    C     C_R   0.499851 0.220051 0.499995 0.571037
C2    C     C_1   0.500051 0.934622 0.499961 0.017999
C3    C     C_R   0.500149 0.779949 0.500005 0.571039
C4    C     C_R   0.262421 0.504739 0.428864 0.575500
C5    C     C_R   0.737579 0.495261 0.571136 0.575500
C6    C     C_2   0.128242 0.494983 0.387207 -0.043874
C7    C     C_2   0.871758 0.505016 0.612793 -0.043874
C8    C     C_2   0.061074 0.535914 0.503082 0.202779
C9    C     C_2   0.938926 0.464086 0.496918 0.202778
C10   C     C_1   0.499949 0.065378 0.500039 0.017998
Cu1   Cu    Cu3+1 0.500010 0.500000 0.669080 1.159957
Cu2   Cu    Cu3+1 0.499990 0.500000 0.330920 1.159956
H1    H     H_    0.912122 0.566623 0.730460 0.162354
H2    H     H_    0.087878 0.433377 0.269539 0.162346
H3    H     H_    0.975789 0.122438 0.263048 0.388813
H4    H     H_    0.024221 0.877585 0.736915 0.388824
N1    N     N_1   0.499980 0.500000 0.076820 -0.044584
N2    N     N_1   0.500020 0.500000 0.923180 -0.044584
O1    O     O_R   0.500010 0.288400 0.642760 -0.502990
O2    O     O_2   0.840928 0.368946 0.168105 -0.277361
O3    O     O_3   0.008194 0.197082 0.354260 -0.527091
O4    O     O_2   0.159075 0.631054 0.831894 -0.277347
O5    O     O_2   0.211765 0.774273 0.591960 -0.261566
O6    O     O_3   0.991807 0.802916 0.645745 -0.527098
O7    O     O_R   0.499990 0.711600 0.357240 -0.502989
O8    O     O_R   0.499990 0.288400 0.357240 -0.482146
O9    O     O_R   0.500010 0.711600 0.642760 -0.482146
O10   O     O_R   0.320690 0.500000 0.590310 -0.450704
O11   O     O_R   0.679310 0.500000 0.409690 -0.450703
O12   O     O_R   0.320680 0.500000 0.304730 -0.502425
O13   O     O_R   0.679320 0.500000 0.695270 -0.502424
O14   O     O_2   0.788233 0.225728 0.408037 -0.261553
S1    S     S_3+6 0.888579 0.311763 0.351996 0.014288
S2    S     S_3+6 0.111421 0.688237 0.648004 0.014290

loop_
_geom_bond_atom_site_label_1
_geom_bond_atom_site_label_2
_ccdc_geom_bond_type
Cu2   N1    S    
C7    H1    S    
Cu1   Cu2   S    
Cu1   N2    S    
Cu2   O11   S    
C6    H2    S    
C5    C7    S    
Cu1   O9    S    
Cu2   O7    S    
O5    S2    D    
O14   S1    D    
C3    O9    A    
N1    N2    T    
Cu1   O13   S    
H4    O6    S    
C8    S2    S    
C9    S1    S    
Cu1   O1    S    
Cu1   O10   S    
O2    S1    D    
C4    O10   A    
C2    C3    S    
C5    O11   A    
C1    O8    A    
O4    S2    D    
C4    O12   A    
C1    O1    A    
O3    S1    S    
C2    C10   T    
H3    O3    S    
C3    O7    A    
C4    C6    S    
C7    C9    D    
C6    C8    D    
Cu2   O12   S    
O6    S2    S    
C1    C10   S    
Cu2   O8    S    
C8    C9    S    
C5    O13   A    
