data_mof_unit_54767.cif
_audit_creation_date              2012-12-11T16:51:02-0500
_audit_creation_method            fapswitch 2.2
_symmetry_space_group_name_H-M    P1
_symmetry_Int_Tables_number       1
_space_group_crystal_system       triclinic
_cell_length_a                    6.939383
_cell_length_b                    28.79408
_cell_length_c                    32.228288
_cell_angle_alpha                 100.963517
_cell_angle_beta                  89.689921
_cell_angle_gamma                 90.880183
_cell_volume                      6321.33627487

loop_
_atom_site_label
_atom_site_type_symbol
_atom_type_description
_atom_site_fract_x
_atom_site_fract_y
_atom_site_fract_z
_atom_type_partial_charge
O1    O     O_R   0.494350 0.453170 0.452520 -0.555620
O2    O     O_R   0.820980 0.455850 0.538220 -0.528066
O3    O     O_R   0.994300 0.546830 0.547480 -0.538389
C1    C     C_R   0.651253 0.446203 0.551784 0.677225
O4    O     O_R   0.823860 0.447590 0.452270 -0.505626
O5    O     O_R   0.997200 0.538510 0.460920 -0.524202
C2    C     C_R   0.654415 0.435650 0.436152 0.752804
O6    O     O_R   0.491440 0.461490 0.539080 -0.534104
O7    O     O_3   0.661790 0.529840 0.502940 -0.379428
V1    V     V_3+5 0.935470 0.494460 0.499450 1.541886
O8    O     O_R   0.327090 0.544150 0.461780 -0.552100
C3    C     C_R   0.159313 0.554224 0.448092 0.723706
O9    O     O_R   0.324210 0.552410 0.547730 -0.559284
C4    C     C_R   0.156036 0.564200 0.564211 0.686245
V2    V     V_3+5 0.435840 0.505540 0.500550 1.457248
O10   O     O_3   0.159650 0.470160 0.497060 -0.351874
C5    C     C_R   0.201049 0.896691 0.866904 -0.039067
C6    C     C_R   0.208228 0.859169 0.830885 -0.028398
C7    C     C_R   0.058058 0.824530 0.823996 -0.006974
C8    C     C_R   0.905446 0.827576 0.853015 -0.099211
H1    H     H_    0.788983 0.801638 0.848038 0.119720
C9    C     C_R   0.898894 0.864011 0.888380 -0.078116
H2    H     H_    0.779107 0.864598 0.910155 0.146580
C10   C     C_R   0.045145 0.898757 0.896215 -0.143648
C11   C     C_R   0.041882 0.738015 0.790774 -0.241551
H3    H     H_    0.027867 0.730137 0.822244 0.120485
C12   C     C_R   0.048894 0.700686 0.755475 -0.007783
C13   C     C_R   0.074996 0.711298 0.714439 0.049630
C14   C     C_R   0.078943 0.758849 0.709889 -0.181690
H4    H     H_    0.095806 0.767705 0.678858 0.138786
C15   C     C_R   0.067321 0.795428 0.745158 -0.119618
H5    H     H_    0.072337 0.831727 0.740581 0.151192
C16   C     C_R   0.055067 0.785450 0.786066 0.062152
C17   C     C_R   0.966758 0.666991 0.644421 -0.087297
H6    H     H_    0.839664 0.688804 0.647700 0.144832
C18   C     C_R   0.986074 0.631587 0.608628 -0.109914
H7    H     H_    0.874095 0.627566 0.584863 0.139393
C19   C     C_R   0.145869 0.601623 0.603280 -0.202001
C20   C     C_R   0.289826 0.607900 0.635288 -0.044107
C21   C     C_R   0.273618 0.645208 0.671015 0.430958
C22   C     C_R   0.107206 0.674066 0.676065 -0.008963
C23   C     C_R   0.102268 0.655711 0.281867 0.584412
N1    N     N_R   0.104337 0.675689 0.323968 -0.555237
C24   C     C_R   0.092193 0.723631 0.337188 0.626779
C25   C     C_R   0.080421 0.753997 0.307505 -0.127084
C26   C     C_R   0.074133 0.733601 0.263778 -0.045936
C27   C     C_R   0.073288 0.683782 0.250659 -0.160031
C28   C     C_R   0.079981 0.804131 0.319870 0.370378
C29   C     C_R   0.089761 0.832533 0.289362 -0.124441
C30   C     C_R   0.081794 0.812824 0.246215 -0.096931
C31   C     C_R   0.068827 0.763262 0.233221 -0.053387
C32   C     C_R   0.051623 0.743650 0.189767 -0.137300
C33   C     C_R   0.048531 0.693732 0.176738 0.384046
C34   C     C_R   0.051315 0.663986 0.206877 -0.109163
C35   C     C_R   0.083188 0.841914 0.215709 0.593042
N2    N     N_R   0.055135 0.822765 0.173936 -0.572204
C36   C     C_R   0.031247 0.774878 0.160859 0.576170
O11   O     O_2   0.134571 0.608958 0.270531 -0.504730
O12   O     O_2   0.097375 0.741610 0.378971 -0.478448
H8    H     H_    0.095046 0.870586 0.299881 0.200299
O13   O     O_2   0.109746 0.889069 0.227757 -0.495173
O14   O     O_2   0.985228 0.757928 0.120139 -0.483743
C37   C     C_R   0.205199 0.852584 0.113593 -0.003028
C38   C     C_R   0.195981 0.880467 0.081815 0.356513
C39   C     C_R   0.039106 0.911440 0.081022 -0.217208
C40   C     C_R   0.888926 0.911729 0.110351 -0.152711
H9    H     H_    0.768365 0.935021 0.109513 0.185928
C41   C     C_R   0.892070 0.882909 0.140947 0.041861
C42   C     C_R   0.051487 0.853348 0.142949 0.153578
C43   C     C_R   0.287201 0.647781 0.380906 0.432142
C44   C     C_R   0.296108 0.620346 0.412990 -0.145306
C45   C     C_R   0.150856 0.585483 0.415691 -0.378408
C46   C     C_R   0.994034 0.580621 0.386815 0.397550
C47   C     C_R   0.971865 0.612494 0.359394 0.442230
C48   C     C_R   0.121053 0.645332 0.355009 0.053225
C49   C     C_R   0.412901 0.200391 0.817726 0.647363
N3    N     N_R   0.568695 0.172000 0.820747 -0.542960
C50   C     C_R   0.689242 0.164183 0.786087 0.713435
C51   C     C_R   0.716037 0.199070 0.761097 -0.123389
C52   C     C_R   0.575488 0.234443 0.763314 -0.096740
C53   C     C_R   0.419918 0.234878 0.791521 -0.085112
C54   C     C_R   0.872760 0.198204 0.732445 0.408275
C55   C     C_R   0.878375 0.229916 0.704742 -0.112567
C56   C     C_R   0.735352 0.263954 0.705527 -0.064047
C57   C     C_R   0.583769 0.266930 0.735278 0.032192
C58   C     C_R   0.438784 0.301262 0.736052 -0.108034
C59   C     C_R   0.288106 0.303714 0.766778 -0.156780
C60   C     C_R   0.279805 0.270460 0.794305 0.386785
C61   C     C_R   0.742145 0.295289 0.677097 0.676148
N4    N     N_R   0.600501 0.327757 0.677264 -0.537535
C62   C     C_R   0.448814 0.330731 0.705043 0.606946
O15   O     O_2   0.246909 0.193377 0.837733 -0.439484
O16   O     O_2   0.760528 0.120862 0.771744 -0.456190
H10   H     H_    0.998674 0.228214 0.682943 0.179162
O17   O     O_2   0.888895 0.293195 0.649162 -0.502459
O18   O     O_2   0.307339 0.361287 0.701622 -0.511467
C63   C     C_R   0.713878 0.401781 0.655086 0.010557
C64   C     C_R   0.733831 0.429613 0.623296 -0.169975
C65   C     C_R   0.639107 0.415474 0.583957 -0.214991
C66   C     C_R   0.530192 0.372546 0.575781 0.390012
C67   C     C_R   0.514490 0.344202 0.607070 -0.074727
C68   C     C_R   0.609217 0.358314 0.646324 0.195878
C69   C     C_R   0.727518 0.111920 0.858467 0.425377
C70   C     C_R   0.695840 0.078342 0.884673 0.239461
C71   C     C_R   0.556157 0.086752 0.917483 -0.325387
C72   C     C_R   0.454196 0.129795 0.923792 -0.165037
C73   C     C_R   0.480761 0.161217 0.895280 0.410424
C74   C     C_R   0.588603 0.147355 0.857109 0.081890
C75   C     C_R   0.675053 0.143515 0.102233 0.241029
C76   C     C_R   0.678386 0.180399 0.138735 0.350143
C77   C     C_R   0.547842 0.178676 0.172544 -0.000879
C78   C     C_R   0.383303 0.150096 0.161319 0.020888
C79   C     C_R   0.404261 0.106981 0.133107 -0.198341
C80   C     C_R   0.544061 0.104540 0.100644 -0.235001
C81   C     C_R   0.411487 0.219500 0.245604 0.399536
C82   C     C_R   0.424430 0.257113 0.280793 -0.343659
H11   H     H_    0.304657 0.264213 0.302691 0.176067
C83   C     C_R   0.592077 0.284933 0.288641 -0.061601
C84   C     C_R   0.755010 0.272564 0.263371 0.368504
C85   C     C_R   0.744553 0.233476 0.229548 0.287368
C86   C     C_R   0.564876 0.211788 0.215739 -0.013646
C87   C     C_R   0.728713 0.320651 0.358569 -0.183808
H12   H     H_    0.811575 0.288675 0.356477 0.144415
C88   C     C_R   0.749189 0.357060 0.394153 0.372483
C89   C     C_R   0.640088 0.398430 0.397256 -0.226734
C90   C     C_R   0.511913 0.403203 0.363993 -0.142673
C91   C     C_R   0.493060 0.366272 0.328158 0.432007
C92   C     C_R   0.602319 0.324569 0.325704 0.008457
O19   O     O_R   0.699170 0.038480 0.960880 -0.522293
O20   O     O_R   0.366800 0.052460 0.047690 -0.550631
O21   O     O_R   0.193520 0.961530 0.039110 -0.536401
C93   C     C_R   0.535907 0.065029 0.063400 0.690422
O22   O     O_R   0.369630 0.044100 0.961740 -0.548890
O23   O     O_R   0.196370 0.953120 0.952550 -0.552032
C94   C     C_R   0.539787 0.054111 0.948271 0.708715
O24   O     O_R   0.696320 0.046890 0.047450 -0.528498
O25   O     O_3   0.528890 0.970170 0.997080 -0.362284
V3    V     V_3+5 0.255190 0.005530 0.000540 1.465976
O26   O     O_R   0.866460 0.947530 0.952310 -0.525817
C95   C     C_R   0.035027 0.935823 0.935706 0.684439
O27   O     O_R   0.863630 0.955880 0.038270 -0.532268
C96   C     C_R   0.031785 0.944799 0.050873 0.710158
V4    V     V_3+5 0.754830 0.994440 0.999470 1.516009
O28   O     O_3   0.031000 0.029830 0.002920 -0.362541
C97   C     C_2   0.353793 0.934081 0.873804 0.484842
H13   H     H_    0.314482 0.971032 0.882131 0.034312
O29   O     O_2   0.524100 0.923875 0.871847 -0.529820
C98   C     C_2   0.451113 0.573937 0.632949 0.477427
H14   H     H_    0.433059 0.537755 0.616196 0.022029
O30   O     O_2   0.605881 0.585744 0.649848 -0.495452
O31   O     O_3   0.419153 0.651348 0.700855 -0.601963
H15   H     H_    0.408310 0.682608 0.719677 0.284966
O32   O     O_3   0.070992 0.826871 0.361397 -0.592352
H16   H     H_    0.955255 0.814071 0.373748 0.340734
O33   O     O_3   0.041441 0.672899 0.134570 -0.568964
H17   H     H_    0.150502 0.686497 0.120587 0.342086
C99   C     C_2   0.019206 0.612341 0.191798 0.619760
H18   H     H_    0.925682 0.592536 0.209424 0.079007
O34   O     O_2   0.096153 0.591457 0.159580 -0.463722
C100  C     C_2   0.374429 0.821973 0.116464 0.549771
H19   H     H_    0.394527 0.806311 0.144158 0.004877
O35   O     O_2   0.494189 0.813734 0.088236 -0.479038
O36   O     O_3   0.341064 0.876505 0.051908 -0.598391
H20   H     H_    0.283865 0.879739 0.024530 0.292727
C101  C     C_2   0.371765 0.855153 0.800363 0.446439
H21   H     H_    0.427147 0.820562 0.786614 0.034430
O37   O     O_2   0.439924 0.889927 0.788806 -0.484702
C102  C     C_2   0.726939 0.883643 0.170592 0.483291
H22   H     H_    0.716063 0.858117 0.191295 0.043026
O38   O     O_2   0.599624 0.912761 0.172183 -0.518079
O39   O     O_3   0.440022 0.677996 0.376722 -0.579360
H23   H     H_    0.436209 0.686743 0.348500 0.309377
C103  C     C_2   0.453726 0.630137 0.444770 0.603029
H24   H     H_    0.426772 0.626979 0.477303 -0.009995
O40   O     O_2   0.615065 0.641983 0.435147 -0.486498
O41   O     O_3   0.856673 0.545073 0.384580 -0.595785
H25   H     H_    0.923298 0.515663 0.387454 0.301093
O42   O     O_3   0.803440 0.609169 0.336219 -0.574366
H26   H     H_    0.786993 0.638382 0.324754 0.308837
O43   O     O_3   0.027221 0.168427 0.731495 -0.610492
H27   H     H_    0.049078 0.162968 0.760507 0.351070
C104  C     C_2   0.140171 0.341102 0.771536 0.506499
H28   H     H_    0.182083 0.377648 0.772097 0.118532
O44   O     O_2   0.970008 0.331431 0.775542 -0.499929
O45   O     O_3   0.141296 0.273507 0.825689 -0.584441
H29   H     H_    0.117864 0.307268 0.837511 0.321172
C105  C     C_2   0.789978 0.420282 0.698395 0.544004
H30   H     H_    0.809791 0.458039 0.709396 0.080671
O46   O     O_2   0.831193 0.394049 0.722463 -0.497109
C106  C     C_2   0.854027 0.473813 0.630618 0.416077
H31   H     H_    0.809942 0.504230 0.617861 0.072447
O47   O     O_2   0.007696 0.475906 0.649220 -0.517470
O48   O     O_3   0.441737 0.356551 0.537182 -0.589023
H32   H     H_    0.501039 0.371828 0.515139 0.296820
C107  C     C_2   0.400408 0.298955 0.599170 0.599027
H33   H     H_    0.405795 0.274927 0.621266 0.011656
O49   O     O_2   0.296655 0.287900 0.568287 -0.461030
O50   O     O_3   0.903534 0.114261 0.838612 -0.575282
H34   H     H_    0.994244 0.091499 0.847010 0.350929
O51   O     O_3   0.806763 0.038121 0.877534 -0.630443
H35   H     H_    0.729837 0.011539 0.884803 0.322392
C108  C     C_2   0.333053 0.144394 0.962234 0.595780
H36   H     H_    0.361676 0.131133 0.990885 -0.009771
O52   O     O_2   0.198490 0.171239 0.962263 -0.466989
O53   O     O_3   0.423010 0.207403 0.908558 -0.559912
H37   H     H_    0.510055 0.228363 0.895665 0.314939
O54   O     O_3   0.798369 0.147149 0.069125 -0.639705
H38   H     H_    0.741775 0.129930 0.042375 0.298356
O55   O     O_3   0.790055 0.220849 0.140060 -0.585473
H39   H     H_    0.863971 0.218950 0.113478 0.366572
C109  C     C_2   0.203683 0.174735 0.154982 0.580637
H40   H     H_    0.074084 0.154471 0.144538 0.066017
O56   O     O_2   0.201822 0.217776 0.158640 -0.481263
C110  C     C_2   0.272314 0.066583 0.136640 0.453205
H41   H     H_    0.292239 0.032048 0.116931 0.060459
O57   O     O_2   0.143211 0.070970 0.162951 -0.518310
O58   O     O_3   0.258842 0.187832 0.242318 -0.615145
H42   H     H_    0.175273 0.195884 0.267659 0.318391
O59   O     O_3   0.924897 0.297785 0.273716 -0.621178
H43   H     H_    0.021722 0.288133 0.251152 0.355833
O60   O     O_3   0.914372 0.213223 0.214515 -0.601819
H44   H     H_    0.891848 0.178521 0.207339 0.304188
O61   O     O_3   0.871317 0.352382 0.426807 -0.623358
H45   H     H_    0.937022 0.321527 0.419734 0.304209
C111  C     C_2   0.406360 0.448219 0.365408 0.541289
H46   H     H_    0.464224 0.481253 0.383156 0.030138
O62   O     O_2   0.252983 0.449004 0.347180 -0.482984
O63   O     O_3   0.373202 0.373176 0.295702 -0.578573
H47   H     H_    0.390862 0.348043 0.270511 0.321730
C112  C     C_2   0.026970 0.651676 0.763281 0.463770
H48   H     H_    0.035914 0.645276 0.795336 0.043080
O64   O     O_2   0.993051 0.618203 0.734714 -0.482901

loop_
_geom_bond_atom_site_label_1
_geom_bond_atom_site_label_2
_ccdc_geom_bond_type
C40   C41   A    
C28   O32   S    
C21   C22   A    
C85   O60   S    
C81   C86   A    
C77   C86   S    
C46   C47   A    
O2    C1    A    
C7    C8    A    
O39   H23   S    
C23   O11   S    
C59   C104  S    
C63   C64   A    
O45   H29   S    
C36   O14   S    
C60   O45   S    
C57   C58   A    
C82   H11   S    
C39   C40   A    
N2    C42   S    
C101  H21   S    
C29   H8    S    
C108  O52   D    
C55   C56   A    
C79   C110  S    
C12   C13   A    
C13   C14   A    
C98   O30   D    
C6    C7    A    
O24   V4    S    
C58   C62   A    
O27   V4    S    
C37   C42   A    
C19   C20   A    
C110  O57   D    
C72   C108  S    
C72   C73   A    
C24   O12   S    
V2    O10   S    
C13   C22   S    
N2    C36   A    
C17   H6    S    
C75   O54   S    
C83   C84   A    
N4    C68   S    
C44   C103  S    
C62   O18   S    
O19   C94   A    
C102  H22   S    
O8    V2    S    
C83   C92   S    
C99   H18   S    
O36   H20   S    
C41   C42   A    
C20   C98   S    
O31   H15   S    
C15   C16   A    
O21   V3    S    
O50   H34   S    
O1    V2    S    
C14   H4    S    
O7    V1    S    
C17   C18   A    
C63   C68   A    
O48   H32   S    
C1    O6    A    
C71   C94   S    
C102  O38   D    
C40   H9    S    
C3    C45   S    
O22   V3    S    
C101  O37   D    
O1    C2    A    
O9    C4    A    
C45   C46   A    
C84   O59   S    
C70   O51   S    
C17   C22   A    
O26   V4    S    
C37   C100  S    
C38   O36   S    
O5    C3    A    
C9    H2    S    
C70   C71   A    
C97   O29   D    
C6    C101  S    
C97   H13   S    
C87   H12   S    
C103  O40   D    
N1    C48   S    
O33   H17   S    
C5    C10   A    
O7    V2    S    
C108  H36   S    
C31   C32   A    
C67   C68   A    
O42   H26   S    
C49   N3    A    
O61   H45   S    
O55   H39   S    
C47   C48   A    
O59   H43   S    
O4    C2    A    
C110  H41   S    
O51   H35   S    
C107  H33   S    
C30   C31   A    
O58   H42   S    
C103  H24   S    
C55   H10   S    
C26   C31   A    
C54   C55   A    
C10   C95   S    
O54   H38   S    
C21   O31   S    
C69   O50   S    
C100  O35   D    
C61   O17   S    
O20   C93   A    
N1    C24   A    
C78   C109  S    
C109  H40   S    
O5    V1    S    
C52   C57   A    
C4    C19   S    
O60   H44   S    
C12   C112  S    
C15   H5    S    
C47   O42   S    
C88   O61   S    
C93   O24   A    
C35   N2    A    
C5    C6    A    
C76   C77   A    
C11   H3    S    
C32   C33   A    
C56   C57   A    
C84   C85   A    
C112  O64   D    
O3    C4    A    
C43   C44   A    
O21   C96   A    
C64   C106  S    
C49   O15   S    
C27   C34   A    
C75   C80   A    
O41   H25   S    
C109  O56   D    
C8    C9    A    
C33   O33   S    
O6    V2    S    
O9    V2    S    
C7    C16   S    
C91   O63   S    
C29   C30   A    
C9    C10   A    
C51   C52   A    
C90   C111  S    
C106  H31   S    
C56   C61   A    
C73   C74   A    
C87   C88   A    
C91   C92   A    
O2    V1    S    
C41   C102  S    
C20   C21   A    
C85   C86   A    
C58   C59   A    
C79   C80   A    
O25   V3    S    
C25   C28   A    
C63   C105  S    
O53   H37   S    
C26   C27   A    
C18   H7    S    
C106  O47   D    
C77   C78   A    
C111  H46   S    
C50   C51   A    
C80   C93   S    
N3    C74   S    
C24   C25   A    
C30   C35   A    
C52   C53   A    
C5    C97   S    
O23   V3    S    
C51   C54   A    
O26   C95   A    
C87   C92   A    
C33   C34   A    
O19   V4    S    
C11   C12   A    
C71   C72   A    
C49   C53   A    
C65   C66   A    
C73   O53   S    
C100  H19   S    
C66   O48   S    
C46   O41   S    
C18   C19   A    
V4    O28   S    
C61   N4    A    
C67   C107  S    
O4    V1    S    
C14   C15   A    
O3    V1    S    
V1    O10   S    
O27   C96   A    
C38   C39   A    
C34   C99   S    
O23   C95   A    
C39   C96   S    
N4    C62   A    
C89   C90   A    
V3    O28   S    
C90   C91   A    
C28   C29   A    
C35   O13   S    
C66   C67   A    
C111  O62   D    
C82   C83   A    
C78   C79   A    
C98   H14   S    
C2    C89   S    
C43   O39   S    
O25   V4    S    
C112  H48   S    
C104  O44   D    
C105  O46   D    
C53   C60   A    
C32   C36   A    
O63   H47   S    
C37   C38   A    
C76   O55   S    
C25   C26   A    
C44   C45   A    
C23   C27   A    
C8    H1    S    
C43   C48   A    
C59   C60   A    
C99   O34   D    
C64   C65   A    
C23   N1    A    
C1    C65   S    
C54   O43   S    
C69   C70   A    
O22   C94   A    
N3    C50   A    
C81   O58   S    
C69   C74   A    
C105  H30   S    
C50   O16   S    
C81   C82   A    
O32   H16   S    
C75   C76   A    
O43   H27   S    
C104  H28   S    
O8    C3    A    
C11   C16   A    
C88   C89   A    
C107  O49   D    
O20   V3    S    
