data_mof_unit_56015.cif
_audit_creation_date              2012-12-10T17:18:57-0500
_audit_creation_method            fapswitch 2.2
_symmetry_space_group_name_H-M    P1
_symmetry_Int_Tables_number       1
_space_group_crystal_system       triclinic
_cell_length_a                    10.250637
_cell_length_b                    10.85578
_cell_length_c                    13.471807
_cell_angle_alpha                 92.158741
_cell_angle_beta                  99.402067
_cell_angle_gamma                 95.559157
_cell_volume                      1469.84366728

loop_
_atom_site_label
_atom_site_type_symbol
_atom_type_description
_atom_site_fract_x
_atom_site_fract_y
_atom_site_fract_z
_atom_type_partial_charge
C1    C     C_R   0.053706 0.732226 0.495422 0.936051
C2    C     C_R   0.947965 0.268149 0.508500 0.941494
C3    C     C_R   0.486958 0.619327 0.102450 0.452541
C4    C     C_R   0.512639 0.379578 0.897623 0.453297
C5    C     C_R   0.349129 0.632576 0.083382 0.418469
C6    C     C_R   0.650499 0.366354 0.916683 0.418714
C7    C     C_2   0.087030 0.864441 0.499362 -0.355422
C8    C     C_2   0.921054 0.137267 0.519660 -0.362779
C9    C     C_2   0.997345 0.936240 0.523406 -0.124814
C10   C     C_2   0.021478 0.067709 0.521265 -0.132516
C11   C     C_2   0.429799 0.511238 0.506591 -0.027209
C12   C     C_2   0.570126 0.489619 0.492589 -0.026310
C13   C     C_R   0.092947 0.513987 0.686228 0.860092
C14   C     C_R   0.907015 0.485876 0.313770 0.865950
C15   C     C_R   0.143112 0.526114 0.794288 -0.099380
C16   C     C_R   0.856707 0.473342 0.205719 -0.101684
C17   C     C_R   0.143114 0.615032 0.960702 -0.117078
C18   C     C_R   0.856618 0.384122 0.039364 -0.116377
C19   C     C_R   0.077990 0.585860 0.862327 -0.224490
C20   C     C_R   0.921841 0.413550 0.137702 -0.224087
C21   C     C_R   0.267266 0.487325 0.827241 -0.100656
C22   C     C_R   0.732368 0.511735 0.172786 -0.100193
C23   C     C_R   0.331290 0.507446 0.926638 0.074478
C24   C     C_R   0.668334 0.491537 0.073403 0.074527
C25   C     C_R   0.272489 0.581059 0.992702 -0.019791
C26   C     C_R   0.727165 0.417952 0.007353 -0.020130
C27   C     C_R   0.460288 0.470467 0.955892 -0.150603
C28   C     C_R   0.539324 0.528472 0.044159 -0.151124
H1    H     H_    0.679500 0.545817 0.228518 0.184439
H2    H     H_    0.320017 0.453019 0.771516 0.184898
H3    H     H_    0.018152 0.381560 0.162202 0.194835
H4    H     H_    0.981776 0.618023 0.837840 0.195879
H5    H     H_    0.095080 0.671680 0.008590 0.188478
H6    H     H_    0.904686 0.327482 0.991490 0.188469
H7    H     H_    0.121780 0.106837 0.515841 0.217602
H8    H     H_    0.901700 0.898200 0.540213 0.229349
H9    H     H_    0.821037 0.097698 0.525130 0.176671
H10   H     H_    0.182264 0.902952 0.482239 0.176014
H11   H     H_    0.584738 0.416240 0.440414 0.197605
H12   H     H_    0.415127 0.585487 0.557950 0.198029
N1    N     N_2   0.322180 0.446120 0.460900 0.046941
N2    N     N_2   0.677820 0.553880 0.539100 0.048739
O1    O     O_R   0.935190 0.693030 0.507870 -0.557794
O2    O     O_R   0.064810 0.306970 0.492130 -0.554276
O3    O     O_R   0.142080 0.658430 0.482770 -0.635710
O4    O     O_R   0.857920 0.341570 0.517230 -0.635446
O5    O     O_R   0.969700 0.527180 0.651960 -0.573381
O6    O     O_R   0.030300 0.472820 0.348040 -0.573675
O7    O     O_R   0.176600 0.492580 0.626860 -0.642405
O8    O     O_R   0.823400 0.507420 0.373140 -0.640865
Zn1   Zn    Zn3+2 0.861850 0.523100 0.516760 1.029981
Zn2   Zn    Zn3+2 0.138150 0.476900 0.483240 1.029487
O9    O     O_3   0.297207 0.717066 0.141608 -0.606400
C29   C     C_3   0.226134 0.651956 0.208232 -0.301446
H13   H     H_    0.199984 0.719765 0.263513 0.200104
H14   H     H_    0.285459 0.585258 0.251462 0.191997
H15   H     H_    0.132051 0.602115 0.167605 0.166570
O10   O     O_3   0.702422 0.281753 0.858555 -0.606734
C30   C     C_3   0.773639 0.346749 0.791959 -0.300012
H16   H     H_    0.713516 0.411837 0.747467 0.192913
H17   H     H_    0.801799 0.278699 0.737822 0.199902
H18   H     H_    0.866618 0.398379 0.832764 0.166074
O11   O     O_3   0.575753 0.711769 0.158694 -0.600597
C31   C     C_3   0.551636 0.729494 0.258459 -0.177025
H19   H     H_    0.509601 0.643452 0.289118 0.135871
H20   H     H_    0.488181 0.805813 0.263798 0.232853
H21   H     H_    0.648081 0.759171 0.307868 0.179306
O12   O     O_3   0.423791 0.287045 0.841538 -0.600717
C32   C     C_3   0.447738 0.269099 0.741754 -0.178350
H22   H     H_    0.351266 0.239061 0.692490 0.175167
H23   H     H_    0.511422 0.192947 0.736491 0.233041
H24   H     H_    0.489402 0.355130 0.710868 0.137956
S1    S     S_3+6 0.669065 0.671109 0.627749 0.064099
O13   O     O_2   0.596782 0.772045 0.577267 -0.323293
O14   O     O_2   0.596509 0.620876 0.708433 -0.367137
O15   O     O_3   0.823008 0.730522 0.681316 -0.529255
H25   H     H_    0.809662 0.797738 0.729257 0.370358
S2    S     S_3+6 0.331061 0.327132 0.373820 0.066531
O16   O     O_2   0.401792 0.375963 0.291706 -0.367628
O17   O     O_2   0.405241 0.228072 0.425489 -0.323572
O18   O     O_3   0.177186 0.265497 0.322036 -0.517299
H26   H     H_    0.190699 0.197375 0.274987 0.371888

loop_
_geom_bond_atom_site_label_1
_geom_bond_atom_site_label_2
_ccdc_geom_bond_type
C22   H1    S    
S1    O13   D    
C6    O10   S    
C18   C26   A    
O1    Zn1   S    
O18   H26   S    
C14   O8    A    
O9    C29   S    
C2    O4    A    
C15   C19   A    
C22   C24   A    
C5    O9    S    
C3    C28   A    
C24   C26   A    
S2    O17   D    
C32   H23   S    
C12   N2    D    
C1    O1    A    
C2    O2    A    
O12   C32   S    
N2    S1    S    
C9    H8    S    
C10   H7    S    
C14   C16   S    
C23   C27   A    
C9    C10   S    
N1    Zn2   S    
N2    Zn1   S    
O2    Zn2   S    
C30   H16   S    
S1    O14   D    
C11   H12   S    
C17   H5    S    
C19   H4    S    
C29   H14   S    
C30   H17   S    
C31   H21   S    
O15   H25   S    
C4    C6    A    
N1    S2    S    
C13   O5    A    
S2    O16   D    
C14   O6    A    
O3    Zn2   S    
O10   C30   S    
O4    Zn1   S    
C31   H20   S    
C32   H24   S    
C15   C21   A    
C16   C20   A    
O7    Zn2   S    
O8    Zn1   S    
C18   H6    S    
C13   O7    A    
C21   C23   A    
S1    O15   S    
C5    C25   A    
C8    H9    S    
C4    C27   A    
C4    O12   S    
C7    C9    D    
C29   H13   S    
C30   H18   S    
C16   C22   A    
C1    C7    S    
C2    C8    S    
C24   C28   A    
C3    C5    A    
O5    Zn1   S    
C11   C12   S    
C3    O11   S    
C21   H2    S    
C17   C25   A    
C31   H19   S    
C12   H11   S    
C13   C15   S    
S2    O18   S    
C1    O3    A    
C6    C26   A    
C17   C19   A    
C7    H10   S    
C11   N1    D    
C18   C20   A    
C23   C25   A    
C32   H22   S    
O11   C31   S    
O6    Zn2   S    
C8    C10   D    
C27   C28   A    
C29   H15   S    
C20   H3    S    
