data_mof_unit_21379.cif
_audit_creation_date              2012-12-11T14:39:38-0500
_audit_creation_method            fapswitch 2.2
_symmetry_space_group_name_H-M    P1
_symmetry_Int_Tables_number       1
_space_group_crystal_system       triclinic
_cell_length_a                    7.194006
_cell_length_b                    14.454699
_cell_length_c                    16.185266
_cell_angle_alpha                 90.188993
_cell_angle_beta                  95.796912
_cell_angle_gamma                 89.678747
_cell_volume                      1674.42080588

loop_
_atom_site_label
_atom_site_type_symbol
_atom_type_description
_atom_site_fract_x
_atom_site_fract_y
_atom_site_fract_z
_atom_type_partial_charge
O1    O     O_R   0.525340 0.338340 0.164530 -0.543450
O2    O     O_R   0.474660 0.661660 0.835470 -0.540915
O3    O     O_R   0.974660 0.838340 0.835470 -0.544184
O4    O     O_R   0.025340 0.161660 0.164530 -0.544625
O5    O     O_R   0.253520 0.352000 0.336710 -0.540647
O6    O     O_R   0.746480 0.648000 0.663290 -0.542989
O7    O     O_R   0.246480 0.852000 0.663290 -0.541895
O8    O     O_R   0.753520 0.148000 0.336710 -0.544430
O9    O     O_R   0.083330 0.168380 0.337300 -0.534097
O10   O     O_R   0.916670 0.831620 0.662700 -0.530610
O11   O     O_R   0.416670 0.668380 0.662700 -0.531976
O12   O     O_R   0.583330 0.331620 0.337300 -0.530163
C1    C     C_R   0.431074 0.368738 0.363994 0.700554
C2    C     C_R   0.568939 0.631386 0.635877 0.691620
C3    C     C_R   0.068481 0.869496 0.636729 0.697380
C4    C     C_R   0.931578 0.131355 0.364113 0.680417
O13   O     O_R   0.195840 0.349670 0.165140 -0.550341
O14   O     O_R   0.804160 0.650330 0.834860 -0.553177
O15   O     O_R   0.304160 0.849670 0.834860 -0.545506
O16   O     O_R   0.695840 0.150330 0.165140 -0.554308
C5    C     C_R   0.360035 0.367397 0.135464 0.727815
C6    C     C_R   0.639197 0.626582 0.859050 0.731123
C7    C     C_R   0.141050 0.867215 0.865430 0.721057
C8    C     C_R   0.861992 0.126878 0.139636 0.729653
O17   O     O_3   0.387830 0.193120 0.250910 -0.382501
O18   O     O_3   0.612170 0.806880 0.749090 -0.374400
O19   O     O_3   0.112170 0.693120 0.749090 -0.386447
O20   O     O_3   0.887830 0.306880 0.250910 -0.377814
V1    V     V_3+5 0.113010 0.264540 0.250910 1.373980
V2    V     V_3+5 0.886990 0.735460 0.749090 1.378808
V3    V     V_3+5 0.386990 0.764540 0.749090 1.389595
V4    V     V_3+5 0.613010 0.235460 0.250910 1.363096
C9    C     C_R   0.065742 0.191579 0.530115 -0.142529
C10   C     C_R   0.940267 0.809217 0.471090 -0.142891
C11   C     C_R   0.433695 0.691146 0.470235 -0.143547
C12   C     C_R   0.566202 0.308981 0.529567 -0.143809
C13   C     C_R   0.131430 0.222886 0.609158 -0.109173
C14   C     C_R   0.878585 0.777541 0.391882 -0.101495
C15   C     C_R   0.366850 0.722100 0.391298 -0.106693
C16   C     C_R   0.633320 0.278023 0.608480 -0.107078
C17   C     C_R   0.165045 0.160576 0.674223 -0.135380
C18   C     C_R   0.844301 0.839838 0.327062 -0.146232
C19   C     C_R   0.332602 0.659473 0.326316 -0.136695
C20   C     C_R   0.668466 0.340764 0.673328 -0.138394
C21   C     C_R   0.133328 0.066428 0.660767 -0.139832
C22   C     C_R   0.869725 0.934264 0.340694 -0.157720
C23   C     C_R   0.364444 0.565273 0.339880 -0.141250
C24   C     C_R   0.636688 0.434951 0.659756 -0.140341
C25   C     C_R   0.068247 0.032418 0.581041 0.066326
C26   C     C_R   0.933239 0.968624 0.420339 0.075717
C27   C     C_R   0.430498 0.531601 0.419610 0.068227
C28   C     C_R   0.569981 0.468584 0.580117 0.069053
C29   C     C_R   0.033644 0.096286 0.514262 0.058866
C30   C     C_R   0.968737 0.904780 0.487016 0.057883
C31   C     C_R   0.466184 0.595816 0.486139 0.057730
C32   C     C_R   0.533983 0.404346 0.513635 0.056871
C33   C     C_R   0.034995 0.936705 0.567441 -0.179396
C34   C     C_R   0.965513 0.064443 0.433835 -0.175165
C35   C     C_R   0.464224 0.435898 0.433408 -0.178896
C36   C     C_R   0.535897 0.564268 0.566385 -0.175943
C37   C     C_2   0.140833 0.931939 0.936673 -0.367017
C38   C     C_2   0.870970 0.057018 0.073530 -0.356615
C39   C     C_2   0.365427 0.432090 0.066019 -0.359288
C40   C     C_2   0.631801 0.547096 0.913813 -0.365308
C41   C     C_2   0.010825 0.934678 0.993285 0.085183
C42   C     C_2   0.028283 0.007365 0.058970 0.095352
C43   C     C_2   0.522134 0.457346 0.029301 0.091293
C44   C     C_2   0.510160 0.539289 0.972857 0.094869
H1    H     H_    0.799118 0.814737 0.265768 0.120998
H2    H     H_    0.215244 0.185359 0.735592 0.112971
H3    H     H_    0.719815 0.316316 0.734624 0.115625
H4    H     H_    0.281619 0.684027 0.264996 0.115070
H5    H     H_    0.039415 0.243074 0.481945 0.118830
H6    H     H_    0.967625 0.757698 0.519165 0.116599
H7    H     H_    0.460538 0.742937 0.518296 0.116310
H8    H     H_    0.538705 0.257158 0.481579 0.117594
H9    H     H_    0.155519 0.295995 0.620037 0.130650
H10   H     H_    0.858578 0.704214 0.380632 0.129983
H11   H     H_    0.341816 0.795133 0.380546 0.128116
H12   H     H_    0.657397 0.204870 0.619414 0.131145
H13   H     H_    0.159729 0.020834 0.713580 0.105259
H14   H     H_    0.840724 0.979626 0.287933 0.091734
H15   H     H_    0.337457 0.519416 0.287121 0.105535
H16   H     H_    0.664183 0.480812 0.712467 0.101999
C45   C     C_3   0.217700 0.011891 0.111751 -0.301518
C46   C     C_3   0.210723 0.973653 0.200036 -0.296053
C47   C     C_3   0.406403 0.958728 0.244007 -0.742112
H17   H     H_    0.478785 0.902228 0.213289 0.213777
H18   H     H_    0.490414 0.022622 0.242875 0.257500
H19   H     H_    0.396602 0.939385 0.309706 0.213669
H20   H     H_    0.134225 0.021569 0.237958 0.210261
H21   H     H_    0.137650 0.906313 0.197589 0.174976
H22   H     H_    0.321677 0.968797 0.082606 0.157300
H23   H     H_    0.276070 0.082768 0.112631 0.189679
C48   C     C_3   0.852455 0.864898 0.997052 -0.287161
C49   C     C_3   0.815956 0.840872 0.087461 -0.343602
C50   C     C_3   0.653372 0.775440 0.090203 -0.841873
H24   H     H_    0.526349 0.806192 0.056068 0.233095
H25   H     H_    0.690503 0.708126 0.064005 0.237765
H26   H     H_    0.622803 0.762962 0.154877 0.217770
H27   H     H_    0.941937 0.808928 0.120886 0.190740
H28   H     H_    0.779956 0.902550 0.123198 0.203927
H29   H     H_    0.723237 0.894403 0.963589 0.167323
H30   H     H_    0.883938 0.799413 0.965969 0.189888
C51   C     C_3   0.386355 0.619430 0.995446 -0.345030
C52   C     C_3   0.181863 0.611373 0.958758 -0.242380
C53   C     C_3   0.052376 0.635512 0.024626 -0.844224
H31   H     H_    0.060895 0.583925 0.075372 0.224455
H32   H     H_    0.092309 0.703680 0.051936 0.233694
H33   H     H_    0.907320 0.638382 0.996014 0.229903
H34   H     H_    0.155237 0.661398 0.907097 0.219386
H35   H     H_    0.147827 0.541754 0.932334 0.182754
H36   H     H_    0.397213 0.624159 0.064449 0.179480
H37   H     H_    0.437775 0.686478 0.975304 0.165244
C54   C     C_3   0.713061 0.408220 0.043419 -0.284716
C55   C     C_3   0.710663 0.316952 0.994238 -0.306051
C56   C     C_3   0.907254 0.285361 0.979155 -0.798767
H38   H     H_    0.972573 0.336491 0.940057 0.217471
H39   H     H_    0.995630 0.277596 0.038788 0.250630
H40   H     H_    0.900228 0.217634 0.946442 0.217109
H41   H     H_    0.642087 0.262350 0.028238 0.198637
H42   H     H_    0.628763 0.325751 0.932681 0.185859
H43   H     H_    0.825397 0.453119 0.024323 0.152377
H44   H     H_    0.766008 0.399153 0.109284 0.199454
H45   H     H_    0.740841 0.043943 0.035207 0.114924
H46   H     H_    0.253454 0.982060 0.942138 0.108522
H47   H     H_    0.725244 0.490985 0.900988 0.121593
H48   H     H_    0.232201 0.462604 0.046305 0.138599

loop_
_geom_bond_atom_site_label_1
_geom_bond_atom_site_label_2
_ccdc_geom_bond_type
C47   H17   S    
O1    C5    A    
C19   H4    S    
C49   H28   S    
O13   V1    S    
O3    C7    A    
C48   C49   S    
O15   V3    S    
C42   C45   S    
C50   H24   S    
C52   H35   S    
C45   C46   S    
C11   H7    S    
C26   C30   A    
C55   H42   S    
C40   C44   D    
C51   H36   S    
O20   V1    S    
O9    C4    A    
C14   C18   A    
O10   C3    A    
C56   H39   S    
C11   C15   A    
O4    C8    A    
O11   C2    A    
C25   C29   A    
C52   C53   S    
C54   C55   S    
C25   C33   A    
C55   C56   S    
C20   H3    S    
C18   C22   A    
C43   C54   S    
C28   C36   A    
C22   H14   S    
C45   H22   S    
O16   C8    A    
O2    C6    A    
C53   H31   S    
C16   H12   S    
C37   H46   S    
O14   V2    S    
C23   H15   S    
C12   H8    S    
C16   C20   A    
O5    C1    A    
C39   H48   S    
O9    V1    S    
O17   V4    S    
O7    C3    A    
O11   V3    S    
O18   V3    S    
O8    C4    A    
C10   C14   A    
C31   C36   A    
O12   V4    S    
O19   V2    S    
C53   H32   S    
C50   H25   S    
C48   H29   S    
O5    V1    S    
C52   H34   S    
C9    C29   A    
C39   C43   D    
C54   H43   S    
C55   H41   S    
C38   C42   D    
C11   C31   A    
C43   C44   S    
C26   C34   A    
C51   H37   S    
C12   C16   A    
O7    V3    S    
C56   H40   S    
C46   C47   S    
C15   C19   A    
C14   H10   S    
C13   H9    S    
O1    V4    S    
O13   C5    A    
C24   H16   S    
O2    V3    S    
O8    V4    S    
O3    V2    S    
O15   C7    A    
C12   C32   A    
O6    C2    A    
C45   H23   S    
O10   V2    S    
C24   C28   A    
C40   H47   S    
C49   C50   S    
C21   C25   A    
C4    C34   S    
C10   H6    S    
C9    H5    S    
O6    V2    S    
C10   C30   A    
C47   H18   S    
C53   H33   S    
C27   C35   A    
C44   C51   S    
C50   H26   S    
C48   H30   S    
O16   V4    S    
C7    C37   S    
C8    C38   S    
C54   H44   S    
O14   C6    A    
C21   H13   S    
O4    V1    S    
C38   H45   S    
C23   C27   A    
C29   C34   A    
C1    C35   S    
C2    C36   S    
C51   C52   S    
C22   C26   A    
C32   C35   A    
C46   H20   S    
C46   H21   S    
C56   H38   S    
C28   C32   A    
C3    C33   S    
C27   C31   A    
C18   H1    S    
C13   C17   A    
C9    C13   A    
C5    C39   S    
C6    C40   S    
C37   C41   D    
C41   C48   S    
O12   C1    A    
C41   C42   S    
C47   H19   S    
C17   C21   A    
C49   H27   S    
C19   C23   A    
C20   C24   A    
C15   H11   S    
C17   H2    S    
C30   C33   A    
