data_mof_unit_20506.cif
_audit_creation_date              2012-12-11T14:49:51-0500
_audit_creation_method            fapswitch 2.2
_symmetry_space_group_name_H-M    P1
_symmetry_Int_Tables_number       1
_space_group_crystal_system       triclinic
_cell_length_a                    16.886874
_cell_length_b                    16.714767
_cell_length_c                    19.482694
_cell_angle_alpha                 117.851156
_cell_angle_beta                  62.245387
_cell_angle_gamma                 100.914395
_cell_volume                      4299.99336675

loop_
_atom_site_label
_atom_site_type_symbol
_atom_type_description
_atom_site_fract_x
_atom_site_fract_y
_atom_site_fract_z
_atom_type_partial_charge
C1    C     C_R   0.049362 0.757011 0.001835 0.303969
C2    C     C_R   0.251777 0.521128 0.827703 -0.122939
C3    C     C_R   0.183024 0.490548 0.088162 -0.138069
C4    C     C_R   0.764069 0.418461 0.164055 -0.149106
C5    C     C_R   0.987108 0.339366 0.759561 -0.220583
C6    C     C_R   0.257217 0.541164 0.065637 0.068661
C7    C     C_R   0.935747 0.264001 0.760808 0.039785
C8    C     C_R   0.258562 0.460317 0.746038 0.068642
C9    C     C_R   0.034576 0.222424 0.997724 0.056915
C10   C     C_R   0.862058 0.122037 0.698837 -0.270244
C11   C     C_R   0.902352 0.202779 0.696113 0.130550
C12   C     C_R   0.767260 0.436931 0.239790 0.090638
C13   C     C_R   0.918610 0.219699 0.626343 -0.261562
C14   C     C_R   0.904392 0.152619 0.556168 0.140376
C15   C     C_R   0.867616 0.070442 0.558761 0.032077
C16   C     C_R   0.804929 0.561244 0.962113 -0.120687
C17   C     C_R   0.841335 0.057738 0.632774 0.136471
C18   C     C_R   0.933430 0.163020 0.480667 -0.206586
C19   C     C_R   0.935145 0.089110 0.405573 -0.206133
C20   C     C_R   0.906363 0.004831 0.405998 0.143313
C21   C     C_R   0.866886 0.997132 0.484180 0.026197
C22   C     C_R   0.836261 0.913133 0.485723 0.140474
C23   C     C_R   0.723506 0.549684 0.023017 0.052404
C24   C     C_R   0.799191 0.905071 0.563049 -0.203506
C25   C     C_R   0.803014 0.976824 0.636133 -0.207121
C26   C     C_R   0.925976 0.926281 0.328863 -0.259531
C27   C     C_R   0.907871 0.841159 0.330161 0.117466
C28   C     C_R   0.950298 0.672601 0.247989 -0.125347
C29   C     C_R   0.853798 0.836178 0.408578 -0.255127
C30   C     C_R   0.424665 0.437279 0.671277 -0.256024
C31   C     C_R   0.341431 0.416488 0.668145 0.115746
C32   C     C_R   0.338614 0.362124 0.588392 -0.256912
C33   C     C_R   0.416641 0.342377 0.511923 0.140914
C34   C     C_R   0.955799 0.758785 0.253215 0.071012
C35   C     C_R   0.498613 0.374666 0.515669 0.026158
C36   C     C_R   0.503335 0.418105 0.595427 0.141053
C37   C     C_R   0.412553 0.299109 0.432328 -0.204812
C38   C     C_R   0.487134 0.296277 0.358042 -0.205926
C39   C     C_R   0.566225 0.336657 0.362930 0.143387
C40   C     C_R   0.738450 0.484049 0.040584 -0.114866
C41   C     C_R   0.573592 0.371799 0.440983 0.028317
C42   C     C_R   0.652879 0.412453 0.446454 0.146226
C43   C     C_R   0.659702 0.447117 0.524300 -0.209881
C44   C     C_R   0.585148 0.449891 0.598575 -0.203344
C45   C     C_R   0.250158 0.569593 0.012365 -0.141172
C46   C     C_R   0.634430 0.350493 0.293752 -0.261639
C47   C     C_R   0.708435 0.401268 0.302706 0.106818
C48   C     C_R   0.720420 0.425818 0.376713 -0.279007
C49   C     C_R   0.637020 0.594057 0.058647 0.131120
C50   C     C_R   0.324018 0.569123 0.099986 0.129362
C51   C     C_R   0.402782 0.539007 0.162701 -0.222684
C52   C     C_R   0.018041 0.752435 0.172817 -0.146931
C53   C     C_R   0.327225 0.530442 0.149080 -0.174304
C54   C     C_R   0.391598 0.626715 0.075166 -0.279408
C55   C     C_R   0.469621 0.630691 0.083563 0.188401
C56   C     C_R   0.914625 0.264914 0.839456 0.323325
C57   C     C_R   0.476636 0.582928 0.124162 0.187445
C58   C     C_R   0.560058 0.569087 0.115142 -0.274973
C59   C     C_R   0.628551 0.651783 0.028081 -0.169521
C60   C     C_R   0.544531 0.671427 0.041933 -0.224998
C61   C     C_R   0.823300 0.165717 0.118944 0.115079
C62   C     C_R   0.974898 0.859293 0.979804 0.145605
C63   C     C_R   0.914981 0.940295 0.936734 -0.229184
C64   C     C_R   0.842688 0.486974 0.239701 -0.148098
C65   C     C_R   0.955435 0.862675 0.918475 -0.181669
C66   C     C_R   0.955858 0.936266 0.059038 -0.268754
C67   C     C_R   0.172457 0.451536 0.751324 -0.128370
C68   C     C_R   0.914585 0.014251 0.078205 0.182639
C69   C     C_R   0.892429 0.015597 0.017071 0.192591
C70   C     C_R   0.846057 0.091367 0.038378 -0.287242
C71   C     C_R   0.846530 0.165187 0.178761 -0.149747
C72   C     C_R   0.891800 0.089717 0.158790 -0.230036
C73   C     C_R   0.967015 0.688744 0.930021 -0.209270
C74   C     C_R   0.999951 0.771850 0.967899 0.024899
C75   C     C_3   0.129059 0.810395 0.010520 -1.072807
C76   C     C_3   0.831159 0.229395 0.890911 -1.097621
C77   C     C_R   0.054371 0.307734 0.048892 -0.120962
C78   C     C_R   0.977764 0.238479 0.971241 -0.118395
H1    H     H_    0.095825 0.321500 0.081614 0.098065
H2    H     H_    0.774429 0.841121 0.565151 0.129264
H3    H     H_    0.780743 0.967306 0.693674 0.129129
H4    H     H_    0.275470 0.341576 0.584762 0.118630
H5    H     H_    0.350245 0.272767 0.428436 0.130355
H6    H     H_    0.481141 0.267741 0.298062 0.129795
H7    H     H_    0.625463 0.328040 0.236099 0.118346
H8    H     H_    0.816505 0.604055 0.931267 0.089601
H9    H     H_    0.778418 0.462115 0.383742 0.118576
H10   H     H_    0.720808 0.477237 0.528963 0.127519
H11   H     H_    0.589956 0.482158 0.659314 0.129865
H12   H     H_    0.949312 0.187133 0.930547 0.117397
H13   H     H_    0.564787 0.529187 0.143679 0.118299
H14   H     H_    0.686475 0.676434 0.988253 0.117202
H15   H     H_    0.274829 0.488181 0.171763 0.114743
H16   H     H_    0.388939 0.660431 0.040549 0.116909
H17   H     H_    0.827115 0.093138 0.993090 0.122061
H18   H     H_    0.898974 0.940447 0.889008 0.126528
H19   H     H_    0.908151 0.089945 0.206470 0.126151
H20   H     H_    0.969089 0.804163 0.857230 0.119871
H21   H     H_    0.967395 0.933570 0.108159 0.121687
H22   H     H_    0.690993 0.456452 0.083869 0.095077
H23   H     H_    0.304828 0.543449 0.847902 0.095565
H24   H     H_    0.038413 0.807334 0.155321 0.124135
H25   H     H_    0.873821 0.501334 0.281508 0.085766
H26   H     H_    0.936537 0.672684 0.887419 0.107755
H27   H     H_    0.288406 0.620528 0.992166 0.088315
H28   H     H_    0.172706 0.818253 0.950484 0.264482
H29   H     H_    0.107965 0.878621 0.065263 0.243226
H30   H     H_    0.168865 0.774313 0.020344 0.253978
H31   H     H_    0.775213 0.230687 0.876488 0.265149
H32   H     H_    0.843847 0.159901 0.877968 0.234945
H33   H     H_    0.809260 0.272505 0.960986 0.258647
H34   H     H_    0.853320 0.103677 0.747775 0.148682
H35   H     H_    0.151952 0.409318 0.700845 0.097756
H36   H     H_    0.159595 0.468883 0.138534 0.084679
H37   H     H_    0.004061 0.368524 0.715501 0.110235
H38   H     H_    0.960651 0.226193 0.478008 0.127325
H39   H     H_    0.428538 0.475251 0.732208 0.118910
H40   H     H_    0.406860 0.503389 0.195380 0.127305
H41   H     H_    0.539601 0.710232 0.012332 0.127326
H42   H     H_    0.908521 0.650954 0.297638 0.094954
H43   H     H_    0.828673 0.223163 0.240927 0.129629
H44   H     H_    0.948602 0.281643 0.622850 0.117665
H45   H     H_    0.722830 0.369779 0.136235 0.086871
H46   H     H_    0.964112 0.096380 0.346187 0.125363
H47   H     H_    0.962864 0.931597 0.268588 0.113721
H48   H     H_    0.834123 0.771652 0.410680 0.118301
N1    N     N_R   0.036080 0.671900 0.995420 -0.053624
N2    N     N_R   0.867430 0.509300 0.948100 -0.036385
N3    N     N_R   0.003360 0.617250 0.167070 -0.040788
N4    N     N_R   0.825450 0.461270 0.995400 -0.038332
N5    N     N_R   0.045340 0.665280 0.119770 -0.039159
N6    N     N_R   0.883740 0.497640 0.167070 -0.038193
N7    N     N_R   0.987050 0.628910 0.948110 -0.048653
N8    N     N_R   0.174550 0.538730 0.004600 -0.038928
N9    N     N_R   0.954660 0.334720 0.880230 -0.053852
N10   N     N_R   0.116260 0.502360 0.832930 -0.039153
N11   N     N_R   0.012950 0.371090 0.051890 -0.041906
N12   N     N_R   0.963920 0.328100 0.004580 -0.041853
N13   N     N_R   0.165290 0.545350 0.880240 -0.039850
N14   N     N_R   0.132570 0.490700 0.051900 -0.038266
N15   N     N_R   0.996640 0.382750 0.832930 -0.050763
N16   N     N_R   0.834710 0.454650 0.119760 -0.038916
Ni1   Ni    Ni4+2 0.104370 0.604370 0.000010 0.213089
Ni2   Ni    Ni4+2 0.895630 0.395630 0.999990 0.208664
Ni3   Ni    Ni4+2 0.991920 0.505780 0.891500 0.210443
Ni4   Ni    Ni4+2 0.008080 0.494220 0.108500 0.207737

loop_
_geom_bond_atom_site_label_1
_geom_bond_atom_site_label_2
_ccdc_geom_bond_type
C61   C70   A    
C64   H25   S    
C66   C68   A    
C63   C65   A    
C75   H29   S    
C56   C76   S    
C6    C45   A    
C27   C29   A    
C41   C42   A    
C14   C18   A    
C35   C36   A    
C3    C6    A    
C39   C41   A    
C78   H12   S    
C7    C11   S    
C52   H24   S    
C26   C27   A    
C50   C54   A    
C1    C74   A    
C22   C29   A    
C77   N11   A    
C65   H20   S    
C18   C19   A    
C12   C47   S    
C4    N16   A    
C30   C31   A    
C12   C64   A    
N2    Ni3   S    
C23   C49   S    
C10   C17   A    
C23   C40   A    
C51   H40   S    
C60   H41   S    
C28   N3    A    
C73   C74   A    
N8    Ni1   S    
C46   C47   A    
N13   Ni1   S    
C24   H2    S    
C73   H26   S    
C63   C69   A    
C68   C69   A    
C62   C74   S    
C10   H34   S    
C51   C57   A    
C4    C12   A    
N4    Ni2   S    
C58   H13   S    
N10   Ni3   S    
N15   Ni3   S    
C9    C78   A    
C46   H7    S    
C55   C60   A    
C61   C71   A    
C28   C34   A    
C59   C60   A    
C21   C22   A    
C5    H37   S    
C25   H3    S    
C8    C31   S    
C7    C56   A    
N10   N13   A    
C43   H10   S    
C78   N12   A    
C45   H27   S    
C72   H19   S    
C77   H1    S    
C27   C34   S    
N6    N16   A    
C19   H46   S    
C50   C53   A    
C62   C66   A    
C53   H15   S    
C1    C75   S    
C64   N6    A    
N11   Ni4   S    
C24   C25   A    
N1    N7    A    
C28   H42   S    
C18   H38   S    
C5    C7    A    
C76   H31   S    
C42   C48   A    
C2    H23   S    
C63   H18   S    
C33   C37   A    
C49   C58   A    
C4    H45   S    
C51   C53   A    
C26   H47   S    
C66   H21   S    
C43   C44   A    
C37   C38   A    
C5    N15   A    
C47   C48   A    
N9    N15   A    
C68   C72   A    
C45   N8    A    
C48   H9    S    
N1    Ni1   S    
C6    C50   S    
C16   N2    A    
N3    Ni4   S    
C8    C67   A    
C39   C46   A    
N9    Ni2   S    
C73   N7    A    
C16   C23   A    
C55   C57   A    
N16   Ni2   S    
C36   C44   A    
N7    Ni3   S    
C42   C43   A    
C2    N13   A    
N14   Ni4   S    
C56   N9    A    
N5    Ni1   S    
C75   H30   S    
C15   C17   A    
C40   N4    A    
C54   C55   A    
C62   C65   A    
C38   H6    S    
C52   N5    A    
C71   H43   S    
C31   C32   A    
C2    C8    A    
C1    N1    A    
C3    H36   S    
N2    N4    A    
C40   H22   S    
C30   H39   S    
C32   H4    S    
N11   N12   A    
C34   C52   A    
C49   C59   A    
C30   C36   A    
C17   C25   A    
C32   C33   A    
C19   C20   A    
C67   N10   A    
C9    C77   A    
N6    Ni4   S    
C71   C72   A    
N12   Ni2   S    
N8    N14   A    
C13   H44   S    
C11   C13   A    
C57   C58   A    
C38   C39   A    
C20   C26   A    
C16   H8    S    
C76   H33   S    
C33   C35   A    
C70   H17   S    
C22   C24   A    
C59   H14   S    
C67   H35   S    
C69   C70   A    
C35   C41   A    
C54   H16   S    
C10   C11   A    
C15   C21   A    
C20   C21   A    
C75   H28   S    
C76   H32   S    
C14   C15   A    
C37   H5    S    
C29   H48   S    
C3    N14   A    
C13   C14   A    
C44   H11   S    
N3    N5    A    
