data_mof_unit_8796.cif
_audit_creation_date              2012-12-10T18:05:43-0500
_audit_creation_method            fapswitch 2.2
_symmetry_space_group_name_H-M    P1
_symmetry_Int_Tables_number       1
_space_group_crystal_system       triclinic
_cell_length_a                    10.971498
_cell_length_b                    10.992567
_cell_length_c                    9.650451
_cell_angle_alpha                 91.481897
_cell_angle_beta                  92.482435
_cell_angle_gamma                 92.944265
_cell_volume                      1160.80457394

loop_
_atom_site_label
_atom_site_type_symbol
_atom_type_description
_atom_site_fract_x
_atom_site_fract_y
_atom_site_fract_z
_atom_type_partial_charge
C1    C     C_R   0.502726 0.262572 0.499872 0.799358
C2    C     C_R   0.497273 0.737428 0.500128 0.799357
C3    C     C_R   0.871859 0.499880 0.505174 -0.067587
C4    C     C_R   0.128141 0.500121 0.494825 -0.067586
C5    C     C_R   0.941789 0.448370 0.612534 0.014867
C6    C     C_R   0.058211 0.551632 0.387466 0.014868
C7    C     C_R   0.501211 0.062522 0.376875 -0.229893
C8    C     C_R   0.498788 0.937478 0.623124 -0.229890
C9    C     C_R   0.493025 0.936189 0.372419 -0.004434
C10   C     C_R   0.506974 0.063811 0.627581 -0.004433
C11   C     C_R   0.494988 0.871438 0.497654 -0.083510
C12   C     C_R   0.505011 0.128562 0.502346 -0.083510
C13   C     C_R   0.429995 0.413962 0.064748 0.179411
C14   C     C_R   0.570005 0.586038 0.935252 0.179413
C15   C     C_R   0.429091 0.417772 0.917020 -0.005706
C16   C     C_R   0.570909 0.582228 0.082980 -0.005705
C17   C     C_R   0.262394 0.500535 0.497535 0.792852
C18   C     C_R   0.737606 0.499465 0.502464 0.792853
C19   C     C_R   0.194503 0.753816 0.119499 -0.133088
C20   C     C_R   0.805495 0.246189 0.880503 -0.133086
C21   C     C_R   0.149181 0.714905 0.244573 -0.177335
C22   C     C_R   0.850818 0.285098 0.755429 -0.177332
C23   C     C_R   0.111532 0.592559 0.258554 0.074326
C24   C     C_R   0.888468 0.407444 0.741447 0.074327
C25   C     C_R   0.117800 0.509564 0.146289 0.020553
C26   C     C_R   0.882203 0.490440 0.853712 0.020551
C27   C     C_R   0.168121 0.548043 0.023031 -0.220059
C28   C     C_R   0.831883 0.451962 0.976971 -0.220059
C29   C     C_R   0.207434 0.670219 0.009995 0.075890
C30   C     C_R   0.792567 0.329786 0.990008 0.075888
C31   C     C_R   0.931516 0.550836 0.393543 -0.215058
C32   C     C_R   0.068484 0.449165 0.606457 -0.215058
Cu1   Cu    Cu3+1 0.500000 0.500020 0.640660 0.956759
Cu2   Cu    Cu3+1 0.500000 0.499980 0.359340 0.956759
H1    H     H_    0.373533 0.354124 0.851635 0.134171
H2    H     H_    0.626467 0.645876 0.148365 0.134170
H3    H     H_    0.219319 0.849136 0.107987 0.142151
H4    H     H_    0.780676 0.150870 0.892016 0.142151
H5    H     H_    0.141380 0.780183 0.329334 0.141779
H6    H     H_    0.858616 0.219820 0.670668 0.141778
H7    H     H_    0.172864 0.484392 0.936107 0.117384
H8    H     H_    0.827142 0.515613 0.063895 0.117383
H9    H     H_    0.879221 0.589679 0.309209 0.139873
H10   H     H_    0.120779 0.410320 0.690790 0.139873
H11   H     H_    0.504712 0.108544 0.280542 0.166333
H12   H     H_    0.495286 0.891456 0.719458 0.166334
N1    N     N_R   0.500030 0.500030 0.852070 -0.195261
N2    N     N_R   0.499970 0.499970 0.147930 -0.195260
O1    O     O_R   0.499990 0.319660 0.618740 -0.578122
O2    O     O_R   0.500010 0.680340 0.381260 -0.578122
O3    O     O_R   0.499990 0.319630 0.381170 -0.595287
O4    O     O_R   0.500010 0.680370 0.618830 -0.595288
O5    O     O_R   0.319650 0.500020 0.618780 -0.580879
O6    O     O_R   0.680350 0.499980 0.381220 -0.580878
O7    O     O_R   0.319640 0.500000 0.381210 -0.590271
O8    O     O_R   0.680360 0.500000 0.618790 -0.590271
C33   C     C_1   0.253425 0.711733 0.881208 0.274415
N3    N     N_1   0.289176 0.745756 0.777353 -0.276440
C34   C     C_1   0.746575 0.288275 0.118795 0.274411
N4    N     N_1   0.710823 0.254252 0.222650 -0.276436
C35   C     C_1   0.067696 0.386535 0.157058 0.203435
N5    N     N_1   0.026115 0.288680 0.168318 -0.296023
C36   C     C_1   0.932307 0.613469 0.842941 0.203436
N6    N     N_1   0.973888 0.711324 0.831679 -0.296022
C37   C     C_1   0.476183 0.879153 0.236292 0.231587
N7    N     N_1   0.461189 0.835494 0.126256 -0.329689
C38   C     C_1   0.523816 0.120847 0.763707 0.231586
N8    N     N_1   0.538810 0.164506 0.873743 -0.329692
C39   C     C_3   0.368686 0.303643 0.127977 -0.361258
C40   C     C_3   0.280864 0.219477 0.034727 -0.436291
C41   C     C_3   0.232137 0.111101 0.115451 -0.784431
H13   H     H_    0.307030 0.049575 0.137563 0.243725
H14   H     H_    0.196040 0.140680 0.215788 0.267043
H15   H     H_    0.158243 0.060021 0.052636 0.248230
H16   H     H_    0.204487 0.270356 0.990971 0.225512
H17   H     H_    0.327629 0.180585 0.946183 0.241225
H18   H     H_    0.444531 0.247472 0.157522 0.228274
H19   H     H_    0.319110 0.332027 0.219433 0.241463
C42   C     C_3   0.631314 0.696357 0.872023 -0.361257
C43   C     C_3   0.719136 0.780522 0.965275 -0.436288
C44   C     C_3   0.767863 0.888900 0.884552 -0.784421
H20   H     H_    0.841760 0.939976 0.947367 0.248231
H21   H     H_    0.803957 0.859322 0.784211 0.267041
H22   H     H_    0.692971 0.950429 0.862446 0.243723
H23   H     H_    0.672372 0.819412 0.053821 0.241221
H24   H     H_    0.795514 0.729642 0.009028 0.225510
H25   H     H_    0.680891 0.667973 0.780568 0.241462
H26   H     H_    0.555470 0.752528 0.842477 0.228273

loop_
_geom_bond_atom_site_label_1
_geom_bond_atom_site_label_2
_ccdc_geom_bond_type
C27   C29   A    
C39   H18   S    
C15   N1    A    
C16   N2    A    
C42   H25   S    
C44   H20   S    
C20   C30   A    
C10   C38   S    
Cu1   O4    S    
Cu2   O3    S    
C31   H9    S    
C7    H11   S    
C19   C21   A    
C24   C26   A    
Cu1   O1    S    
C3    C18   S    
C43   H24   S    
C19   H3    S    
C40   C41   S    
C2    O2    A    
C17   O7    A    
C18   O8    A    
C5    C32   A    
Cu1   O8    S    
C6    C31   A    
Cu2   O7    S    
C39   H19   S    
C35   N5    T    
C1    C12   S    
C2    C11   S    
C10   C12   A    
C15   H1    S    
C42   H26   S    
C44   H21   S    
C8    H12   S    
C21   C23   A    
Cu1   O5    S    
C7    C12   A    
Cu2   O2    S    
C38   N8    T    
C4    C6    A    
C41   H14   S    
C42   C43   S    
C26   C36   S    
C43   H23   S    
C41   H15   S    
C20   H4    S    
C27   H7    S    
C21   H5    S    
C22   H6    S    
C30   C34   S    
Cu1   Cu2   S    
C32   H10   S    
C25   C35   S    
C14   C42   S    
C3    C31   A    
C9    C11   A    
C4    C32   A    
C2    O4    A    
C4    C17   S    
C20   C22   A    
Cu2   O6    S    
C13   C15   A    
C40   H17   S    
Cu1   N1    S    
C14   C16   A    
Cu2   N2    S    
C19   C29   A    
C17   O5    A    
C44   H22   S    
C7    C9    A    
C29   C33   S    
C43   C44   S    
C3    C5    A    
C13   N2    A    
C14   N1    A    
C25   C27   A    
C26   C28   A    
C1    O3    A    
C28   C30   A    
C41   H13   S    
C16   H2    S    
C33   N3    T    
C5    C24   S    
C13   C39   S    
C8    C11   A    
C6    C23   S    
C28   H8    S    
C22   C24   A    
C23   C25   A    
C39   C40   S    
C9    C37   S    
C18   O6    A    
C36   N6    T    
C34   N4    T    
C8    C10   A    
C37   N7    T    
C40   H16   S    
C1    O1    A    
