data_mof_unit_65413.cif
_audit_creation_date              2013-03-05T16:24:47-0500
_audit_creation_method            fapswitch 2.2
_symmetry_space_group_name_H-M    P1
_symmetry_Int_Tables_number       1
_space_group_crystal_system       triclinic
_cell_length_a                    28.437448
_cell_length_b                    18.35992
_cell_length_c                    21.594589
_cell_angle_alpha                 89.938033
_cell_angle_beta                  139.786292
_cell_angle_gamma                 90.035035
_cell_volume                      7279.41990587

loop_
_atom_site_label
_atom_site_type_symbol
_atom_site_description
_atom_site_fract_x
_atom_site_fract_y
_atom_site_fract_z
_atom_type_partial_charge
O1    O     O_R   0.894190 0.938730 0.894180 -0.565404
O2    O     O_R   0.105810 0.061270 0.105820 -0.572306
O3    O     O_R   0.105810 0.938730 0.105820 -0.570995
O4    O     O_R   0.894190 0.061270 0.894180 -0.569752
O5    O     O_R   0.394190 0.438730 0.894180 -0.568726
O6    O     O_R   0.605810 0.561270 0.105820 -0.571827
O7    O     O_R   0.605810 0.438730 0.105820 -0.571094
O8    O     O_R   0.394190 0.561270 0.894180 -0.573190
C1    C     C_R   0.860088 0.000013 0.860451 0.904341
C2    C     C_R   0.139908 0.000003 0.139411 0.905368
C3    C     C_R   0.360090 0.500006 0.860501 0.902229
C4    C     C_R   0.639909 0.500005 0.139389 0.905285
O9    O     O_R   0.999980 0.938730 0.908830 -0.574228
O10   O     O_R   0.000020 0.061270 0.091170 -0.565689
O11   O     O_R   0.000020 0.938730 0.091170 -0.579298
O12   O     O_R   0.999980 0.061270 0.908830 -0.563438
O13   O     O_R   0.499980 0.438730 0.908830 -0.574794
O14   O     O_R   0.500020 0.561270 0.091170 -0.565354
O15   O     O_R   0.500020 0.438730 0.091170 -0.578731
O16   O     O_R   0.499980 0.561270 0.908830 -0.568984
C5    C     C_R   0.994151 0.000018 0.874190 0.921219
C6    C     C_R   0.003875 0.999930 0.123930 0.919557
C7    C     C_R   0.496133 0.500038 0.876081 0.921406
C8    C     C_R   0.503815 0.499931 0.123875 0.919581
Cu1   Cu    Cu3+1 0.000000 0.927450 0.000000 1.058996
Cu2   Cu    Cu3+1 1.000000 0.072550 0.000000 1.084179
Cu3   Cu    Cu3+1 0.500000 0.427450 0.000000 1.063635
Cu4   Cu    Cu3+1 0.500000 0.572550 0.000000 1.082243
C9    C     C_3   0.953537 0.930631 0.737595 0.123667
C10   C     C_3   0.039719 0.071224 0.255899 0.150267
C11   C     C_3   0.045811 0.930659 0.261803 0.131868
C12   C     C_3   0.954173 0.069858 0.738034 0.147791
C13   C     C_3   0.456839 0.430571 0.740775 0.130781
C14   C     C_3   0.538924 0.571576 0.255128 0.150805
C15   C     C_3   0.546458 0.431061 0.262428 0.132891
C16   C     C_3   0.458977 0.571664 0.742574 0.148408
H1    H     H_    0.982254 0.881080 0.782721 0.114789
H2    H     H_    0.006416 0.118550 0.206913 0.169763
H3    H     H_    0.016433 0.880932 0.217641 0.116730
H4    H     H_    0.983724 0.119315 0.783682 0.164554
H5    H     H_    0.486664 0.381622 0.787218 0.128744
H6    H     H_    0.505068 0.618534 0.205638 0.169933
H7    H     H_    0.517581 0.381043 0.218762 0.116959
H8    H     H_    0.493595 0.619305 0.789333 0.163789
C17   C     C_3   0.958355 0.931670 0.670413 -0.433219
C18   C     C_3   0.036177 0.070877 0.324028 -0.442548
C19   C     C_3   0.044364 0.933827 0.332107 -0.424009
C20   C     C_3   0.959735 0.069323 0.671665 -0.422459
C21   C     C_3   0.461112 0.430276 0.673342 -0.453971
C22   C     C_3   0.535486 0.571141 0.323358 -0.442820
C23   C     C_3   0.544988 0.434186 0.332711 -0.424422
C24   C     C_3   0.457283 0.566997 0.669332 -0.413237
H9    H     H_    0.904047 0.930085 0.593454 0.250462
H10   H     H_    0.090950 0.076989 0.400327 0.236135
H11   H     H_    0.100804 0.937920 0.407349 0.248968
H12   H     H_    0.905881 0.073201 0.594542 0.242805
H13   H     H_    0.406140 0.426438 0.596822 0.240800
H14   H     H_    0.590236 0.577709 0.399583 0.235708
H15   H     H_    0.601390 0.438822 0.407902 0.248588
H16   H     H_    0.400023 0.563611 0.594996 0.244335
H17   H     H_    0.986516 0.881751 0.682155 0.130321
H18   H     H_    0.004080 0.118744 0.307848 0.151021
H19   H     H_    0.021146 0.882430 0.327615 0.140647
H20   H     H_    0.990381 0.118424 0.687015 0.147507
H21   H     H_    0.490304 0.381011 0.686139 0.134246
H22   H     H_    0.502988 0.618708 0.306837 0.151197
H23   H     H_    0.522285 0.382559 0.328736 0.140580
H24   H     H_    0.480985 0.617633 0.673121 0.153365
H25   H     H_    0.110579 0.955578 0.807068 0.169509
H26   H     H_    0.892055 0.046626 0.191840 0.187773
H27   H     H_    0.890115 0.952247 0.195537 0.169618
H28   H     H_    0.105695 0.050207 0.805458 0.186728
H29   H     H_    0.613851 0.460970 0.808424 0.173376
H30   H     H_    0.391628 0.545583 0.191380 0.187948
H31   H     H_    0.390519 0.451199 0.196014 0.169271
H32   H     H_    0.603357 0.554899 0.804487 0.185275
C25   C     C_3   0.076155 0.000864 0.865672 0.751120
C26   C     C_3   0.921913 0.995976 0.132669 0.746282
C27   C     C_3   0.578472 0.499724 0.867955 0.744981
C28   C     C_3   0.421909 0.495083 0.132685 0.746284
C29   C     C_3   0.993522 0.999902 0.804413 -0.180770
C30   C     C_3   0.004343 0.999283 0.193482 -0.175971
C31   C     C_3   0.496002 0.500272 0.806879 -0.174192
C32   C     C_3   0.504296 0.499271 0.193440 -0.176672
C33   C     C_3   0.999636 0.000040 0.688773 -0.045340
C34   C     C_3   0.999801 0.000004 0.310712 -0.049236
C35   C     C_3   0.500097 0.499655 0.689176 -0.047664
C36   C     C_3   0.499788 0.499926 0.310705 -0.049115
C37   C     C_3   0.078002 0.000102 0.794673 -0.479164
C38   C     C_3   0.921101 0.996904 0.204879 -0.480711
C39   C     C_3   0.578900 0.502433 0.795328 -0.485789
C40   C     C_3   0.421111 0.496095 0.204908 -0.480871
C41   C     C_1   0.782535 0.000045 0.783067 -0.103049
C42   C     C_1   0.217465 0.000007 0.216837 -0.105299
C43   C     C_1   0.282534 0.500030 0.783106 -0.105239
C44   C     C_1   0.717466 0.500016 0.216813 -0.103934
C45   C     C_1   0.717211 0.000051 0.717726 -0.143102
C46   C     C_1   0.282790 0.000015 0.282240 -0.142911
C47   C     C_1   0.217210 0.500040 0.717742 -0.143675
C48   C     C_1   0.782790 0.500027 0.282226 -0.144124
O17   O     O_R   0.938700 0.894210 0.438700 -0.578591
O18   O     O_R   0.061300 0.105790 0.561300 -0.578741
O19   O     O_R   0.061300 0.894210 0.561300 -0.577832
O20   O     O_R   0.938700 0.105790 0.438700 -0.578279
O21   O     O_R   0.438700 0.394210 0.438700 -0.579418
O22   O     O_R   0.561300 0.605790 0.561300 -0.579161
O23   O     O_R   0.561300 0.394210 0.561300 -0.578323
O24   O     O_R   0.438700 0.605790 0.438700 -0.577802
C49   C     C_R   0.000009 0.860106 0.499989 0.835379
C50   C     C_R   0.999991 0.139893 0.500011 0.835853
C51   C     C_R   0.500009 0.360106 0.499989 0.835319
C52   C     C_R   0.499991 0.639893 0.500011 0.836951
O25   O     O_R   0.938740 0.000000 0.529880 -0.582407
O26   O     O_R   0.061260 0.000000 0.470120 -0.582551
O27   O     O_R   0.438740 0.500000 0.529880 -0.582956
O28   O     O_R   0.561260 0.500000 0.470120 -0.582990
O29   O     O_R   0.061220 0.000000 0.652370 -0.596212
O30   O     O_R   0.938780 0.000000 0.347630 -0.597156
O31   O     O_R   0.561220 0.500000 0.652370 -0.597166
O32   O     O_R   0.438780 0.500000 0.347630 -0.597265
C53   C     C_R   0.000233 0.000020 0.620436 0.821999
C54   C     C_R   0.999714 0.999906 0.379519 0.827370
C55   C     C_R   0.500275 0.499817 0.620470 0.829240
C56   C     C_R   0.499713 0.499835 0.379520 0.827898
Cu5   Cu    Cu3+1 0.927450 0.000000 0.427440 0.981966
Cu6   Cu    Cu3+1 0.072550 1.000000 0.572560 0.980849
Cu7   Cu    Cu3+1 0.427450 0.500000 0.427440 0.978735
Cu8   Cu    Cu3+1 0.572550 0.500000 0.572560 0.978483
O33   O     O_R   0.499910 0.105770 0.447130 -0.579244
O34   O     O_R   0.500090 0.894230 0.552870 -0.576934
O35   O     O_R   0.500090 0.105770 0.552870 -0.580573
O36   O     O_R   0.499910 0.894230 0.447130 -0.578118
O37   O     O_R   0.999910 0.605770 0.447130 -0.579322
O38   O     O_R   0.000090 0.394230 0.552870 -0.578305
O39   O     O_R   0.000090 0.605770 0.552870 -0.580544
O40   O     O_R   0.999910 0.394230 0.447130 -0.578217
C57   C     C_R   0.500008 0.139614 0.499981 0.830713
C58   C     C_R   0.499993 0.860386 0.500020 0.832025
C59   C     C_R   0.000006 0.639614 0.499980 0.831604
C60   C     C_R   0.999993 0.360386 0.500020 0.832542
O41   O     O_R   0.605760 0.000000 0.553010 -0.549211
O42   O     O_R   0.394240 1.000000 0.446990 -0.550016
O43   O     O_R   0.105760 0.500000 0.553010 -0.550226
O44   O     O_R   0.894240 0.500000 0.446990 -0.550664
O45   O     O_R   0.605780 0.000000 0.658540 -0.600354
O46   O     O_R   0.394220 0.000000 0.341460 -0.599574
O47   O     O_R   0.105780 0.500000 0.658540 -0.600236
O48   O     O_R   0.894220 0.500000 0.341460 -0.600025
C61   C     C_R   0.639627 0.000029 0.639804 0.829946
C62   C     C_R   0.360373 0.000014 0.360192 0.829747
C63   C     C_R   0.139627 0.500026 0.639806 0.830811
C64   C     C_R   0.860373 0.500021 0.360190 0.830330
Cu9   Cu    Cu3+1 0.499960 0.000000 0.437480 1.009505
Cu10  Cu    Cu3+1 0.500040 0.000000 0.562520 1.007579
Cu11  Cu    Cu3+1 0.999960 0.500000 0.437480 1.006172
Cu12  Cu    Cu3+1 0.000040 0.500000 0.562520 1.004255
C65   C     C_1   0.000024 0.782531 0.499964 -0.166165
C66   C     C_1   0.999975 0.217469 0.500035 -0.164815
C67   C     C_1   0.500025 0.282531 0.499966 -0.166914
C68   C     C_1   0.499975 0.717469 0.500034 -0.163804
C69   C     C_1   0.500022 0.217198 0.499950 -0.154043
C70   C     C_1   0.499979 0.782802 0.500051 -0.150191
C71   C     C_1   0.000020 0.717198 0.499947 -0.153767
C72   C     C_1   0.999979 0.282802 0.500051 -0.151646
N1    N     N_R   0.877880 0.923470 0.684386 0.168958
O49   O     O_R   0.822154 0.924710 0.591082 -0.288225
O50   O     O_R   0.866389 0.905439 0.730256 -0.340720
N2    N     N_R   0.114242 0.084173 0.308157 0.158410
O51   O     O_R   0.170809 0.059626 0.394888 -0.291229
O52   O     O_R   0.124626 0.129639 0.273188 -0.328525
N3    N     N_R   0.121055 0.920439 0.314998 0.178312
O53   O     O_R   0.142178 0.946577 0.283195 -0.328865
O54   O     O_R   0.161016 0.869976 0.380531 -0.314998
N4    N     N_R   0.878459 0.077801 0.684333 0.159699
O55   O     O_R   0.823049 0.077249 0.590998 -0.287616
O56   O     O_R   0.866669 0.095416 0.729922 -0.338750
N5    N     N_R   0.381369 0.422715 0.686898 0.166081
O57   O     O_R   0.326970 0.451323 0.602037 -0.293642
O58   O     O_R   0.367451 0.378743 0.718694 -0.331178
N6    N     N_R   0.613281 0.585375 0.307182 0.158773
O59   O     O_R   0.670120 0.561141 0.393994 -0.292212
O60   O     O_R   0.623170 0.631423 0.272056 -0.326899
N7    N     N_R   0.621791 0.421619 0.315686 0.178159
O61   O     O_R   0.642549 0.447840 0.283443 -0.330372
O62   O     O_R   0.662321 0.371638 0.381829 -0.320012
N8    N     N_R   0.385864 0.589301 0.693209 0.168066
O63   O     O_R   0.351454 0.645174 0.635710 -0.316558
O64   O     O_R   0.360551 0.560124 0.718278 -0.320368
O65   O     O_3   0.116138 0.944373 0.937640 -0.618931
C73   C     C_3   0.125511 0.876077 0.917764 0.024072
H33   H     H_    0.088294 0.864619 0.841520 0.121912
H34   H     H_    0.113971 0.833243 0.941139 0.185989
C74   C     C_3   0.204467 0.867082 0.976811 -0.813874
H35   H     H_    0.241210 0.872615 0.054348 0.256727
H36   H     H_    0.212299 0.812313 0.963948 0.216702
H37   H     H_    0.219254 0.908985 0.956855 0.232728
O66   O     O_3   0.888520 0.061925 0.078260 -0.616725
C75   C     C_3   0.811437 0.058636 0.001166 0.135780
H38   H     H_    0.789922 0.034377 0.023049 0.139944
H39   H     H_    0.791737 0.026340 0.941154 0.184122
C76   C     C_3   0.781083 0.135376 0.964686 -0.825148
H40   H     H_    0.800333 0.160651 0.940248 0.262728
H41   H     H_    0.720627 0.133554 0.903495 0.208709
H42   H     H_    0.799370 0.169113 0.022807 0.247769
O67   O     O_3   0.885912 0.936089 0.065822 -0.618127
C77   C     C_3   0.875315 0.869925 0.087753 0.027331
H43   H     H_    0.913187 0.859952 0.164669 0.122304
H44   H     H_    0.885917 0.824873 0.065357 0.186227
C78   C     C_3   0.796268 0.863111 0.029119 -0.821485
H45   H     H_    0.759435 0.867801 0.951466 0.256119
H46   H     H_    0.787637 0.809235 0.042684 0.218497
H47   H     H_    0.782164 0.906323 0.048682 0.230598
O68   O     O_3   0.105301 0.069307 0.914413 -0.613729
C79   C     C_3   0.182481 0.070586 0.992390 0.143238
H48   H     H_    0.206353 0.042893 0.975307 0.141293
H49   H     H_    0.203126 0.043865 0.055943 0.181331
C80   C     C_3   0.208201 0.149293 0.018195 -0.832204
H50   H     H_    0.186676 0.178094 0.037890 0.264085
H51   H     H_    0.268647 0.151099 0.080053 0.207411
H52   H     H_    0.188737 0.177377 0.956144 0.247986
O69   O     O_3   0.615740 0.440197 0.935595 -0.618214
C81   C     C_3   0.630296 0.375724 0.916550 0.025403
H53   H     H_    0.593859 0.365261 0.840413 0.124738
H54   H     H_    0.621116 0.329220 0.939286 0.186111
C82   C     C_3   0.710023 0.373207 0.977090 -0.822261
H55   H     H_    0.745701 0.379271 0.054181 0.256168
H56   H     H_    0.721887 0.320102 0.966604 0.219300
H57   H     H_    0.722592 0.417410 0.956421 0.228847
O70   O     O_3   0.387790 0.560632 0.077480 -0.616938
C83   C     C_3   0.310747 0.556492 0.000452 0.134788
H58   H     H_    0.289522 0.532187 0.022711 0.139688
H59   H     H_    0.291384 0.523812 0.940884 0.184466
C84   C     C_3   0.279541 0.632863 0.962880 -0.824084
H60   H     H_    0.298504 0.658161 0.938072 0.262828
H61   H     H_    0.219109 0.630366 0.901726 0.208560
H62   H     H_    0.297453 0.666974 0.020518 0.247868
O71   O     O_3   0.386563 0.434755 0.066565 -0.617488
C85   C     C_3   0.376624 0.368546 0.089246 0.028524
H63   H     H_    0.414586 0.359034 0.166270 0.122111
H64   H     H_    0.387703 0.323543 0.067392 0.186563
C86   C     C_3   0.297642 0.360953 0.030661 -0.823575
H65   H     H_    0.260780 0.365178 0.952962 0.256146
H66   H     H_    0.289558 0.307032 0.044847 0.219444
H67   H     H_    0.283073 0.404079 0.049693 0.230403
O72   O     O_3   0.610260 0.565924 0.921775 -0.615624
C87   C     C_3   0.687377 0.565025 0.997553 0.134508
H68   H     H_    0.708544 0.543719 0.974147 0.137905
H69   H     H_    0.709082 0.531404 0.058093 0.185556
C88   C     C_3   0.715486 0.642317 0.033899 -0.823297
H70   H     H_    0.696520 0.664815 0.059755 0.263694
H71   H     H_    0.775968 0.642367 0.094056 0.207081
H72   H     H_    0.695218 0.677397 0.975276 0.248295

loop_
_geom_bond_atom_site_label_1
_geom_bond_atom_site_label_2
_geom_bond_distance
_ccdc_geom_bond_type
O33   Cu9   1.953417 S    
N3    O53   1.300683 A    
C87   H69   1.112409 S    
C10   C30   1.582617 S    
N1    O49   1.301860 A    
C35   C39   1.560026 S    
C12   C20   1.557391 S    
C76   H40   1.110787 S    
C21   C35   1.545566 S    
C14   N6    1.472654 S    
C14   H6    1.113521 S    
C28   O70   1.429212 S    
C36   C56   1.487664 S    
C49   C65   1.424276 S    
C78   H47   1.108433 S    
O32   Cu7   1.980462 S    
C25   O68   1.429354 S    
O22   C52   1.287931 A    
O68   C79   1.417284 S    
C26   C38   1.577166 S    
C80   H52   1.110784 S    
O39   C59   1.298046 A    
C12   C29   1.582558 S    
N3    O54   1.301832 A    
C85   C86   1.524782 S    
C25   C37   1.573742 S    
C88   H70   1.110842 S    
O12   C5    1.289929 A    
C11   C30   1.579667 S    
C21   H21   1.110692 S    
C44   C48   1.199389 T    
C18   H18   1.113916 S    
O14   C8    1.288686 A    
C6    C30   1.491834 S    
O23   Cu8   1.953316 S    
O5    C3    1.287399 A    
N7    O62   1.301846 A    
O38   C60   1.298212 A    
O26   Cu6   1.977868 S    
C43   C47   1.199393 T    
N2    O52   1.301217 A    
C20   H20   1.113794 S    
O25   Cu5   1.977868 S    
O41   Cu9   1.952518 S    
C2    C42   1.424035 S    
C16   C31   1.587372 S    
O17   C49   1.287932 A    
O22   Cu8   1.953180 S    
C82   H57   1.108202 S    
O7    Cu3   1.953826 S    
C10   H2    1.113486 S    
C83   C84   1.520289 S    
C86   H65   1.110720 S    
O30   C54   1.286237 A    
H30   C40   1.113599 S    
O19   Cu6   1.953316 S    
C51   C67   1.424276 S    
N4    O55   1.301868 A    
O29   C53   1.287177 A    
C24   H16   1.113602 S    
C73   C74   1.523799 S    
C82   H56   1.110549 S    
O5    Cu3   1.953692 S    
O11   C6    1.287701 A    
O6    Cu4   1.953692 S    
O20   Cu5   1.953313 S    
C36   C40   1.556815 S    
C11   H3    1.106847 S    
C74   H36   1.110537 S    
C34   C54   1.487731 S    
O17   Cu5   1.953181 S    
C67   C69   1.199507 T    
C33   C53   1.488704 S    
C75   H38   1.112117 S    
O30   Cu5   1.980462 S    
C77   H43   1.104427 S    
C15   H7    1.106875 S    
C84   H60   1.110793 S    
C65   C71   1.199509 T    
O13   Cu3   1.978987 S    
C27   C39   1.578381 S    
C50   C66   1.424279 S    
O40   C60   1.298043 A    
O31   Cu8   1.980462 S    
C11   N3    1.476238 S    
O43   C63   1.297569 A    
O21   C51   1.287935 A    
O27   Cu7   1.977868 S    
C17   H9    1.108145 S    
N1    O50   1.300405 A    
C11   C19   1.550990 S    
O72   C87   1.416500 S    
O1    Cu1   1.953692 S    
C76   H41   1.110540 S    
O9    Cu1   1.978987 S    
O66   C75   1.416609 S    
C14   C32   1.582807 S    
H25   C37   1.104469 S    
O6    C4    1.287244 A    
N6    O60   1.301274 A    
C27   O69   1.443916 S    
Cu11  Cu12  2.698453 S    
C85   H64   1.110340 S    
C24   C35   1.548719 S    
O12   Cu2   1.979432 S    
O7    C4    1.287730 A    
O38   Cu12  1.953419 S    
C14   C22   1.549377 S    
O27   C55   1.288723 A    
O21   Cu7   1.953181 S    
C13   N5    1.472042 S    
C28   C32   1.587968 S    
C22   H14   1.110929 S    
C19   C34   1.549874 S    
O3    Cu1   1.953826 S    
O1    C1    1.287518 A    
H29   C39   1.103880 S    
C78   H45   1.110727 S    
C34   C38   1.556748 S    
C85   H63   1.104397 S    
O40   Cu11  1.952969 S    
C33   C37   1.553231 S    
C79   H48   1.112979 S    
C23   H23   1.112396 S    
O16   Cu4   1.979432 S    
C81   C82   1.524683 S    
N5    O58   1.301272 A    
Cu1   Cu2   2.664023 S    
O67   C77   1.416706 S    
C12   N4    1.479370 S    
C48   C64   1.424458 S    
O39   Cu12  1.952967 S    
O24   C52   1.287983 A    
C19   H19   1.112414 S    
C9    C17   1.558032 S    
O34   Cu10  1.953419 S    
C86   H66   1.110569 S    
C68   C70   1.199511 T    
C28   O71   1.444292 S    
O44   Cu12  1.952516 S    
C35   C55   1.487538 S    
C17   C33   1.549003 S    
N7    O61   1.300643 A    
C73   H33   1.101969 S    
C9    C29   1.577607 S    
O70   C83   1.416626 S    
O35   C57   1.298047 A    
O69   C81   1.415396 S    
C13   C31   1.577917 S    
C26   C30   1.587926 S    
C41   C45   1.199393 T    
O43   Cu11  1.952518 S    
C27   C31   1.586059 S    
O16   C7    1.288166 A    
C25   C29   1.588868 S    
O36   C58   1.298041 A    
C74   H37   1.109077 S    
C18   H10   1.110884 S    
C75   C76   1.520305 S    
C82   H55   1.110758 S    
O14   Cu4   1.978987 S    
C58   C70   1.424443 S    
O13   C7    1.288158 A    
O10   Cu2   1.978987 S    
C83   H59   1.112360 S    
O47   Cu12  1.954161 S    
C84   H61   1.110547 S    
C7    C31   1.491552 S    
H31   C40   1.103393 S    
N5    O57   1.302474 A    
O45   Cu10  1.954161 S    
N2    O51   1.302386 A    
O48   Cu11  1.954161 S    
O36   Cu9   1.952969 S    
O37   C59   1.298211 A    
C88   H71   1.110569 S    
O31   C55   1.286416 A    
C15   C23   1.551011 S    
Cu5   Cu6   2.664144 S    
O8    Cu4   1.953826 S    
C76   H42   1.110777 S    
O26   C54   1.288903 A    
C16   H8    1.111962 S    
C23   H15   1.113055 S    
N8    O64   1.300864 A    
Cu7   Cu8   2.664144 S    
O34   C58   1.298214 A    
C1    C41   1.423967 S    
C15   N7    1.476208 S    
O15   Cu3   1.979432 S    
N6    O59   1.302377 A    
O20   C50   1.287983 A    
C16   N8    1.476184 S    
C19   H11   1.113066 S    
C46   C62   1.424464 S    
C23   C36   1.550015 S    
C3    C43   1.424004 S    
O65   C73   1.415579 S    
C20   H12   1.108412 S    
C87   H68   1.111862 S    
C81   H54   1.110306 S    
C88   H72   1.110832 S    
C73   H34   1.110291 S    
O28   C56   1.288905 A    
O37   Cu11  1.953417 S    
O23   C51   1.287984 A    
C10   C18   1.549503 S    
O35   Cu10  1.952967 S    
C45   C61   1.424472 S    
O48   C64   1.297922 A    
C5    C29   1.493203 S    
O18   Cu6   1.953180 S    
C79   C80   1.520411 S    
C24   H24   1.113763 S    
O2    Cu2   1.953692 S    
C21   H13   1.110920 S    
O4    Cu2   1.953826 S    
C15   C32   1.579569 S    
C22   H22   1.113916 S    
O46   C62   1.297964 A    
C66   C72   1.199513 T    
C80   H51   1.110550 S    
O25   C53   1.288134 A    
C16   C24   1.547624 S    
O41   C61   1.297528 A    
O19   C49   1.287987 A    
C86   H67   1.108431 S    
C13   H5    1.110266 S    
O42   C62   1.297598 A    
C59   C71   1.424441 S    
O15   C8    1.287710 A    
N8    O63   1.301681 A    
C79   H49   1.112285 S    
C25   O65   1.443262 S    
C83   H58   1.112117 S    
C28   C40   1.577153 S    
C26   O66   1.429202 S    
O9    C5    1.289285 A    
C57   C69   1.424441 S    
H28   C37   1.113625 S    
C77   C78   1.524749 S    
O10   C6    1.288718 A    
O46   Cu9   1.954161 S    
C47   C63   1.424459 S    
O8    C3    1.287556 A    
O47   C63   1.297999 A    
H26   C38   1.113576 S    
C80   H50   1.110718 S    
C17   H17   1.111678 S    
C78   H46   1.110572 S    
H27   C38   1.103344 S    
C9    N1    1.480125 S    
C12   H4    1.112771 S    
O24   Cu7   1.953313 S    
C8    C32   1.491864 S    
C81   H53   1.101055 S    
C84   H62   1.110799 S    
N4    O56   1.300430 A    
C26   O67   1.444244 S    
O18   C50   1.287931 A    
H32   C39   1.113666 S    
C10   N2    1.472619 S    
C27   O72   1.429102 S    
C52   C68   1.424279 S    
O33   C57   1.298212 A    
O11   Cu1   1.979432 S    
O44   C64   1.297643 A    
C74   H35   1.110789 S    
O28   Cu8   1.977868 S    
C9    H1    1.108024 S    
Cu3   Cu4   2.664023 S    
O3    C2    1.287687 A    
C42   C46   1.199396 T    
C20   C33   1.550034 S    
C4    C44   1.424034 S    
O29   Cu6   1.980462 S    
C75   H39   1.112342 S    
C22   C36   1.546031 S    
O42   Cu10  1.952516 S    
C18   C34   1.546230 S    
O4    C1    1.287440 A    
O71   C85   1.416741 S    
C77   H44   1.110336 S    
C13   C21   1.550990 S    
C60   C72   1.424441 S    
O45   C61   1.298045 A    
O32   C56   1.286206 A    
Cu9   Cu10  2.698453 S    
C87   C88   1.520391 S    
O2    C2    1.287264 A    
