data_mof_unit_15649.cif
_audit_creation_date              2012-12-10T17:29:15-0500
_audit_creation_method            fapswitch 2.2
_symmetry_space_group_name_H-M    P1
_symmetry_Int_Tables_number       1
_space_group_crystal_system       triclinic
_cell_length_a                    12.008134
_cell_length_b                    12.868949
_cell_length_c                    13.114538
_cell_angle_alpha                 87.386056
_cell_angle_beta                  113.512869
_cell_angle_gamma                 93.608759
_cell_volume                      1854.19761564

loop_
_atom_site_label
_atom_site_type_symbol
_atom_type_description
_atom_site_fract_x
_atom_site_fract_y
_atom_site_fract_z
_atom_type_partial_charge
C1    C     C_R   0.476928 0.299475 0.497622 0.874758
C2    C     C_R   0.610166 0.485130 0.829399 -0.119900
C3    C     C_R   0.537091 0.811896 0.503502 -0.054094
C4    C     C_R   0.566336 0.491745 0.708632 0.858676
C5    C     C_R   0.463197 0.188054 0.497243 -0.049923
C6    C     C_R   0.366368 0.028670 0.530673 -0.222267
C7    C     C_R   0.370719 0.136329 0.522120 -0.205966
C8    C     C_R   0.548848 0.133055 0.477440 -0.274596
C9    C     C_R   0.545938 0.026216 0.486742 0.186483
C10   C     C_R   0.454475 0.973711 0.514300 0.188306
C11   C     C_R   0.452037 0.866899 0.524221 -0.303376
C12   C     C_R   0.556377 0.479645 0.988863 0.099029
C13   C     C_R   0.629151 0.863607 0.478043 -0.202662
C14   C     C_R   0.633678 0.971245 0.469804 -0.216279
C15   C     C_R   0.003718 0.590867 0.388347 -0.442086
C16   C     C_R   0.523141 0.700505 0.502611 0.887349
C17   C     C_R   0.126203 0.584938 0.400964 0.643808
C18   C     C_R   0.160521 0.461306 0.549235 -0.147854
C19   C     C_R   0.039537 0.466952 0.540694 0.088643
C20   C     C_R   0.960290 0.532791 0.459188 0.035519
C21   C     C_R   0.839010 0.538190 0.450166 -0.020795
C22   C     C_R   0.874492 0.415963 0.599029 0.019957
C23   C     C_R   0.530691 0.449604 0.879816 0.096773
C24   C     C_R   0.995448 0.407956 0.610768 -0.291790
C25   C     C_R   0.433220 0.503750 0.291371 0.889848
C26   C     C_R   0.259795 0.396800 0.008478 0.012149
C27   C     C_R   0.390691 0.489967 0.172686 -0.075676
C28   C     C_R   0.726102 0.528091 0.894032 -0.182807
C29   C     C_R   0.759601 0.542435 0.006881 -0.142529
C30   C     C_R   0.674988 0.521098 0.053899 -0.192426
C31   C     C_3   0.153663 0.744785 0.322665 0.069743
C32   C     C_3   0.069856 0.778413 0.204868 -0.361397
C33   C     C_3   0.056971 0.896073 0.195638 -0.936566
C34   C     C_R   0.462244 0.467397 0.028010 0.069682
C35   C     C_1   0.145268 0.340825 0.948894 0.127962
C36   C     C_R   0.351820 0.410137 0.966409 0.121178
C37   C     C_R   0.337669 0.366475 0.865909 -0.247663
C38   C     C_R   0.425714 0.386139 0.823186 -0.210992
C39   C     C_R   0.474716 0.512843 0.126238 -0.257312
C40   C     C_R   0.281204 0.435107 0.112989 -0.231753
H1    H     H_    0.215691 0.417720 0.149960 0.168999
H2    H     H_    0.053840 0.356101 0.674163 0.148346
H3    H     H_    0.257904 0.318357 0.818765 0.146541
H4    H     H_    0.221289 0.409326 0.610187 0.146011
H5    H     H_    0.552688 0.563136 0.171759 0.142018
H6    H     H_    0.789226 0.553656 0.856643 0.160140
H7    H     H_    0.705823 0.535279 0.141598 0.130009
H8    H     H_    0.849588 0.574516 0.057100 0.145032
H9    H     H_    0.411632 0.350239 0.745684 0.152579
H10   H     H_    0.382148 0.826562 0.545979 0.153352
H11   H     H_    0.244410 0.784312 0.342101 0.179246
H12   H     H_    0.695228 0.820995 0.461954 0.156784
H13   H     H_    0.120251 0.772516 0.384427 0.108895
H14   H     H_    0.107808 0.755148 0.145075 0.236000
H15   H     H_    0.978493 0.738939 0.181968 0.209746
H16   H     H_    0.016678 0.920803 0.253047 0.261438
H17   H     H_    0.996410 0.918159 0.109230 0.269433
H18   H     H_    0.147170 0.937309 0.216342 0.269151
H19   H     H_    0.295509 0.988639 0.551091 0.137998
H20   H     H_    0.704304 0.011243 0.449028 0.140339
H21   H     H_    0.304254 0.178957 0.537608 0.156566
H22   H     H_    0.619277 0.173367 0.456432 0.162993
H23   H     H_    0.777362 0.589057 0.387968 0.116222
H24   H     H_    0.841600 0.370723 0.653811 0.142674
H25   H     H_    0.942678 0.639547 0.323055 0.150103
N1    N     N_R   0.798200 0.480260 0.519790 -0.101534
N2    N     N_R   0.201820 0.519740 0.480210 -0.129140
N3    N     N_1   0.053505 0.296104 0.901247 -0.222566
O1    O     O_R   0.579910 0.341070 0.505280 -0.621895
O2    O     O_R   0.388440 0.353740 0.492580 -0.632588
O3    O     O_R   0.643280 0.490550 0.663120 -0.616557
O4    O     O_R   0.451810 0.503220 0.650420 -0.614650
O5    O     O_R   0.611560 0.646260 0.507420 -0.626390
O6    O     O_R   0.420090 0.658930 0.494720 -0.603115
O7    O     O_R   0.548190 0.496780 0.349580 -0.624854
O8    O     O_R   0.356720 0.509450 0.336880 -0.567625
O9    O     O_3   0.168125 0.636032 0.326887 -0.623725
Zn1   Zn    Zn3+2 0.627850 0.491540 0.508480 0.940498
Zn2   Zn    Zn3+2 0.372150 0.508460 0.491520 0.974370

loop_
_geom_bond_atom_site_label_1
_geom_bond_atom_site_label_2
_ccdc_geom_bond_type
C33   H18   S    
C21   N1    A    
C24   H2    S    
C19   C20   A    
O8    Zn2   S    
C38   H9    S    
C12   C23   A    
C28   H6    S    
C37   C38   A    
C16   O6    A    
C22   C24   A    
C36   C37   A    
O4    Zn2   S    
C15   H25   S    
C18   C19   A    
C22   N1    A    
C7    H21   S    
C27   C39   A    
C8    C9    A    
O5    Zn1   S    
C9    C10   A    
C32   H15   S    
C3    C13   A    
C39   H5    S    
C33   H16   S    
C13   C14   A    
O1    Zn1   S    
C32   H14   S    
C31   O9    S    
C15   C20   A    
N1    Zn1   S    
C17   N2    A    
C29   H8    S    
C16   O5    A    
C30   H7    S    
N2    Zn2   S    
C5    C7    A    
C18   N2    A    
C1    O1    A    
C34   C39   A    
C25   O7    A    
C37   H3    S    
C2    C4    S    
C9    C14   A    
C29   C30   A    
C18   H4    S    
C13   H12   S    
C31   C32   S    
C27   C40   A    
C17   O9    S    
C31   H13   S    
C26   C36   A    
C40   H1    S    
O6    Zn2   S    
C1    C5    S    
C12   C34   A    
C4    O4    A    
C15   C17   A    
C28   C29   A    
C33   H17   S    
C12   C30   A    
O2    Zn2   S    
C6    H19   S    
C31   H11   S    
C6    C10   A    
C5    C8    A    
C6    C7    A    
C25   C27   S    
C23   C38   A    
C14   H20   S    
C1    O2    A    
C25   O8    A    
C32   C33   S    
C19   C24   A    
C11   H10   S    
C26   C40   A    
C35   N3    T    
C34   C36   A    
O3    Zn1   S    
O7    Zn1   S    
C21   H23   S    
C3    C11   A    
C10   C11   A    
C22   H24   S    
C26   C35   S    
C20   C21   A    
C2    C23   A    
C2    C28   A    
C4    O3    A    
C3    C16   S    
C8    H22   S    
