data_mof_unit_40434.cif
_audit_creation_date              2013-03-05T15:55:20-0500
_audit_creation_method            fapswitch 2.2
_symmetry_space_group_name_H-M    P1
_symmetry_Int_Tables_number       1
_space_group_crystal_system       triclinic
_cell_length_a                    27.704902
_cell_length_b                    10.615529
_cell_length_c                    9.910141
_cell_angle_alpha                 89.895575
_cell_angle_beta                  90.050276
_cell_angle_gamma                 91.738146
_cell_volume                      2913.24731244

loop_
_atom_site_label
_atom_site_type_symbol
_atom_site_description
_atom_site_fract_x
_atom_site_fract_y
_atom_site_fract_z
_atom_type_partial_charge
O1    O     O_R   0.500000 0.316780 0.614690 -0.635622
O2    O     O_R   0.500000 0.316750 0.385360 -0.627018
C1    C     C_R   0.500885 0.260919 0.500127 0.864653
O3    O     O_R   0.428760 0.500030 0.614650 -0.635148
O4    O     O_R   0.428750 0.500010 0.385320 -0.646660
C2    C     C_R   0.406066 0.498935 0.499999 0.843900
Zn1   Zn    Zn3+2 0.500000 0.500020 0.653130 0.937584
Zn2   Zn    Zn3+2 0.500000 0.499980 0.346870 0.943713
O5    O     O_R   0.500000 0.683250 0.614640 -0.607004
O6    O     O_R   0.500000 0.683220 0.385310 -0.615847
O7    O     O_R   0.571250 0.499990 0.614680 -0.631249
O8    O     O_R   0.571240 0.499970 0.385350 -0.612911
C3    C     C_R   0.500130 0.739293 0.499843 0.845919
C4    C     C_R   0.593924 0.499523 0.500157 0.865875
C5    C     C_R   0.176983 0.370030 0.517014 0.568388
O9    O     O_2   0.201821 0.263591 0.533072 -0.543673
N1    N     N_R   0.201179 0.482768 0.498428 -0.341556
C6    C     C_R   0.177588 0.592261 0.477938 0.561562
C7    C     C_R   0.277616 0.481933 0.379875 -0.124480
C8    C     C_R   0.327685 0.486476 0.378768 -0.197234
C9    C     C_R   0.328248 0.500110 0.623287 -0.309237
C10   C     C_R   0.277855 0.496555 0.625834 0.033270
C11   C     C_R   0.252596 0.486809 0.502080 0.309964
C12   C     C_R   0.101401 0.477740 0.505408 -0.050784
C13   C     C_R   0.126498 0.365272 0.520749 -0.019217
C14   C     C_R   0.100782 0.251605 0.541629 -0.126503
C15   C     C_R   0.127175 0.591972 0.481315 -0.017392
C16   C     C_R   0.353304 0.495550 0.500467 -0.027430
H1    H     H_    0.347962 0.507196 0.717658 0.161573
H2    H     H_    0.119324 0.164218 0.556314 0.194519
C17   C     C_R   0.646581 0.494571 0.501273 -0.133021
C18   C     C_R   0.973480 0.358846 0.515554 0.003057
C19   C     C_R   0.975718 0.590326 0.534867 -0.045083
C20   C     C_R   0.949175 0.474024 0.523334 0.076703
C21   C     C_R   0.946267 0.246456 0.494868 -0.176121
C22   C     C_R   0.895903 0.244361 0.486515 0.174517
C23   C     C_R   0.871056 0.358949 0.499939 -0.040061
C24   C     C_R   0.898154 0.473282 0.519434 -0.083973
C25   C     C_R   0.874260 0.587843 0.534400 -0.060394
C26   C     C_R   0.824055 0.588154 0.527036 0.511954
N2    N     N_R   0.798464 0.478342 0.507385 -0.340129
C27   C     C_R   0.820146 0.365299 0.494365 0.512112
C28   C     C_R   0.722883 0.498706 0.381189 0.199201
C29   C     C_R   0.672644 0.504888 0.380452 -0.205045
C30   C     C_R   0.670914 0.477201 0.623653 -0.239618
C31   C     C_R   0.721035 0.470470 0.626424 0.199999
C32   C     C_R   0.746994 0.481681 0.504745 0.317187
O10   O     O_2   0.792010 0.260825 0.476759 -0.573343
C33   C     C_R   0.024505 0.359797 0.525159 0.053576
C34   C     C_R   0.050506 0.476098 0.513846 0.100029
C35   C     C_R   0.026003 0.590946 0.509422 0.033513
C36   C     C_R   0.050606 0.248555 0.543227 -0.215433
H3    H     H_    0.653919 0.518149 0.285674 0.168910
H4    H     H_    0.963911 0.158577 0.479002 0.169281
H5    H     H_    0.033183 0.158138 0.562958 0.166711
O11   O     O_2   0.202976 0.700978 0.456400 -0.534076
C37   C     C_R   0.102092 0.702493 0.459864 -0.121594
H6    H     H_    0.346245 0.482357 0.282795 0.166713
H7    H     H_    0.258011 0.474689 0.285465 0.147241
H8    H     H_    0.120911 0.790280 0.434442 0.194257
C38   C     C_R   0.950742 0.700657 0.570726 -0.029928
C39   C     C_R   0.900479 0.699109 0.562995 -0.119216
O12   O     O_2   0.800655 0.697261 0.540022 -0.567448
C40   C     C_R   0.052159 0.701483 0.471459 -0.244817
H9    H     H_    0.650886 0.468185 0.717218 0.173180
H10   H     H_    0.881552 0.784386 0.585800 0.221004
H11   H     H_    0.034281 0.787708 0.447133 0.156534
H12   H     H_    0.431682 0.115925 0.415382 0.174099
C41   C     C_R   0.585938 0.136147 0.592162 -0.167352
H13   H     H_    0.587887 0.237971 0.593025 0.145214
C42   C     C_R   0.626451 0.072606 0.635451 -0.116353
H14   H     H_    0.658279 0.125246 0.669267 0.158450
C43   C     C_R   0.626112 0.941543 0.634055 -0.126270
H15   H     H_    0.657693 0.892185 0.666790 0.157990
C44   C     C_R   0.585231 0.873759 0.589610 -0.175961
H16   H     H_    0.586881 0.772138 0.588510 0.142020
C45   C     C_R   0.543562 0.936869 0.546270 0.100424
C46   C     C_R   0.544121 0.068623 0.547285 0.098700
C47   C     C_R   0.502956 0.129015 0.500120 -0.129681
C48   C     C_R   0.462446 0.064191 0.450927 -0.189849
C49   C     C_R   0.460783 0.934483 0.450988 -0.040026
C50   C     C_R   0.501476 0.872072 0.499485 -0.183281
H17   H     H_    0.554555 0.640879 0.125112 0.148919
C51   C     C_R   0.436429 0.335269 0.140302 -0.162293
H18   H     H_    0.434349 0.329421 0.247301 0.202253
C52   C     C_R   0.405041 0.254289 0.070181 -0.178673
H19   H     H_    0.380626 0.191043 0.124762 0.183497
C53   C     C_R   0.405035 0.254260 0.930496 -0.187223
H20   H     H_    0.380600 0.191011 0.876134 0.169724
C54   C     C_R   0.436442 0.335140 0.860112 -0.158663
H21   H     H_    0.434427 0.329128 0.753103 0.206857
C55   C     C_R   0.468661 0.418806 0.927778 0.167330
C56   C     C_R   0.468661 0.418867 0.072402 0.171072
N3    N     N_R   0.499540 0.498800 0.142780 -0.121559
C57   C     C_R   0.530021 0.577532 0.071419 -0.108645
H22   H     H_    0.554526 0.640849 0.874365 0.147819
C58   C     C_R   0.530009 0.577502 0.928276 -0.109773
N4    N     N_R   0.499520 0.498720 0.857170 -0.121857
C59   C     C_2   0.975190 0.811570 0.635921 0.357883
H23   H     H_    0.010405 0.802690 0.682318 0.097917
O13   O     O_2   0.955973 0.913510 0.640820 -0.595646
C60   C     C_3   0.746667 0.451518 0.758701 -0.884733
H24   H     H_    0.720947 0.443918 0.844469 0.232042
H25   H     H_    0.767254 0.363493 0.755008 0.254406
H26   H     H_    0.771988 0.532447 0.778389 0.255910
C61   C     C_2   0.253593 0.504109 0.759143 0.439215
H27   H     H_    0.275166 0.505214 0.850687 0.057676
O14   O     O_2   0.209845 0.510352 0.769534 -0.559010
C62   C     C_2   0.416058 0.866100 0.403869 0.441010
H28   H     H_    0.412125 0.764641 0.413278 0.070134
O15   O     O_2   0.382690 0.922803 0.354001 -0.557732
C63   C     C_3   0.750612 0.510618 0.250955 -0.873691
H29   H     H_    0.726270 0.523516 0.163192 0.231495
H30   H     H_    0.776095 0.593225 0.255886 0.255353
H31   H     H_    0.771291 0.424148 0.233803 0.254809
C64   C     C_3   0.870724 0.117856 0.462407 -0.707997
H32   H     H_    0.896510 0.040289 0.452723 0.230302
H33   H     H_    0.846694 0.093268 0.548703 0.271408
H34   H     H_    0.849870 0.120106 0.366776 0.254006

loop_
_geom_bond_atom_site_label_1
_geom_bond_atom_site_label_2
_geom_bond_distance
_ccdc_geom_bond_type
H12   C48   1.085954 S    
C56   N3    1.376738 A    
Zn1   N4    2.022139 S    
N2    C27   1.364536 A    
C7    C8    1.386562 A    
C12   C15   1.408576 A    
C4    C17   1.461450 S    
C44   H16   1.081194 S    
C1    C47   1.403141 S    
C63   H30   1.110121 S    
C49   C50   1.408589 A    
C55   N4    1.376634 A    
C45   C46   1.398310 A    
Zn1   O7    2.010753 S    
C31   C60   1.506402 S    
N1    C11   1.424258 S    
C26   O12   1.350778 S    
C22   C23   1.422243 A    
C51   C52   1.390628 A    
C41   H13   1.080673 S    
C62   O15   1.221920 D    
O4    C2    1.299020 A    
O7    C4    1.297758 A    
C52   C53   1.384297 A    
C5    C13   1.398601 A    
C61   H27   1.085835 S    
C5    O9    1.349755 S    
C58   N4    1.366649 A    
C64   H32   1.110708 S    
C60   H26   1.109978 S    
N1    C6    1.365439 A    
C43   H15   1.082590 S    
C23   C27   1.415135 A    
C41   C42   1.393872 A    
O5    C3    1.282816 A    
C29   H3    1.083629 S    
C2    C16   1.461123 S    
C21   C22   1.397222 A    
C6    C15   1.397027 A    
C38   C39   1.394177 A    
C36   H5    1.078826 S    
C6    O11   1.349935 S    
O1    Zn1   1.982822 S    
C9    C10   1.395762 A    
C21   H4    1.078083 S    
C43   C44   1.394782 A    
C41   C46   1.415505 A    
C38   C59   1.488661 S    
O3    Zn1   2.009877 S    
C63   H29   1.110909 S    
C19   C20   1.422463 A    
C12   C34   1.412178 A    
C17   C29   1.401171 A    
C39   H10   1.084106 S    
C60   H24   1.110895 S    
C18   C21   1.407089 A    
Zn2   N3    2.022649 S    
C51   H18   1.063585 S    
O3    C2    1.297978 A    
C15   C37   1.397457 A    
C25   C26   1.392861 A    
C42   C43   1.391142 A    
C46   C47   1.404458 A    
C37   H8    1.083360 S    
C8    C16   1.400863 A    
C7    H7    1.083127 S    
C13   C14   1.397710 A    
C10   C61   1.486200 S    
C9    H1    1.084200 S    
C3    C50   1.408873 S    
O1    C1    1.282426 A    
C18   C20   1.415858 A    
C7    C11   1.397775 A    
C28   C29   1.395417 A    
C40   H11   1.080615 S    
C23   C24   1.421039 A    
C14   C36   1.389619 A    
C54   C55   1.410063 A    
C59   H23   1.084804 S    
Zn2   O8    2.009874 S    
C33   C36   1.414311 A    
H17   C57   1.081807 S    
H22   C58   1.081959 S    
C34   C35   1.413897 A    
N2    C32   1.427699 S    
C27   O10   1.347616 S    
C12   C13   1.407655 A    
C60   H25   1.110092 S    
C44   C45   1.418100 A    
C19   C38   1.424075 A    
C26   N2    1.360120 A    
C59   O13   1.221477 D    
C9    C16   1.403370 A    
C53   C54   1.390824 A    
C14   H2    1.083467 S    
C30   H9    1.083597 S    
C28   C63   1.505710 S    
C8    H6    1.083183 S    
C22   C64   1.513666 S    
C52   H19   1.082896 S    
C37   C40   1.387974 A    
Zn1   O5    1.981451 S    
C25   C39   1.397086 A    
C31   C32   1.407585 A    
C20   C24   1.413796 A    
O2    Zn2   1.981448 S    
C35   C40   1.410977 A    
C49   C62   1.491989 S    
C48   C49   1.376290 A    
O6    C3    1.282567 A    
O4    Zn2   2.010756 S    
C57   C58   1.418562 A    
C5    N1    1.366129 A    
C19   C35   1.415787 A    
C64   H34   1.110109 S    
O2    C1    1.282121 A    
O8    C4    1.299363 A    
C42   H14   1.082766 S    
C62   H28   1.083106 S    
C54   H21   1.063825 S    
C24   C25   1.410281 A    
C61   O14   1.220290 D    
C45   C50   1.413929 A    
C55   C56   1.433246 A    
C64   H33   1.110115 S    
C51   C56   1.410166 A    
N3    C57   1.366701 A    
C18   C33   1.416511 A    
C47   C48   1.387160 A    
C30   C31   1.392850 A    
C53   H20   1.082799 S    
Zn2   O6    1.982822 S    
C33   C34   1.414695 A    
C17   C30   1.401657 A    
C10   C11   1.413893 A    
C28   C32   1.408282 A    
C63   H31   1.110109 S    
