data_mof_unit_24557.cif
_audit_creation_date              2012-10-26T18:29:52-0400
_audit_creation_method            fapswitch 2.2
_symmetry_space_group_name_H-M    P1
_symmetry_Int_Tables_number       1
_space_group_crystal_system       triclinic
_cell_length_a                    10.773153
_cell_length_b                    13.006386
_cell_length_c                    11.6593
_cell_angle_alpha                 100.172612
_cell_angle_beta                  93.313168
_cell_angle_gamma                 90.766628
_cell_volume                      1604.86686825

loop_
_atom_site_label
_atom_site_type_symbol
_atom_type_description
_atom_site_fract_x
_atom_site_fract_y
_atom_site_fract_z
_atom_type_partial_charge
C1    C     C_R   0.498647 0.299022 0.478266 0.547103
C2    C     C_R   0.487378 0.032585 0.555720 0.033967
C3    C     C_R   0.495738 0.968647 0.445701 0.044024
C4    C     C_R   0.260121 0.494619 0.500134 0.539188
C5    C     C_R   0.495186 0.860823 0.437270 -0.156046
C6    C     C_R   0.472222 0.880126 0.647488 -0.017546
C7    C     C_R   0.475317 0.988408 0.655052 -0.138277
C8    C     C_R   0.394361 0.391995 0.020727 -0.181825
C9    C     C_R   0.402795 0.403881 0.143346 0.039309
C10   C     C_R   0.542623 0.548148 0.157468 0.041758
C11   C     C_R   0.536473 0.539462 0.034493 0.004770
C12   C     C_3   0.879845 0.513427 0.501716 0.040990
C13   C     C_R   0.462026 0.459970 0.965155 0.004501
C14   C     C_R   0.456905 0.451404 0.842008 0.042430
C15   C     C_R   0.594049 0.597453 0.857223 0.055687
C16   C     C_R   0.495516 0.701110 0.522334 0.532711
C17   C     C_R   0.601922 0.608642 0.979262 -0.169877
C18   C     C_R   0.740448 0.509454 0.500714 0.536250
C19   C     C_3   0.078338 0.477220 0.618821 -0.242246
C20   C     C_3   0.936294 0.480489 0.616909 -0.236678
C21   C     C_3   0.084539 0.609634 0.487292 -0.201049
C22   C     C_3   0.060911 0.416488 0.402128 -0.249023
C23   C     C_3   0.938938 0.624285 0.485478 0.000657
C24   C     C_3   0.123132 0.498609 0.501554 0.031407
C25   C     C_R   0.889379 0.655456 0.367903 0.033164
C26   C     C_R   0.791848 0.727430 0.366608 -0.073868
C27   C     C_R   0.768910 0.778023 0.271504 -0.135272
C28   C     C_R   0.837348 0.753812 0.173062 -0.121754
C29   C     C_R   0.923361 0.674487 0.166429 -0.116883
C30   C     C_R   0.948661 0.625226 0.262065 -0.108779
C31   C     C_R   0.443714 0.840347 0.755155 0.052539
C32   C     C_R   0.515954 0.873505 0.859879 -0.116647
C33   C     C_R   0.482716 0.843011 0.963355 -0.131384
C34   C     C_3   0.918622 0.425757 0.401139 -0.237237
C35   C     C_R   0.376846 0.779689 0.963349 -0.101073
C36   C     C_R   0.303743 0.747271 0.859985 -0.094666
C37   C     C_R   0.336246 0.778508 0.756746 -0.044397
C38   C     C_R   0.921165 0.721539 0.583282 0.007695
C39   C     C_R   0.843784 0.724058 0.677141 -0.113250
C40   C     C_R   0.834965 0.814117 0.761447 -0.119302
C41   C     C_R   0.899820 0.905311 0.752354 -0.099080
C42   C     C_R   0.973658 0.906749 0.658586 -0.109357
C43   C     C_R   0.983797 0.816592 0.574970 -0.103152
C44   C     C_R   0.486721 0.815254 0.537112 -0.015225
C45   C     C_R   0.497577 0.185595 0.465587 -0.001826
C46   C     C_R   0.504569 0.013765 0.345838 -0.138524
C47   C     C_R   0.505222 0.122021 0.355704 -0.138966
C48   C     C_R   0.488589 0.140396 0.565051 -0.134207
Cu1   Cu    Cu3+1 0.509350 0.507730 0.615930 0.918149
Cu2   Cu    Cu3+1 0.490650 0.492270 0.384070 0.919718
H1    H     H_    0.118465 0.536865 0.692614 0.130878
H2    H     H_    0.335571 0.330139 0.969989 0.080030
H3    H     H_    0.655711 0.672883 0.029761 0.093890
H4    H     H_    0.350571 0.350963 0.185312 0.120293
H5    H     H_    0.600449 0.608459 0.211356 0.132862
H6    H     H_    0.899536 0.401356 0.623301 0.128618
H7    H     H_    0.910392 0.532063 0.697334 0.120891
H8    H     H_    0.093915 0.425795 0.315986 0.123564
H9    H     H_    0.087059 0.336707 0.415401 0.111054
H10   H     H_    0.877175 0.349174 0.411297 0.116964
H11   H     H_    0.738387 0.750015 0.442271 0.125906
H12   H     H_    0.881917 0.439864 0.314481 0.139903
H13   H     H_    0.699485 0.837509 0.274746 0.100633
H14   H     H_    0.821238 0.794616 0.100469 0.096815
H15   H     H_    0.973141 0.652891 0.088030 0.103757
H16   H     H_    0.018821 0.566708 0.253080 0.099567
H17   H     H_    0.597040 0.923953 0.861582 0.097531
H18   H     H_    0.539122 0.868355 0.043515 0.091517
H19   H     H_    0.351591 0.755735 0.043389 0.109430
H20   H     H_    0.221216 0.698891 0.860053 0.097251
H21   H     H_    0.277355 0.755884 0.678170 0.094434
H22   H     H_    0.399027 0.391046 0.787701 0.109012
H23   H     H_    0.128107 0.633698 0.412060 0.113047
H24   H     H_    0.109830 0.399447 0.634616 0.113513
H25   H     H_    0.132504 0.662242 0.562407 0.097540
H26   H     H_    0.788545 0.658720 0.687480 0.132471
H27   H     H_    0.777362 0.813069 0.834188 0.090223
H28   H     H_    0.892202 0.974964 0.817561 0.101370
H29   H     H_    0.023351 0.977758 0.650537 0.104978
H30   H     H_    0.041532 0.820691 0.502789 0.110600
H31   H     H_    0.502168 0.812329 0.352270 0.115785
H32   H     H_    0.510774 0.965566 0.260577 0.092510
H33   H     H_    0.464341 0.038609 0.738518 0.100144
H34   H     H_    0.512260 0.155838 0.277769 0.126277
H35   H     H_    0.481530 0.189016 0.650074 0.114702
H36   H     H_    0.641936 0.653295 0.816561 0.116484
N1    N     N_R   0.523430 0.519360 0.790130 -0.226736
N2    N     N_R   0.476570 0.480640 0.209880 -0.230595
O1    O     O_R   0.506640 0.354460 0.582000 -0.510500
O2    O     O_R   0.490840 0.341410 0.386200 -0.509169
O3    O     O_R   0.325590 0.506510 0.597900 -0.511544
O4    O     O_R   0.309790 0.493450 0.402100 -0.510381
O5    O     O_R   0.509160 0.658590 0.613800 -0.499276
O6    O     O_R   0.493360 0.645540 0.418000 -0.516324
O7    O     O_R   0.690210 0.506550 0.597900 -0.521941
O8    O     O_R   0.674410 0.493490 0.402100 -0.496581

loop_
_geom_bond_atom_site_label_1
_geom_bond_atom_site_label_2
_ccdc_geom_bond_type
C7    H33   S    
C1    O2    A    
C18   O8    A    
C41   C42   A    
Cu1   N1    S    
C35   C36   A    
C20   H6    S    
C1    C45   S    
C12   C23   S    
C10   N2    A    
C16   O5    A    
C8    C13   A    
C36   C37   A    
C26   H11   S    
C14   N1    A    
C9    N2    A    
C38   C39   A    
C4    C24   S    
C21   H23   S    
C34   H12   S    
C46   H32   S    
Cu2   O2    S    
C2    C7    A    
C8    C9    A    
C16   C44   S    
Cu2   N2    S    
C4    O3    A    
C6    C31   S    
C42   H29   S    
C22   H9    S    
C6    C44   A    
C13   C14   A    
C34   H10   S    
C18   O7    A    
Cu1   O3    S    
C36   H20   S    
C45   C47   A    
C22   C34   S    
C39   C40   A    
Cu2   O6    S    
C2    C48   A    
C43   H30   S    
C47   H34   S    
C31   C37   A    
C29   C30   A    
C5    H31   S    
C31   C32   A    
C12   C20   S    
C26   C27   A    
C39   H26   S    
Cu1   O7    S    
C10   H5    S    
C30   H16   S    
C27   H13   S    
C32   H17   S    
C29   H15   S    
C28   H14   S    
Cu2   O4    S    
C40   C41   A    
C5    C44   A    
C37   H21   S    
C22   C24   S    
C42   C43   A    
C12   C34   S    
C28   C29   A    
C17   H3    S    
C41   H28   S    
C15   N1    A    
C45   C48   A    
C25   C30   A    
C15   C17   A    
C8    H2    S    
C46   C47   A    
C11   C17   A    
C1    O1    A    
C48   H35   S    
C14   H22   S    
C19   H24   S    
Cu1   O1    S    
C3    C5    A    
C22   H8    S    
C15   H36   S    
C6    C7    A    
C23   C38   S    
C21   H25   S    
C3    C46   A    
C16   O6    A    
C32   C33   A    
C19   C20   S    
C21   C23   S    
C2    C3    A    
C25   C26   A    
C38   C43   A    
C11   C13   A    
Cu2   O8    S    
C33   C35   A    
C19   C24   S    
C23   C25   S    
C10   C11   A    
C19   H1    S    
C35   H19   S    
Cu1   Cu2   S    
C21   C24   S    
C12   C18   S    
C27   C28   A    
C40   H27   S    
C9    H4    S    
Cu1   O5    S    
C20   H7    S    
C33   H18   S    
C4    O4    A    
