data_mof_unit_13311.cif
_audit_creation_date              2012-12-11T15:10:45-0500
_audit_creation_method            fapswitch 2.2
_symmetry_space_group_name_H-M    P1
_symmetry_Int_Tables_number       1
_space_group_crystal_system       triclinic
_cell_length_a                    21.121447
_cell_length_b                    7.235804
_cell_length_c                    18.254501
_cell_angle_alpha                 89.997528
_cell_angle_beta                  93.513375
_cell_angle_gamma                 89.999095
_cell_volume                      2784.60380115

loop_
_atom_site_label
_atom_site_type_symbol
_atom_type_description
_atom_site_fract_x
_atom_site_fract_y
_atom_site_fract_z
_atom_type_partial_charge
O1    O     O_R   0.448880 0.506250 0.415280 -0.521591
O2    O     O_R   0.551120 0.006250 0.584720 -0.521602
O3    O     O_R   0.434830 0.174000 0.557310 -0.519548
O4    O     O_R   0.565170 0.674000 0.442690 -0.519555
C1    C     C_R   0.416956 0.344586 0.579611 0.727937
C2    C     C_R   0.583043 0.844587 0.420388 0.727935
O5    O     O_R   0.441680 0.176440 0.414130 -0.526298
O6    O     O_R   0.558320 0.676440 0.585870 -0.526286
O7    O     O_R   0.558020 0.007570 0.440520 -0.514442
O8    O     O_R   0.441980 0.507570 0.559480 -0.514466
C3    C     C_R   0.428576 0.344528 0.387767 0.804126
C4    C     C_R   0.571426 0.844519 0.612232 0.804104
O9    O     O_3   0.538160 0.339670 0.508820 -0.373222
O10   O     O_3   0.461840 0.839670 0.491180 -0.373228
V1    V     V_3+5 0.492920 0.064260 0.498360 1.526486
V2    V     V_3+5 0.507080 0.564260 0.501640 1.526426
C5    C     C_R   0.873501 0.009077 0.689558 -0.132849
C6    C     C_R   0.126468 0.508677 0.310469 -0.132542
H1    H     H_    0.961747 0.034609 0.753041 0.112364
H2    H     H_    0.038222 0.534225 0.246981 0.112367
H3    H     H_    0.895090 0.051558 0.639950 0.163447
H4    H     H_    0.104863 0.550982 0.360088 0.163517
C7    C     C_R   0.886829 0.944657 0.819623 -0.039844
C8    C     C_R   0.113169 0.444609 0.180377 -0.039826
C9    C     C_R   0.581361 0.798080 0.748111 0.361732
C10   C     C_R   0.418662 0.298397 0.251872 0.361703
C11   C     C_R   0.619012 0.779620 0.813936 0.414121
C12   C     C_R   0.381024 0.280105 0.186031 0.414092
C13   C     C_R   0.683612 0.822667 0.816536 -0.309971
C14   C     C_R   0.316416 0.323050 0.183439 -0.309924
C15   C     C_R   0.714101 0.876055 0.753333 0.020886
C16   C     C_R   0.285905 0.376143 0.246664 0.020898
C17   C     C_R   0.676476 0.888986 0.685721 -0.061642
C18   C     C_R   0.323517 0.388899 0.314289 -0.061538
C19   C     C_R   0.780954 0.914351 0.755129 0.057719
C20   C     C_R   0.219044 0.414315 0.244875 0.057677
C21   C     C_R   0.808275 0.968479 0.689048 0.031079
C22   C     C_R   0.191702 0.468169 0.310976 0.031166
C23   C     C_R   0.770285 0.983896 0.623228 0.430787
C24   C     C_R   0.229673 0.483410 0.376815 0.430795
C25   C     C_R   0.705832 0.939909 0.621758 -0.233405
C26   C     C_R   0.294138 0.439507 0.378274 -0.233393
C27   C     C_R   0.821912 0.901731 0.820203 -0.184835
C28   C     C_R   0.178096 0.401819 0.179789 -0.184799
C29   C     C_R   0.911993 0.998839 0.754109 -0.184887
C30   C     C_R   0.087985 0.498557 0.245907 -0.184985
C31   C     C_R   0.610202 0.848731 0.683012 -0.260257
C32   C     C_R   0.389800 0.348782 0.316988 -0.260229
H5    H     H_    0.804986 0.862906 0.872487 0.097100
H6    H     H_    0.195036 0.363167 0.127493 0.097078
H7    H     H_    0.708528 0.811157 0.869543 0.153356
H8    H     H_    0.291511 0.311700 0.130420 0.153354
H9    H     H_    0.678954 0.947283 0.569414 0.106870
H10   H     H_    0.321006 0.446630 0.430628 0.106586
C33   C     C_1   0.864562 0.938986 0.132175 -0.201699
C34   C     C_1   0.135438 0.438991 0.867824 -0.201710
C35   C     C_1   0.821723 0.925018 0.175964 0.010818
C36   C     C_1   0.178276 0.425023 0.824035 0.010799
C37   C     C_1   0.771173 0.905996 0.228115 0.019763
C38   C     C_1   0.228826 0.406000 0.771882 0.019731
C39   C     C_1   0.728619 0.889392 0.272132 0.029786
C40   C     C_1   0.271378 0.389394 0.727865 0.029743
C41   C     C_1   0.678100 0.870194 0.324293 0.043314
C42   C     C_1   0.321897 0.370194 0.675704 0.043201
C43   C     C_1   0.635294 0.856005 0.368087 -0.126430
C44   C     C_1   0.364703 0.356002 0.631910 -0.126599
O11   O     O_R   0.058070 0.289240 0.940580 -0.520137
O12   O     O_R   0.941930 0.789240 0.059420 -0.520137
O13   O     O_R   0.058330 0.616740 0.085880 -0.531867
O14   O     O_R   0.941670 0.116740 0.914120 -0.531876
C45   C     C_R   0.072019 0.448954 0.111862 0.684703
C46   C     C_R   0.927981 0.948963 0.888137 0.684684
O15   O     O_R   0.065180 0.619040 0.942700 -0.521284
O16   O     O_R   0.934820 0.119040 0.057300 -0.521281
O17   O     O_R   0.948870 0.787780 0.915270 -0.530026
O18   O     O_R   0.051130 0.287780 0.084730 -0.530021
C47   C     C_R   0.083188 0.450330 0.920179 0.705562
C48   C     C_R   0.916812 0.950328 0.079821 0.705581
O19   O     O_3   0.961870 0.453310 0.991210 -0.365188
O20   O     O_3   0.038130 0.953310 0.008790 -0.365182
V3    V     V_3+5 0.007070 0.728770 0.001630 1.420973
V4    V     V_3+5 0.992930 0.228770 0.998370 1.420970
O21   O     O_3   0.797223 0.030773 0.558522 -0.556837
C49   C     C_3   0.780562 0.214723 0.540454 -0.254485
H11   H     H_    0.795366 0.311667 0.585731 0.138542
H12   H     H_    0.728824 0.228052 0.526024 0.135671
H13   H     H_    0.805812 0.256115 0.491521 0.172220
O22   O     O_3   0.202683 0.529933 0.441531 -0.556865
C50   C     C_3   0.219655 0.713399 0.460046 -0.254239
H14   H     H_    0.205422 0.811103 0.414813 0.138446
H15   H     H_    0.271342 0.725533 0.475013 0.135597
H16   H     H_    0.194121 0.754815 0.508768 0.172181
S1    S     S_3+6 0.498634 0.748151 0.747708 0.031282
O23   O     O_2   0.489010 0.548423 0.727401 -0.354592
O24   O     O_2   0.474074 0.780846 0.822177 -0.272985
O25   O     O_3   0.456958 0.881238 0.686497 -0.509114
H17   H     H_    0.414467 0.823182 0.680810 0.346991
S2    S     S_3+6 0.501398 0.248576 0.252278 0.031261
O26   O     O_2   0.511054 0.048850 0.272578 -0.354596
O27   O     O_2   0.525963 0.281346 0.177816 -0.272974
O28   O     O_3   0.543045 0.381682 0.313501 -0.509096
H18   H     H_    0.585540 0.323655 0.319206 0.347007
O29   O     O_3   0.592138 0.726111 0.877769 -0.511780
C51   C     C_3   0.605135 0.536979 0.889935 -0.057370
H19   H     H_    0.586803 0.450752 0.842736 0.152285
H20   H     H_    0.580644 0.491638 0.938888 0.189775
H21   H     H_    0.656793 0.512413 0.901416 0.086974
O30   O     O_3   0.407917 0.226880 0.122176 -0.511803
C52   C     C_3   0.394964 0.037765 0.109910 -0.057320
H22   H     H_    0.413318 0.951407 0.157064 0.152341
H23   H     H_    0.419464 0.992655 0.060932 0.189760
H24   H     H_    0.343311 0.013132 0.098419 0.086987

loop_
_geom_bond_atom_site_label_1
_geom_bond_atom_site_label_2
_ccdc_geom_bond_type
C14   C16   A    
C41   C43   T    
C9    S1    S    
S1    O23   D    
C7    C29   A    
C11   C13   A    
O11   C47   A    
C49   H13   S    
O2    C4    A    
C2    O7    A    
C51   H20   S    
C23   C25   A    
O5    C3    A    
O28   H18   S    
O12   V3    S    
C16   C20   A    
C19   C21   A    
C5    C29   A    
C4    C31   S    
C45   O18   A    
C35   C37   S    
C36   C38   S    
C7    C27   A    
O30   C52   S    
C38   C40   T    
O6    V2    S    
O13   C45   A    
C40   C42   S    
C2    C43   S    
C18   C26   A    
O1    C3    A    
C15   C17   A    
C50   H15   S    
C19   C27   A    
C9    C31   A    
C10   C32   A    
C24   C26   A    
S1    O24   D    
C3    C32   S    
O16   V4    S    
C46   O17   A    
C6    C30   A    
O15   V3    S    
C51   H19   S    
O12   C48   A    
C37   C39   T    
C49   H11   S    
O4    C2    A    
C52   H24   S    
O18   V4    S    
C33   C48   S    
C27   H5    S    
O5    V1    S    
C5    H3    S    
C34   C47   S    
C16   C18   A    
O4    V2    S    
O21   C49   S    
O6    C4    A    
O25   H17   S    
C39   C41   S    
O1    V2    S    
C5    C21   A    
C50   H16   S    
O2    V1    S    
C25   H9    S    
C10   S2    S    
S1    O25   S    
S2    O27   D    
C33   C35   T    
C17   C31   A    
C15   C19   A    
C20   C28   A    
C18   C32   A    
C20   C22   A    
O3    V1    S    
C13   H7    S    
C28   H6    S    
C14   H8    S    
C6    H4    S    
C7    C46   S    
O17   V3    S    
C49   H12   S    
O20   V3    S    
O3    C1    A    
O19   V4    S    
H1    C29   S    
C9    C11   A    
S2    O28   S    
C10   C12   A    
C17   C25   A    
C24   O22   S    
C52   H23   S    
C6    C22   A    
C8    C30   A    
C12   C14   A    
C21   C23   A    
O8    V2    S    
C52   H22   S    
C1    C44   S    
C22   C24   A    
C12   O30   S    
C8    C28   A    
C11   O29   S    
C34   C36   T    
O7    V1    S    
O14   V4    S    
H2    C30   S    
O13   V3    S    
C23   O21   S    
C1    O8    A    
O22   C50   S    
O11   V4    S    
C13   C15   A    
S2    O26   D    
O16   C48   A    
O9    V2    S    
O29   C51   S    
O15   C47   A    
O10   V1    S    
O14   C46   A    
C50   H14   S    
C51   H21   S    
C26   H10   S    
C8    C45   S    
C42   C44   T    
