data_mof_unit_18240.cif
_audit_creation_date              2012-12-10T20:45:31-0500
_audit_creation_method            fapswitch 2.2
_symmetry_space_group_name_H-M    P1
_symmetry_Int_Tables_number       1
_space_group_crystal_system       triclinic
_cell_length_a                    10.740964
_cell_length_b                    10.728145
_cell_length_c                    9.900049
_cell_angle_alpha                 88.343509
_cell_angle_beta                  90.251255
_cell_angle_gamma                 90.460108
_cell_volume                      1140.26543045

loop_
_atom_site_label
_atom_site_type_symbol
_atom_type_description
_atom_site_fract_x
_atom_site_fract_y
_atom_site_fract_z
_atom_type_partial_charge
C1    C     C_R   0.499821 0.260506 0.501359 0.867869
C2    C     C_R   0.220300 0.684812 0.014046 -0.054828
C3    C     C_R   0.932677 0.538593 0.387536 -0.223931
C4    C     C_R   0.872075 0.491096 0.502071 -0.081967
C5    C     C_R   0.938777 0.445338 0.615586 0.019588
C6    C     C_R   0.066777 0.453860 0.613197 -0.215952
C7    C     C_R   0.127381 0.503200 0.498524 -0.053582
C8    C     C_R   0.060059 0.545326 0.383716 -0.000258
C9    C     C_R   0.875778 0.442643 0.858650 -0.137413
C10   C     C_R   0.819237 0.383883 0.970658 -0.213485
C11   C     C_R   0.765357 0.265677 0.959250 -0.163634
C12   C     C_R   0.260132 0.502361 0.499414 0.872924
C13   C     C_R   0.768226 0.205633 0.835737 0.329398
C14   C     C_R   0.824474 0.264324 0.723250 -0.172780
C15   C     C_R   0.878968 0.383073 0.734359 0.081474
C16   C     C_R   0.434679 0.057162 0.591967 0.027829
C17   C     C_R   0.504035 0.129133 0.501644 -0.043264
C18   C     C_R   0.574407 0.069189 0.403077 -0.207499
C19   C     C_R   0.573542 0.939212 0.399433 -0.154165
C20   C     C_R   0.502151 0.870321 0.494081 -0.116365
C21   C     C_R   0.433708 0.932897 0.586998 0.080210
C22   C     C_3   0.345332 0.914459 0.700066 0.763386
C23   C     C_R   0.501375 0.739240 0.498051 0.915176
C24   C     C_3   0.343799 0.057100 0.705653 -0.550680
C25   C     C_R   0.414584 0.430918 0.073240 0.188930
C26   C     C_R   0.574806 0.579250 0.068074 0.274047
C27   C     C_R   0.574762 0.578627 0.924820 -0.068280
C28   C     C_R   0.414207 0.431540 0.931047 0.179416
C29   C     C_3   0.398115 0.294326 0.930510 -0.510587
C30   C     C_3   0.397803 0.293417 0.083605 -0.464486
C31   C     C_R   0.739603 0.495278 0.500793 0.885906
C32   C     C_R   0.237724 0.751034 0.132299 -0.095976
C33   C     C_R   0.185496 0.706391 0.253628 -0.096483
C34   C     C_R   0.117013 0.594236 0.256849 0.148096
C35   C     C_R   0.100128 0.528548 0.137411 -0.162178
C36   C     C_R   0.151435 0.574081 0.016471 -0.167363
H1    H     H_    0.260611 0.718031 0.920359 0.229902
H2    H     H_    0.721578 0.220820 0.046341 0.153932
H3    H     H_    0.826199 0.217565 0.627745 0.143778
H4    H     H_    0.629870 0.122280 0.330194 0.157737
H5    H     H_    0.629512 0.893606 0.325521 0.212875
H6    H     H_    0.253625 0.100450 0.676318 0.188175
H7    H     H_    0.386082 0.088192 0.800393 0.241893
H8    H     H_    0.291620 0.836751 0.129908 0.170861
H9    H     H_    0.637223 0.639814 0.868146 0.201318
H10   H     H_    0.306622 0.268037 0.886377 0.200721
H11   H     H_    0.481615 0.248994 0.888682 0.239170
H12   H     H_    0.306274 0.266429 0.128000 0.207776
H13   H     H_    0.479541 0.245011 0.129362 0.219694
H14   H     H_    0.198966 0.758318 0.344749 0.150320
H15   H     H_    0.048288 0.441546 0.138496 0.135809
H16   H     H_    0.139798 0.522488 0.924966 0.143811
H17   H     H_    0.880848 0.572803 0.300386 0.204932
H18   H     H_    0.119195 0.417161 0.699225 0.151396
H19   H     H_    0.915335 0.535118 0.868061 0.168840
H20   H     H_    0.816588 0.430246 0.066236 0.170875
N1    N     N_R   0.499160 0.499140 0.142800 -0.138366
N2    N     N_R   0.499160 0.499180 0.857150 -0.131576
O1    O     O_R   0.500020 0.316790 0.614690 -0.612832
O2    O     O_R   0.500000 0.316760 0.385350 -0.638158
O3    O     O_R   0.316770 0.500030 0.614670 -0.612142
O4    O     O_R   0.316750 0.499990 0.385330 -0.619411
O5    O     O_R   0.500000 0.683240 0.614650 -0.567555
O6    O     O_R   0.499980 0.683210 0.385310 -0.593128
O7    O     O_R   0.683250 0.500010 0.614670 -0.614604
O8    O     O_R   0.683230 0.499970 0.385330 -0.603835
Zn1   Zn    Zn3+2 0.500010 0.500020 0.653130 0.993807
Zn2   Zn    Zn3+2 0.499990 0.499980 0.346870 0.979370
Br1   Br    Br    0.697202 0.042739 0.821540 -0.473604
Br2   Br    Br    0.188677 0.838328 0.647139 -0.575790
F1    F     F_    0.402249 0.858666 0.811579 -0.646518
Br3   Br    Br    0.686122 0.693293 0.150785 -0.518564

loop_
_geom_bond_atom_site_label_1
_geom_bond_atom_site_label_2
_ccdc_geom_bond_type
C11   H2    S    
O8    Zn2   S    
C16   C21   A    
C9    H19   S    
C28   N2    A    
C31   O8    A    
C11   C13   A    
C9    C10   A    
O3    Zn1   S    
C1    C17   S    
C19   C20   A    
C36   H16   S    
C20   C23   S    
O4    Zn2   S    
C29   H10   S    
C32   C33   A    
C27   H9    S    
C23   O5    A    
C17   C18   A    
C32   H8    S    
C19   H5    S    
C7    C8    A    
C16   C24   S    
C8    C34   S    
C21   C22   S    
C25   C28   A    
C12   O3    A    
C3    H17   S    
C2    H1    S    
O2    Zn2   S    
C26   C27   A    
C29   C30   S    
C25   N1    A    
C29   H11   S    
O6    Zn2   S    
C30   H12   S    
C28   C29   S    
C30   H13   S    
C22   F1    S    
C33   C34   A    
C6    C7    A    
O5    Zn1   S    
C10   H20   S    
C1    O1    A    
C3    C8    A    
C35   H15   S    
C5    C6    A    
C26   N1    A    
C22   C24   S    
C7    C12   S    
C5    C15   S    
C4    C31   S    
C16   C17   A    
C10   C11   A    
C13   Br1   S    
N1    Zn2   S    
C3    C4    A    
C23   O6    A    
N2    Zn1   S    
C12   O4    A    
C20   C21   A    
C24   H6    S    
C2    C32   A    
C34   C35   A    
C26   Br3   S    
C1    O2    A    
C2    C36   A    
C25   C30   S    
C31   O7    A    
C24   H7    S    
C18   H4    S    
C14   C15   A    
C18   C19   A    
C33   H14   S    
O1    Zn1   S    
C14   H3    S    
C13   C14   A    
C22   Br2   S    
C6    H18   S    
C35   C36   A    
C9    C15   A    
C4    C5    A    
O7    Zn1   S    
C27   N2    A    
