data_mof_unit_38878.cif
_audit_creation_date              2012-12-11T16:56:12-0500
_audit_creation_method            fapswitch 2.2
_symmetry_space_group_name_H-M    P1
_symmetry_Int_Tables_number       1
_space_group_crystal_system       triclinic
_cell_length_a                    6.966191
_cell_length_b                    14.529774
_cell_length_c                    16.199664
_cell_angle_alpha                 90.509603
_cell_angle_beta                  90.042293
_cell_angle_gamma                 89.966195
_cell_volume                      1639.61873997

loop_
_atom_site_label
_atom_site_type_symbol
_atom_type_description
_atom_site_fract_x
_atom_site_fract_y
_atom_site_fract_z
_atom_type_partial_charge
O1    O     O_R   0.505830 0.583360 0.413880 -0.536201
O2    O     O_R   0.175830 0.595460 0.585520 -0.542867
O3    O     O_R   0.005520 0.416640 0.586120 -0.539029
C1    C     C_R   0.344534 0.617385 0.614456 0.696018
O4    O     O_R   0.176120 0.594390 0.414490 -0.542230
O5    O     O_R   0.005810 0.415570 0.413870 -0.539238
C2    C     C_R   0.344824 0.616262 0.385926 0.696326
O6    O     O_R   0.505540 0.584430 0.586130 -0.536230
O7    O     O_3   0.339200 0.441330 0.500000 -0.370325
V1    V     V_3+5 0.064350 0.510880 0.500000 1.384482
O8    O     O_R   0.676100 0.404540 0.414480 -0.539325
C3    C     C_R   0.845122 0.382162 0.386106 0.695033
O9    O     O_R   0.675810 0.405610 0.585510 -0.547181
C4    C     C_R   0.844926 0.386191 0.615354 0.680141
V2    V     V_3+5 0.564340 0.489120 0.500000 1.390622
O10   O     O_3   0.839360 0.558670 0.500000 -0.369970
C5    C     C_2   0.724610 0.210288 0.786564 -0.107796
C6    C     C_2   0.887068 0.173183 0.816885 -0.279229
H1    H     H_    0.587493 0.192338 0.813907 0.130237
H2    H     H_    0.023376 0.184628 0.786555 0.165730
C7    C     C_2   0.719324 0.270313 0.712437 -0.128586
C8    C     C_2   0.860674 0.328841 0.690300 0.048362
H3    H     H_    0.588729 0.267578 0.675814 0.096130
C9    C     C_R   0.725932 0.245411 0.191590 0.106531
C10   C     C_R   0.882559 0.185539 0.183439 -0.111212
C11   C     C_R   0.035024 0.196603 0.239774 -0.179251
H4    H     H_    0.158382 0.151715 0.236117 0.131097
C12   C     C_R   0.023236 0.260939 0.305200 -0.180372
H5    H     H_    0.138996 0.264562 0.349585 0.130345
C13   C     C_R   0.857992 0.315571 0.316534 -0.110760
C14   C     C_R   0.713869 0.308786 0.256522 0.099177
C15   C     C_3   0.504422 0.292291 0.267141 -0.416545
C16   C     C_3   0.517477 0.223592 0.196131 -0.396177
H6    H     H_    0.417354 0.354117 0.252286 0.173594
H7    H     H_    0.471626 0.259734 0.327327 0.170273
H8    H     H_    0.438536 0.245843 0.140081 0.176952
H9    H     H_    0.491499 0.151276 0.214995 0.165744
C17   C     C_R   0.509356 0.746660 0.691669 0.102046
C18   C     C_R   0.352488 0.687233 0.681910 -0.111904
C19   C     C_R   0.200406 0.696959 0.738635 -0.177359
H10   H     H_    0.076995 0.652270 0.734033 0.129825
C20   C     C_R   0.212584 0.759505 0.805597 -0.179241
H11   H     H_    0.096848 0.762113 0.849969 0.129467
C21   C     C_R   0.377962 0.813685 0.818315 -0.110311
C22   C     C_R   0.521786 0.808235 0.758085 0.101664
C23   C     C_3   0.731228 0.791182 0.768243 -0.416040
C24   C     C_3   0.717765 0.724540 0.695662 -0.396798
H12   H     H_    0.764191 0.756862 0.827638 0.170360
H13   H     H_    0.818377 0.853334 0.754818 0.172399
H14   H     H_    0.743749 0.651667 0.712831 0.167279
H15   H     H_    0.796475 0.748343 0.640141 0.173494
C25   C     C_R   0.509594 0.746070 0.311599 0.102675
C26   C     C_R   0.352911 0.686412 0.319807 -0.112371
C27   C     C_R   0.200533 0.696874 0.263414 -0.177847
H16   H     H_    0.077087 0.652182 0.266939 0.131715
C28   C     C_R   0.212363 0.760277 0.198096 -0.179227
C29   C     C_R   0.377614 0.814691 0.186747 -0.109475
C30   C     C_R   0.521721 0.808480 0.246787 0.099183
C31   C     C_3   0.731150 0.791666 0.236192 -0.416245
C32   C     C_3   0.718033 0.724111 0.307026 -0.396276
H17   H     H_    0.818212 0.853681 0.251242 0.172184
H18   H     H_    0.763984 0.758110 0.175916 0.170769
H19   H     H_    0.796881 0.747241 0.363163 0.173750
H20   H     H_    0.744046 0.651470 0.287973 0.167198
O11   O     O_R   0.229930 0.912420 0.917160 -0.540683
O12   O     O_R   0.559420 0.902500 0.088780 -0.539987
O13   O     O_R   0.729660 0.081330 0.089380 -0.536882
C33   C     C_R   0.390437 0.880437 0.117199 0.689759
O14   O     O_R   0.559650 0.901420 0.917750 -0.539871
O15   O     O_R   0.729880 0.080250 0.917130 -0.536575
C34   C     C_R   0.390642 0.879219 0.889042 0.693254
O16   O     O_R   0.229700 0.913500 0.089410 -0.540869
O17   O     O_3   0.396250 0.055540 0.003280 -0.368791
V3    V     V_3+5 0.671130 0.986010 0.003260 1.396016
O18   O     O_R   0.059600 0.091310 0.917720 -0.541869
C35   C     C_R   0.891077 0.111377 0.888483 0.730457
O19   O     O_R   0.059370 0.092380 0.088750 -0.542157
C36   C     C_R   0.890645 0.114550 0.117313 0.698817
V4    V     V_3+5 0.171120 0.007820 0.003230 1.394568
O20   O     O_3   0.896130 0.938240 0.003240 -0.373734
H21   H     H_    0.096493 0.763326 0.153783 0.129937
N1    N     N_3   0.025545 0.341966 0.742455 -0.664172
H22   H     H_    0.148531 0.325730 0.708324 0.225643
H23   H     H_    0.032785 0.411615 0.758979 0.221952

loop_
_geom_bond_atom_site_label_1
_geom_bond_atom_site_label_2
_ccdc_geom_bond_type
O12   C33   A    
O11   V4    S    
O17   V3    S    
C1    O6    A    
C28   H21   S    
O19   C36   A    
C21   C22   A    
C23   H13   S    
C11   H4    S    
C32   H19   S    
C8    N1    S    
C12   H5    S    
O16   V4    S    
O5    C3    A    
C13   C14   A    
V2    O10   S    
O12   V3    S    
C16   H8    S    
C28   C29   A    
C21   C34   S    
O14   C34   A    
C17   C22   A    
C25   C32   S    
C27   H16   S    
O8    V2    S    
O15   V3    S    
O1    V2    S    
O7    V1    S    
C19   C20   A    
C31   C32   S    
V3    O20   S    
O9    C4    A    
O13   C36   A    
C20   C21   A    
C24   H14   S    
C27   C28   A    
O19   V4    S    
C23   H12   S    
C31   H17   S    
C10   C36   S    
C15   H7    S    
C9    C10   A    
C18   C19   A    
O4    C2    A    
C24   H15   S    
C10   C11   A    
C26   C27   A    
C16   H9    S    
C15   H6    S    
O2    C1    A    
O18   C35   A    
C14   C15   S    
C1    C18   S    
C33   O16   A    
C5    C6    D    
O17   V4    S    
O14   V3    S    
O13   V3    S    
C17   C24   S    
O3    C4    A    
C25   C30   A    
C19   H10   S    
O6    V2    S    
N1    H23   S    
O9    V2    S    
O15   C35   A    
C20   H11   S    
C2    C26   S    
C29   C33   S    
O2    V1    S    
C25   C26   A    
C23   C24   S    
C31   H18   S    
C6    C35   S    
C3    C13   S    
O1    C2    A    
O5    V1    S    
O8    C3    A    
C11   C12   A    
C9    C16   S    
C32   H20   S    
C15   C16   S    
C4    C8    S    
C7    H3    S    
C30   C31   S    
C9    C14   A    
O4    V1    S    
O3    V1    S    
O11   C34   A    
C29   C30   A    
C17   C18   A    
C12   C13   A    
C5    H1    S    
C6    H2    S    
O7    V2    S    
C5    C7    S    
V4    O20   S    
C22   C23   S    
N1    H22   S    
V1    O10   S    
C7    C8    D    
O18   V4    S    
