data_mof_unit_56495.cif
_audit_creation_date              2012-12-10T18:13:16-0500
_audit_creation_method            fapswitch 2.2
_symmetry_space_group_name_H-M    P1
_symmetry_Int_Tables_number       1
_space_group_crystal_system       triclinic
_cell_length_a                    10.778638
_cell_length_b                    9.555952
_cell_length_c                    19.31309
_cell_angle_alpha                 90.029249
_cell_angle_beta                  86.814844
_cell_angle_gamma                 90.030023
_cell_volume                      1986.17760274

loop_
_atom_site_label
_atom_site_type_symbol
_atom_type_description
_atom_site_fract_x
_atom_site_fract_y
_atom_site_fract_z
_atom_type_partial_charge
C1    C     C_R   0.259933 0.499920 0.504269 0.818283
C2    C     C_R   0.556871 0.491919 0.068814 0.359022
C3    C     C_R   0.542548 0.620918 0.819349 0.128616
C4    C     C_R   0.534718 0.365542 0.816838 0.139148
C5    C     C_R   0.496656 0.623823 0.751994 0.166827
C6    C     C_R   0.487384 0.371820 0.750322 0.162715
C7    C     C_R   0.492125 0.498863 0.712435 -0.150037
C8    C     C_R   0.559523 0.490787 0.852266 -0.024951
C9    C     C_3   0.063816 0.628282 0.549780 -0.085617
C10   C     C_3   0.065359 0.359728 0.539825 -0.061956
C11   C     C_3   0.919004 0.622112 0.551019 0.272687
C12   C     C_3   0.922433 0.355926 0.531883 0.296754
C13   C     C_3   0.079067 0.509086 0.429846 0.690436
C14   C     C_3   0.120682 0.499698 0.507303 -0.100835
C15   C     C_3   0.876497 0.499717 0.504289 -0.042668
C16   C     C_R   0.502817 0.499885 0.367492 0.810892
C17   C     C_3   0.934956 0.521850 0.430164 -0.626601
C18   C     C_3   0.588417 0.083132 0.551080 0.334688
C19   C     C_3   0.591779 0.917645 0.549225 0.330107
C20   C     C_3   0.373472 0.083097 0.516197 0.295142
C21   C     C_3   0.373659 0.916861 0.516996 0.267308
C22   C     C_3   0.543035 0.084572 0.431111 -0.059944
C23   C     C_3   0.541500 0.915500 0.430776 -0.046518
C24   C     C_R   0.739138 0.499977 0.501185 0.875127
C25   C     C_R   0.493331 0.499970 0.633661 0.823197
C26   C     C_R   0.524877 0.624583 0.253673 -0.160134
C27   C     C_R   0.523970 0.371728 0.254945 -0.178946
C28   C     C_R   0.540651 0.625020 0.181368 0.408721
C29   C     C_R   0.542881 0.368084 0.182957 0.412430
C30   C     C_R   0.550192 0.495520 0.145052 -0.154811
C31   C     C_R   0.515513 0.498944 0.290969 -0.200325
C32   C     C_R   0.563844 0.486550 0.928548 0.423010
Cu1   Cu    Cu3+1 0.499860 0.642410 0.500030 0.979420
Cu2   Cu    Cu3+1 0.499860 0.357590 0.500030 0.975892
H1    H     H_    0.518228 0.723965 0.280589 0.182928
H2    H     H_    0.518070 0.273376 0.282767 0.182347
H3    H     H_    0.906160 0.625592 0.410385 0.161463
H4    H     H_    0.897019 0.443186 0.394322 0.211743
H5    H     H_    0.683646 0.120949 0.536178 0.072099
H6    H     H_    0.687110 0.886789 0.530309 0.059684
H7    H     H_    0.475110 0.117832 0.392953 0.150240
H8    H     H_    0.471445 0.883980 0.393416 0.151822
H9    H     H_    0.314856 0.114185 0.473041 0.093363
H10   H     H_    0.313557 0.883754 0.474841 0.107472
H11   H     H_    0.092249 0.724240 0.520634 0.148285
H12   H     H_    0.105212 0.270791 0.508655 0.185214
H13   H     H_    0.886548 0.722789 0.528712 0.043279
H14   H     H_    0.903449 0.274889 0.492037 0.063247
N1    N     N_R   0.462967 0.432901 0.035281 -0.197579
N2    N     N_R   0.655254 0.547197 0.031152 -0.216079
N3    N     N_R   0.466266 0.430715 0.966430 -0.216153
N4    N     N_R   0.658591 0.544819 0.962037 -0.226308
N5    N     N_3   0.500250 0.143650 0.501520 -0.180976
N6    N     N_3   0.500250 0.856350 0.501520 -0.181144
O1    O     O_R   0.317570 0.620260 0.500040 -0.535273
O2    O     O_R   0.317570 0.379740 0.500040 -0.562051
O3    O     O_R   0.499870 0.620300 0.400170 -0.592541
O4    O     O_R   0.499870 0.379700 0.400170 -0.612983
O5    O     O_R   0.682190 0.620260 0.500020 -0.602461
O6    O     O_R   0.682190 0.379740 0.500020 -0.580865
O7    O     O_R   0.499890 0.620220 0.599880 -0.492801
O8    O     O_R   0.499890 0.379780 0.599880 -0.486035
O9    O     O_3   0.561369 0.130481 0.618698 -0.704025
H15   H     H_    0.639150 0.126263 0.643940 0.311756
O10   O     O_3   0.576293 0.862577 0.616085 -0.708521
H16   H     H_    0.656155 0.873790 0.638869 0.294149
O11   O     O_3   0.313365 0.143206 0.575080 -0.706436
H17   H     H_    0.346662 0.102531 0.616848 0.360920
O12   O     O_3   0.315410 0.859606 0.577081 -0.716596
H18   H     H_    0.362789 0.887024 0.616838 0.363893
C33   C     C_3   0.669555 0.146001 0.400464 -0.722279
H19   H     H_    0.685496 0.112436 0.345740 0.215174
H20   H     H_    0.675778 0.259529 0.396621 0.255438
H21   H     H_    0.750542 0.113933 0.429336 0.186909
C34   C     C_3   0.666261 0.852988 0.397922 -0.729393
H22   H     H_    0.750100 0.888668 0.423246 0.186893
H23   H     H_    0.676420 0.882280 0.342325 0.213182
H24   H     H_    0.674847 0.739599 0.396761 0.257038
O13   O     O_3   0.542977 0.754266 0.149155 -0.696102
H25   H     H_    0.539268 0.743062 0.098483 0.343658
O14   O     O_3   0.554139 0.237576 0.152326 -0.694040
H26   H     H_    0.589847 0.246764 0.104269 0.340210
C35   C     C_3   0.562720 0.755728 0.858837 -0.814289
H27   H     H_    0.554247 0.850870 0.826772 0.227987
H28   H     H_    0.494613 0.763337 0.903976 0.240430
H29   H     H_    0.658412 0.757591 0.877221 0.248955
C36   C     C_3   0.551741 0.224096 0.850724 -0.813921
H30   H     H_    0.599213 0.151263 0.813070 0.225759
H31   H     H_    0.611065 0.230107 0.895774 0.237761
H32   H     H_    0.460170 0.179626 0.868266 0.244942
C37   C     C_3   0.413647 0.744301 0.735044 -0.792103
H33   H     H_    0.347575 0.765621 0.780028 0.220592
H34   H     H_    0.467132 0.841077 0.724225 0.264173
H35   H     H_    0.354871 0.717579 0.692183 0.237259
C38   C     C_3   0.398491 0.257961 0.731878 -0.783089
H36   H     H_    0.324817 0.247949 0.774135 0.213597
H37   H     H_    0.349347 0.285000 0.685438 0.246090
H38   H     H_    0.445423 0.155359 0.726459 0.263763
C39   C     C_3   0.114778 0.654421 0.622179 -0.726146
H39   H     H_    0.214155 0.626916 0.622837 0.228671
H40   H     H_    0.104270 0.766923 0.635802 0.235817
H41   H     H_    0.065614 0.596429 0.664741 0.251783
C40   C     C_3   0.101305 0.329115 0.614743 -0.708016
H42   H     H_    0.097017 0.214660 0.624537 0.234306
H43   H     H_    0.196311 0.366249 0.623223 0.224541
H44   H     H_    0.037068 0.377426 0.654408 0.274671
O15   O     O_3   0.864137 0.606558 0.618490 -0.664641
H45   H     H_    0.854653 0.701801 0.638674 0.309354
O16   O     O_3   0.855537 0.319790 0.594107 -0.669286
H46   H     H_    0.863471 0.216926 0.599599 0.291847
O17   O     O_3   0.136688 0.622863 0.393680 -0.720316
H47   H     H_    0.096544 0.711643 0.409027 0.294942
O18   O     O_3   0.112801 0.385148 0.393781 -0.730106
H48   H     H_    0.203068 0.389770 0.380631 0.345832

loop_
_geom_bond_atom_site_label_1
_geom_bond_atom_site_label_2
_ccdc_geom_bond_type
Cu1   O1    S    
C36   H30   S    
Cu2   O2    S    
C27   C29   A    
C20   O11   S    
C11   H13   S    
C38   H36   S    
C12   H14   S    
O14   H26   S    
C38   H38   S    
C4    C36   S    
C16   C31   S    
C9    H11   S    
C23   H8    S    
C10   C40   S    
C1    O2    A    
C21   N6    S    
C18   O9    S    
C22   H7    S    
Cu2   O8    S    
C18   C19   S    
C28   O13   S    
C32   N4    A    
C2    N2    A    
C18   N5    S    
C11   C15   S    
O17   H47   S    
N1    N3    A    
C10   H12   S    
N2    N4    A    
O15   H45   S    
C4    C8    A    
C25   O8    A    
C26   C31   A    
Cu1   O5    S    
C13   C14   S    
Cu2   O6    S    
C16   O3    A    
O12   H18   S    
C12   O16   S    
C22   N5    S    
C27   C31   A    
O11   H17   S    
C8    C32   S    
C4    C6    A    
C3    C8    A    
C10   C14   S    
C37   H33   S    
C5    C7    A    
C9    C14   S    
C17   H3    S    
O9    H15   S    
C21   O12   S    
C25   O7    A    
C34   H22   S    
C32   N3    A    
C29   O14   S    
C29   C30   A    
C2    N1    A    
C37   H34   S    
C21   H10   S    
C34   H23   S    
C35   H27   S    
C12   C15   S    
C24   O6    A    
C39   H41   S    
Cu1   Cu2   S    
C40   H43   S    
C16   O4    A    
C9    C11   S    
C5    C37   S    
C10   C12   S    
C19   N6    S    
Cu1   O7    S    
C15   C24   S    
C35   H28   S    
C6    C38   S    
C36   H31   S    
C3    C35   S    
C22   C33   S    
C20   H9    S    
C23   N6    S    
C33   H20   S    
O18   H48   S    
Cu1   N6    S    
C15   C17   S    
Cu1   O3    S    
C39   H40   S    
C23   C34   S    
C20   N5    S    
C3    C5    A    
C33   H21   S    
C38   H37   S    
C6    C7    A    
C27   H2    S    
C26   C28   A    
C7    C25   S    
C39   H39   S    
C13   C17   S    
C2    C30   S    
C28   C30   A    
C1    O1    A    
C33   H19   S    
C13   O17   S    
O16   H46   S    
C37   H35   S    
C11   O15   S    
C24   O5    A    
C19   O10   S    
C40   H44   S    
C17   H4    S    
C18   H5    S    
C34   H24   S    
C19   H6    S    
O13   H25   S    
C26   H1    S    
C35   H29   S    
C20   C21   S    
Cu2   N5    S    
C9    C39   S    
O10   H16   S    
C36   H32   S    
C40   H42   S    
Cu2   O4    S    
C22   C23   S    
C1    C14   S    
C13   O18   S    
