data_mof_unit_6688.cif
_audit_creation_date              2012-12-10T20:46:34-0500
_audit_creation_method            fapswitch 2.2
_symmetry_space_group_name_H-M    P1
_symmetry_Int_Tables_number       1
_space_group_crystal_system       triclinic
_cell_length_a                    10.516831
_cell_length_b                    8.937986
_cell_length_c                    8.101218
_cell_angle_alpha                 90.000088
_cell_angle_beta                  101.749691
_cell_angle_gamma                 90.000115
_cell_volume                      745.552506662

loop_
_atom_site_label
_atom_site_type_symbol
_atom_type_description
_atom_site_fract_x
_atom_site_fract_y
_atom_site_fract_z
_atom_type_partial_charge
C1    C     C_R   0.500000 0.217927 0.500000 0.906946
C2    C     C_1   0.500000 0.934857 0.500000 -0.199496
C3    C     C_3   0.846559 0.279494 0.341513 -0.336435
C4    C     C_3   0.920570 0.162653 0.259749 -0.893478
C5    C     C_3   0.153440 0.279454 0.658439 -0.336420
C6    C     C_3   0.079416 0.162627 0.740203 -0.893463
C7    C     C_R   0.500000 0.782074 0.500000 0.948996
C8    C     C_R   0.257335 0.489529 0.433912 0.922522
C9    C     C_R   0.742665 0.489526 0.566088 0.922515
C10   C     C_2   0.119969 0.453776 0.404555 -0.446558
C11   C     C_2   0.880030 0.453761 0.595445 -0.446543
C12   C     C_2   0.070500 0.364017 0.510716 0.192494
C13   C     C_2   0.929497 0.364016 0.489270 0.192494
C14   C     C_1   0.500000 0.065190 0.500000 -0.201049
H1    H     H_    0.943473 0.504766 0.703647 0.148149
H2    H     H_    0.148438 0.102870 0.840599 0.255317
H3    H     H_    0.232729 0.220205 0.613164 0.208561
H4    H     H_    0.196783 0.360135 0.758397 0.224355
H5    H     H_    0.056525 0.504800 0.296365 0.148147
H6    H     H_    0.995291 0.216811 0.200820 0.263832
H7    H     H_    0.967405 0.079069 0.353818 0.262518
H8    H     H_    0.851557 0.102972 0.159276 0.255318
H9    H     H_    0.767245 0.220261 0.386747 0.208588
H10   H     H_    0.803252 0.360201 0.241568 0.224346
H11   H     H_    0.004762 0.216815 0.799228 0.263819
H12   H     H_    0.032494 0.079105 0.646114 0.262530
N1    N     N_1   0.500020 0.500000 0.073650 -0.040299
N2    N     N_1   0.499980 0.500000 0.926350 -0.040300
O1    O     O_R   0.499990 0.285340 0.636850 -0.620767
O2    O     O_R   0.500010 0.714660 0.363150 -0.608309
O3    O     O_R   0.500010 0.285340 0.363150 -0.620771
O4    O     O_R   0.499990 0.714660 0.636850 -0.608310
O5    O     O_R   0.317810 0.500000 0.585760 -0.622680
O6    O     O_R   0.682190 0.500000 0.414240 -0.622684
O7    O     O_R   0.317820 0.500000 0.312020 -0.603522
O8    O     O_R   0.682180 0.500000 0.687980 -0.603521
Zn1   Zn    Zn3+2 0.499990 0.500000 0.682780 0.966581
Zn2   Zn    Zn3+2 0.500010 0.500000 0.317220 0.966580

loop_
_geom_bond_atom_site_label_1
_geom_bond_atom_site_label_2
_ccdc_geom_bond_type
C9    O8    A    
C5    H4    S    
C11   C13   D    
C3    H9    S    
C2    C7    S    
C3    C13   S    
O3    Zn2   S    
C10   H5    S    
C1    O1    A    
C7    O2    A    
O4    Zn1   S    
C7    O4    A    
C4    H7    S    
C9    C11   S    
C3    H10   S    
C6    H12   S    
C10   C12   D    
N2    Zn1   S    
C5    C6    S    
O8    Zn1   S    
C8    O5    A    
C9    O6    A    
C2    C14   T    
C6    H11   S    
C5    H3    S    
N1    Zn2   S    
C6    H2    S    
C3    C4    S    
C4    H6    S    
C1    O3    A    
O7    Zn2   S    
C4    H8    S    
C12   C13   S    
O2    Zn2   S    
C5    C12   S    
C8    C10   S    
O1    Zn1   S    
N1    N2    T    
C1    C14   S    
O6    Zn2   S    
C11   H1    S    
O5    Zn1   S    
C8    O7    A    
