data_mof_unit_60559.cif
_audit_creation_date              2012-12-10T18:59:41-0500
_audit_creation_method            fapswitch 2.2
_symmetry_space_group_name_H-M    P1
_symmetry_Int_Tables_number       1
_space_group_crystal_system       triclinic
_cell_length_a                    26.208251
_cell_length_b                    34.498363
_cell_length_c                    34.571897
_cell_angle_alpha                 89.999655
_cell_angle_beta                  90.000379
_cell_angle_gamma                 89.98916
_cell_volume                      31257.8951217

loop_
_atom_site_label
_atom_site_type_symbol
_atom_type_description
_atom_site_fract_x
_atom_site_fract_y
_atom_site_fract_z
_atom_type_partial_charge
C1    C     C_R   0.611498 0.999196 0.249226 0.776215
C2    C     C_R   0.611498 0.999195 0.750774 0.775658
C3    C     C_R   0.388504 0.000742 0.250772 0.773343
C4    C     C_R   0.388504 0.000741 0.749230 0.773435
C5    C     C_R   0.111498 0.499195 0.249224 0.775253
C6    C     C_R   0.111497 0.499197 0.750773 0.776620
C7    C     C_R   0.888504 0.500740 0.250769 0.773156
C8    C     C_R   0.888504 0.500742 0.749227 0.773624
C9    C     C_R   0.111497 0.999196 0.749226 0.775657
C10   C     C_R   0.111498 0.999196 0.250774 0.776216
C11   C     C_R   0.888504 0.000740 0.750770 0.773441
C12   C     C_R   0.888504 0.000742 0.249228 0.773337
C13   C     C_R   0.611498 0.499195 0.749224 0.776338
C14   C     C_R   0.611497 0.499197 0.250773 0.775537
C15   C     C_R   0.388504 0.500740 0.750770 0.773833
C16   C     C_R   0.388504 0.500742 0.249228 0.772943
C17   C     C_R   0.762249 0.667814 0.216222 -0.213819
C18   C     C_R   0.762220 0.667805 0.783805 -0.214948
C19   C     C_R   0.237690 0.667821 0.216229 -0.213037
C20   C     C_R   0.237719 0.667821 0.783771 -0.214422
C21   C     C_R   0.262236 0.167807 0.216201 -0.215140
C22   C     C_R   0.262233 0.167812 0.783784 -0.213630
C23   C     C_R   0.737689 0.167825 0.216242 -0.213097
C24   C     C_R   0.737716 0.167816 0.783783 -0.214364
C25   C     C_R   0.262211 0.667807 0.716201 -0.214932
C26   C     C_R   0.262255 0.667812 0.283785 -0.213836
C27   C     C_R   0.737690 0.667825 0.716242 -0.213103
C28   C     C_R   0.737715 0.667816 0.283783 -0.214358
C29   C     C_R   0.762249 0.167814 0.716221 -0.213773
C30   C     C_R   0.762221 0.167805 0.283804 -0.214996
C31   C     C_R   0.237723 0.167818 0.716218 -0.214398
C32   C     C_R   0.237682 0.167824 0.283759 -0.213062
C33   C     C_R   0.749989 0.647502 0.250003 -0.136521
C34   C     C_R   0.749970 0.647502 0.750015 -0.136529
C35   C     C_R   0.249982 0.647502 0.250003 -0.137391
C36   C     C_R   0.249977 0.647501 0.749992 -0.135655
C37   C     C_R   0.249973 0.147502 0.249987 -0.136499
C38   C     C_R   0.249986 0.147502 0.749999 -0.136549
C39   C     C_R   0.749970 0.147502 0.250015 -0.136528
C40   C     C_R   0.749989 0.147502 0.750003 -0.136520
C41   C     C_R   0.749968 0.728779 0.249999 -0.117044
C42   C     C_R   0.749925 0.728779 0.750045 -0.117062
C43   C     C_R   0.249954 0.728780 0.250016 -0.117323
C44   C     C_R   0.249940 0.728778 0.749971 -0.116783
C45   C     C_R   0.249932 0.228779 0.249962 -0.117097
C46   C     C_R   0.249961 0.228779 0.750008 -0.117009
C47   C     C_R   0.749925 0.228779 0.250045 -0.117053
C48   C     C_R   0.749968 0.228779 0.749999 -0.117054
C49   C     C_2   0.527597 0.522678 0.268401 -0.216725
C50   C     C_2   0.527598 0.522671 0.731587 -0.218256
C51   C     C_2   0.472393 0.518342 0.272713 -0.217268
C52   C     C_2   0.472393 0.518335 0.727278 -0.217942
C53   C     C_2   0.027598 0.022679 0.268400 -0.218157
C54   C     C_2   0.027597 0.022670 0.731587 -0.216825
C55   C     C_2   0.972393 0.018344 0.272712 -0.216995
C56   C     C_2   0.972393 0.018332 0.727277 -0.218211
C57   C     C_2   0.027597 0.522684 0.768392 -0.216581
C58   C     C_2   0.027597 0.522665 0.231579 -0.218397
C59   C     C_2   0.972394 0.518350 0.772706 -0.216808
C60   C     C_2   0.972392 0.518327 0.227271 -0.218392
C61   C     C_2   0.527597 0.022669 0.768414 -0.216817
C62   C     C_2   0.527597 0.022680 0.231601 -0.218162
C63   C     C_2   0.472393 0.018331 0.772724 -0.218218
C64   C     C_2   0.472393 0.018345 0.227289 -0.216989
C65   C     C_2   0.557110 0.493394 0.256062 0.338577
C66   C     C_2   0.557112 0.493389 0.743928 0.338336
C67   C     C_2   0.442897 0.506032 0.243463 0.342921
C68   C     C_2   0.442901 0.506025 0.756530 0.342343
C69   C     C_2   0.057111 0.993393 0.256065 0.338639
C70   C     C_2   0.057112 0.993389 0.743931 0.338275
C71   C     C_2   0.942898 0.006030 0.243463 0.342506
C72   C     C_2   0.942900 0.006026 0.756530 0.342760
C73   C     C_2   0.057110 0.493396 0.756061 0.338847
C74   C     C_2   0.057112 0.493386 0.243927 0.338067
C75   C     C_2   0.942897 0.506033 0.743459 0.341906
C76   C     C_2   0.942901 0.506024 0.256527 0.343354
C77   C     C_2   0.557111 0.993389 0.756068 0.338271
C78   C     C_2   0.557110 0.993394 0.243935 0.338642
C79   C     C_2   0.442900 0.006026 0.743470 0.342766
C80   C     C_2   0.442899 0.006030 0.256537 0.342498
C81   C     C_R   0.729716 0.968426 0.458155 -0.159439
C82   C     C_R   0.708365 0.984662 0.541848 -0.157316
C83   C     C_R   0.291732 0.984754 0.458144 -0.156735
C84   C     C_R   0.270429 0.968484 0.541840 -0.158615
C85   C     C_R   0.208364 0.484664 0.458152 -0.157318
C86   C     C_R   0.229713 0.468427 0.541845 -0.159442
C87   C     C_R   0.770429 0.468484 0.458161 -0.158614
C88   C     C_R   0.791732 0.484754 0.541856 -0.156737
C89   C     C_R   0.208364 0.984665 0.958152 -0.157323
C90   C     C_R   0.229712 0.968427 0.041845 -0.159433
C91   C     C_R   0.770424 0.968482 0.958161 -0.158613
C92   C     C_R   0.791730 0.984751 0.041856 -0.156735
C93   C     C_R   0.729714 0.468427 0.958155 -0.159342
C94   C     C_R   0.708365 0.484663 0.041848 -0.157398
C95   C     C_R   0.270430 0.468484 0.958161 -0.158511
C96   C     C_R   0.291733 0.484754 0.041856 -0.156830
C97   C     C_R   0.729384 0.968552 0.417899 -0.160076
C98   C     C_R   0.708555 0.984390 0.582104 -0.160061
C99   C     C_R   0.291528 0.984472 0.417888 -0.155429
C100  C     C_R   0.270741 0.968600 0.582096 -0.155641
C101  C     C_R   0.208554 0.484392 0.417896 -0.160064
C102  C     C_R   0.229381 0.468553 0.582101 -0.160063
C103  C     C_R   0.770741 0.468599 0.417905 -0.155646
C104  C     C_R   0.791528 0.484473 0.582113 -0.155426
C105  C     C_R   0.208553 0.984393 0.917896 -0.160082
C106  C     C_R   0.229380 0.968553 0.082101 -0.160055
C107  C     C_R   0.770736 0.968598 0.917905 -0.155647
C108  C     C_R   0.791525 0.984469 0.082113 -0.155423
C109  C     C_R   0.729382 0.468553 0.917899 -0.159847
C110  C     C_R   0.708554 0.484391 0.082104 -0.160289
C111  C     C_R   0.270742 0.468600 0.917905 -0.155396
C112  C     C_R   0.291528 0.484473 0.082113 -0.155679
C113  C     C_R   0.749985 0.000005 0.397513 -0.009528
C114  C     C_R   0.749986 0.000006 0.602484 -0.009343
C115  C     C_R   0.250040 0.000022 0.397514 -0.011848
C116  C     C_R   0.250041 0.000021 0.602485 -0.010027
C117  C     C_R   0.249986 0.500006 0.397515 -0.009341
C118  C     C_R   0.249984 0.500005 0.602487 -0.009540
C119  C     C_R   0.750042 0.500020 0.397515 -0.010033
C120  C     C_R   0.750040 0.500023 0.602486 -0.011844
C121  C     C_R   0.249986 0.000006 0.897515 -0.009336
C122  C     C_R   0.249984 0.000005 0.102487 -0.009545
C123  C     C_R   0.750042 0.000020 0.897515 -0.010023
C124  C     C_R   0.750040 0.000023 0.102485 -0.011853
C125  C     C_R   0.749984 0.500005 0.897513 -0.009568
C126  C     C_R   0.749986 0.500006 0.102485 -0.009168
C127  C     C_R   0.250042 0.500020 0.897515 -0.010091
C128  C     C_R   0.250040 0.500023 0.102486 -0.011675
C129  C     C_R   0.770570 0.031473 0.417888 -0.170431
C130  C     C_R   0.791403 0.015640 0.582101 -0.169658
C131  C     C_R   0.208588 0.015608 0.417902 -0.168409
C132  C     C_R   0.229386 0.031469 0.582111 -0.168589
C133  C     C_R   0.291404 0.515638 0.417899 -0.169660
C134  C     C_R   0.270573 0.531472 0.582111 -0.170435
C135  C     C_R   0.729388 0.531469 0.417888 -0.168587
C136  C     C_R   0.708588 0.515608 0.582097 -0.168408
C137  C     C_R   0.291405 0.015637 0.917899 -0.169674
C138  C     C_R   0.270574 0.031471 0.082111 -0.170410
C139  C     C_R   0.729392 0.031470 0.917888 -0.168590
C140  C     C_R   0.708590 0.015611 0.082097 -0.168408
C141  C     C_R   0.770571 0.531472 0.917888 -0.170222
C142  C     C_R   0.791404 0.515639 0.082101 -0.169853
C143  C     C_R   0.229387 0.531468 0.917888 -0.168370
C144  C     C_R   0.208588 0.515608 0.082097 -0.168612
C145  C     C_R   0.770217 0.031619 0.458145 -0.160148
C146  C     C_R   0.791571 0.015393 0.541844 -0.162039
C147  C     C_R   0.208437 0.015371 0.458159 -0.161411
C148  C     C_R   0.229756 0.031626 0.541855 -0.159127
C149  C     C_R   0.291572 0.515391 0.458156 -0.162042
C150  C     C_R   0.270221 0.531618 0.541855 -0.160147
C151  C     C_R   0.729757 0.531626 0.458145 -0.159129
C152  C     C_R   0.708437 0.515371 0.541840 -0.161411
C153  C     C_R   0.291573 0.015390 0.958156 -0.162048
C154  C     C_R   0.270221 0.031618 0.041855 -0.160142
C155  C     C_R   0.729762 0.031627 0.958145 -0.159128
C156  C     C_R   0.708439 0.015374 0.041840 -0.161409
C157  C     C_R   0.770219 0.531619 0.958145 -0.160063
C158  C     C_R   0.791572 0.515392 0.041844 -0.162110
C159  C     C_R   0.229757 0.531626 0.958145 -0.159038
C160  C     C_R   0.208437 0.515370 0.041841 -0.161487
C161  C     C_R   0.750008 0.999996 0.144849 0.796593
C162  C     C_R   0.750008 0.999996 0.855151 0.796411
C163  C     C_R   0.249997 0.999993 0.144851 0.790150
C164  C     C_R   0.249998 0.999993 0.855150 0.790202
C165  C     C_R   0.250008 0.499996 0.144849 0.796486
C166  C     C_R   0.250008 0.499996 0.855151 0.796511
C167  C     C_R   0.749998 0.499993 0.144850 0.790119
C168  C     C_R   0.749997 0.499993 0.855149 0.790223
C169  C     C_R   0.250008 0.999996 0.644848 0.796419
C170  C     C_R   0.250008 0.999996 0.355151 0.796586
C171  C     C_R   0.749998 0.999993 0.644850 0.790214
C172  C     C_R   0.749997 0.999993 0.355149 0.790137
C173  C     C_R   0.750008 0.499997 0.644849 0.796580
C174  C     C_R   0.750008 0.499996 0.355152 0.796424
C175  C     C_R   0.249997 0.499993 0.644851 0.790153
C176  C     C_R   0.249998 0.499993 0.355150 0.790198
C177  C     C_R   0.749963 0.000027 0.478666 0.102997
C178  C     C_R   0.749965 0.000031 0.521330 0.105015
C179  C     C_R   0.250095 0.000069 0.478667 0.104541
C180  C     C_R   0.250102 0.000063 0.521331 0.102846
C181  C     C_R   0.249965 0.500031 0.478670 0.105017
C182  C     C_R   0.249963 0.500027 0.521334 0.102998
C183  C     C_R   0.750102 0.500063 0.478669 0.102846
C184  C     C_R   0.750095 0.500069 0.521332 0.104540
C185  C     C_R   0.249965 0.000031 0.978670 0.105024
C186  C     C_R   0.249963 0.000027 0.021334 0.102987
C187  C     C_R   0.750102 0.000063 0.978669 0.102844
C188  C     C_R   0.750095 0.000069 0.021332 0.104538
C189  C     C_R   0.749963 0.500027 0.978666 0.102915
C190  C     C_R   0.749965 0.500031 0.021330 0.105147
C191  C     C_R   0.250102 0.500063 0.978669 0.102754
C192  C     C_R   0.250095 0.500069 0.021333 0.104677
C193  C     C_R   0.749995 0.105113 0.250001 0.844427
C194  C     C_R   0.749999 0.105113 0.750003 0.844386
C195  C     C_R   0.249996 0.105113 0.249999 0.844440
C196  C     C_R   0.249999 0.105113 0.749997 0.844373
C197  C     C_R   0.249997 0.605113 0.249999 0.845110
C198  C     C_R   0.249997 0.605113 0.750001 0.843702
C199  C     C_R   0.749999 0.605113 0.250003 0.844386
C200  C     C_R   0.749995 0.605113 0.750001 0.844426
C201  C     C_R   0.749997 0.894859 0.249996 0.797809
C202  C     C_R   0.749994 0.894859 0.750008 0.797806
C203  C     C_R   0.249996 0.894859 0.250005 0.797812
C204  C     C_R   0.249994 0.894858 0.749993 0.797804
C205  C     C_R   0.249995 0.394859 0.249994 0.798779
C206  C     C_R   0.249996 0.394859 0.750005 0.796834
C207  C     C_R   0.749994 0.394859 0.250008 0.797802
C208  C     C_R   0.749997 0.394859 0.749996 0.797810
C209  C     C_R   0.705278 0.791759 0.259106 -0.070554
C210  C     C_R   0.705244 0.791763 0.740937 -0.070755
C211  C     C_R   0.294664 0.791735 0.259124 -0.069638
C212  C     C_R   0.294643 0.791732 0.740837 -0.069553
C213  C     C_R   0.205246 0.291762 0.259059 -0.070541
C214  C     C_R   0.205276 0.291759 0.740890 -0.070768
C215  C     C_R   0.794636 0.291732 0.259166 -0.069484
C216  C     C_R   0.794672 0.291736 0.740881 -0.069708
C217  C     C_R   0.205260 0.791760 0.759089 -0.070683
C218  C     C_R   0.205264 0.791761 0.240918 -0.070626
C219  C     C_R   0.794636 0.791732 0.759167 -0.069494
C220  C     C_R   0.794671 0.791736 0.240882 -0.069697
C221  C     C_R   0.705278 0.291759 0.759107 -0.070541
C222  C     C_R   0.705244 0.291763 0.240938 -0.070769
C223  C     C_R   0.294661 0.291735 0.759137 -0.069842
C224  C     C_R   0.294646 0.291733 0.240853 -0.069350
C225  C     C_R   0.705449 0.832116 0.259599 -0.168077
C226  C     C_R   0.705427 0.832120 0.740429 -0.166943
C227  C     C_R   0.294511 0.832092 0.259620 -0.172024
C228  C     C_R   0.294493 0.832089 0.740346 -0.173117
C229  C     C_R   0.205427 0.332119 0.259566 -0.166656
C230  C     C_R   0.205449 0.332117 0.740396 -0.168364
C231  C     C_R   0.794491 0.332089 0.259651 -0.173153
C232  C     C_R   0.794515 0.332093 0.740380 -0.171987
C233  C     C_R   0.205438 0.832118 0.759591 -0.166972
C234  C     C_R   0.205439 0.832118 0.240419 -0.168046
C235  C     C_R   0.794490 0.832089 0.759653 -0.173135
C236  C     C_R   0.794514 0.832093 0.240381 -0.172006
C237  C     C_R   0.705449 0.332116 0.759599 -0.168045
C238  C     C_R   0.705426 0.332120 0.240430 -0.166973
C239  C     C_R   0.294506 0.332092 0.759637 -0.173350
C240  C     C_R   0.294499 0.332089 0.240365 -0.171789
C241  C     C_R   0.749987 0.852479 0.249989 -0.019303
C242  C     C_R   0.749971 0.852479 0.750030 -0.019305
C243  C     C_R   0.249982 0.852480 0.250016 -0.019295
C244  C     C_R   0.249975 0.852479 0.749976 -0.019316
C245  C     C_R   0.249974 0.352479 0.249975 -0.019235
C246  C     C_R   0.249983 0.352479 0.750015 -0.019372
C247  C     C_R   0.749971 0.352479 0.250030 -0.019299
C248  C     C_R   0.749987 0.352479 0.749989 -0.019307
C249  C     C_R   0.749972 0.771389 0.249997 0.180066
C250  C     C_R   0.749932 0.771389 0.750054 0.180065
C251  C     C_R   0.249959 0.771390 0.250020 0.180040
C252  C     C_R   0.249945 0.771388 0.749964 0.180092
C253  C     C_R   0.249939 0.271389 0.249954 0.179888
C254  C     C_R   0.249965 0.271389 0.750011 0.180244
C255  C     C_R   0.749932 0.271389 0.250054 0.180071
C256  C     C_R   0.749972 0.271389 0.749997 0.180061
C257  C     C_R   0.761649 0.708200 0.215852 0.368956
C258  C     C_R   0.761608 0.708191 0.784187 0.369349
C259  C     C_R   0.238266 0.708208 0.215868 0.368741
C260  C     C_R   0.238290 0.708208 0.784128 0.368963
C261  C     C_R   0.261627 0.208193 0.215821 0.369378
C262  C     C_R   0.261630 0.208198 0.784156 0.368925
C263  C     C_R   0.738256 0.208212 0.215889 0.368662
C264  C     C_R   0.738295 0.208203 0.784148 0.369042
C265  C     C_R   0.261603 0.708193 0.715823 0.369202
C266  C     C_R   0.261651 0.708198 0.284159 0.369103
C267  C     C_R   0.738258 0.708212 0.715889 0.368663
C268  C     C_R   0.738294 0.708203 0.284148 0.369042
C269  C     C_R   0.761648 0.208200 0.715851 0.368954
C270  C     C_R   0.761610 0.208191 0.284186 0.369348
C271  C     C_R   0.238300 0.208205 0.715855 0.369080
C272  C     C_R   0.238252 0.208211 0.284114 0.368625
H1    H     H_    0.670382 0.776363 0.265878 0.168235
H2    H     H_    0.670345 0.776370 0.734166 0.168186
H3    H     H_    0.329556 0.776320 0.265888 0.167634
H4    H     H_    0.329527 0.776317 0.734054 0.167654
H5    H     H_    0.170345 0.276369 0.265821 0.168198
H6    H     H_    0.170382 0.276364 0.734109 0.168222
H7    H     H_    0.829523 0.276315 0.265941 0.167678
H8    H     H_    0.829563 0.276322 0.734111 0.167610
H9    H     H_    0.170365 0.776366 0.765871 0.168184
H10   H     H_    0.170364 0.776366 0.234154 0.168236
H11   H     H_    0.829522 0.776315 0.765943 0.167672
H12   H     H_    0.829562 0.776322 0.234112 0.167617
H13   H     H_    0.670382 0.276363 0.765880 0.168243
H14   H     H_    0.670344 0.276370 0.234169 0.168178
H15   H     H_    0.329549 0.276321 0.765917 0.167649
H16   H     H_    0.329536 0.276316 0.234087 0.167640
H17   H     H_    0.785222 0.056682 0.473173 0.144297
H18   H     H_    0.824562 0.026783 0.526811 0.139236
H19   H     H_    0.175419 0.026718 0.473196 0.139490
H20   H     H_    0.214689 0.056672 0.526828 0.144454
H21   H     H_    0.324564 0.526780 0.473189 0.139236
H22   H     H_    0.285227 0.556680 0.526826 0.144296
H23   H     H_    0.714691 0.556672 0.473170 0.144455
H24   H     H_    0.675419 0.526718 0.526802 0.139490
H25   H     H_    0.324565 0.026778 0.973189 0.139235
H26   H     H_    0.285229 0.056679 0.026826 0.144301
H27   H     H_    0.714699 0.056675 0.973170 0.144456
H28   H     H_    0.675422 0.026724 0.026802 0.139491
H29   H     H_    0.785225 0.556681 0.973173 0.144305
H30   H     H_    0.824563 0.526781 0.026811 0.139194
H31   H     H_    0.214689 0.556672 0.973170 0.144466
H32   H     H_    0.175418 0.526717 0.026802 0.139448
H33   H     H_    0.670630 0.847409 0.266834 0.178232
H34   H     H_    0.670613 0.847417 0.733186 0.178267
H35   H     H_    0.329339 0.847365 0.266850 0.172888
H36   H     H_    0.329315 0.847361 0.733099 0.172870
H37   H     H_    0.170609 0.347415 0.266798 0.178268
H38   H     H_    0.170633 0.347410 0.733151 0.178231
H39   H     H_    0.829318 0.347360 0.266886 0.172859
H40   H     H_    0.829338 0.347367 0.733141 0.172897
H41   H     H_    0.170626 0.847413 0.766841 0.178263
H42   H     H_    0.170619 0.847413 0.233189 0.178238
H43   H     H_    0.829318 0.847360 0.766889 0.172863
H44   H     H_    0.829338 0.847367 0.233142 0.172893
H45   H     H_    0.670630 0.347409 0.766835 0.178262
H46   H     H_    0.670612 0.347417 0.233188 0.178238
H47   H     H_    0.329327 0.347365 0.766885 0.172899
H48   H     H_    0.329329 0.347361 0.233138 0.172857
H49   H     H_    0.771166 0.652263 0.189838 0.198545
H50   H     H_    0.771138 0.652247 0.810184 0.196564
H51   H     H_    0.228770 0.652275 0.189846 0.198865
H52   H     H_    0.228829 0.652276 0.810162 0.196794
H53   H     H_    0.271163 0.152250 0.189823 0.196548
H54   H     H_    0.271141 0.152260 0.810169 0.198561
H55   H     H_    0.728784 0.152283 0.189853 0.198842
H56   H     H_    0.728808 0.152267 0.810168 0.196818
H57   H     H_    0.271114 0.652251 0.689818 0.196499
H58   H     H_    0.271184 0.652258 0.310164 0.198606
H59   H     H_    0.728787 0.652283 0.689852 0.198841
H60   H     H_    0.728806 0.652267 0.310167 0.196820
H61   H     H_    0.771164 0.152263 0.689837 0.198564
H62   H     H_    0.771141 0.152247 0.310183 0.196544
H63   H     H_    0.228824 0.152270 0.689831 0.196815
H64   H     H_    0.228769 0.152281 0.310146 0.198845
H65   H     H_    0.544222 0.550576 0.275729 0.157297
H66   H     H_    0.544222 0.550570 0.724262 0.157403
H67   H     H_    0.455749 0.525641 0.300560 0.152830
H68   H     H_    0.455746 0.525639 0.699433 0.154246
H69   H     H_    0.044224 0.050577 0.275725 0.157304
H70   H     H_    0.044220 0.050569 0.724257 0.157395
H71   H     H_    0.955750 0.025649 0.300557 0.154056
H72   H     H_    0.955746 0.025632 0.699430 0.153020
H73   H     H_    0.044224 0.550583 0.775714 0.157401
H74   H     H_    0.044220 0.550563 0.224247 0.157300
H75   H     H_    0.955751 0.525656 0.800551 0.154562
H76   H     H_    0.955744 0.525624 0.199425 0.152518
H77   H     H_    0.544221 0.050567 0.775744 0.157401
H78   H     H_    0.544223 0.050579 0.224277 0.157298
H79   H     H_    0.455746 0.025629 0.800570 0.153015
H80   H     H_    0.455749 0.025651 0.199444 0.154061
H81   H     H_    0.714707 0.943370 0.473191 0.145755
H82   H     H_    0.675368 0.973280 0.526817 0.146458
H83   H     H_    0.324768 0.973419 0.473171 0.147496
H84   H     H_    0.285513 0.943451 0.526802 0.145878
H85   H     H_    0.175366 0.473283 0.473182 0.146458
H86   H     H_    0.214701 0.443372 0.526809 0.145755
H87   H     H_    0.785512 0.443451 0.473200 0.145878
H88   H     H_    0.824768 0.473420 0.526830 0.147496
H89   H     H_    0.175365 0.973284 0.973182 0.146457
H90   H     H_    0.214700 0.943373 0.026809 0.145759
H91   H     H_    0.785504 0.943448 0.973200 0.145878
H92   H     H_    0.824764 0.973414 0.026830 0.147497
H93   H     H_    0.714704 0.443371 0.973191 0.145765
H94   H     H_    0.675367 0.473281 0.026817 0.146410
H95   H     H_    0.285513 0.443451 0.973200 0.145892
H96   H     H_    0.324768 0.473420 0.026830 0.147448
H97   H     H_    0.713676 0.943803 0.402738 0.171643
H98   H     H_    0.675977 0.972464 0.597269 0.174871
H99   H     H_    0.324135 0.972590 0.402716 0.178852
H100  H     H_    0.286511 0.943868 0.597255 0.172123
H101  H     H_    0.175975 0.472467 0.402730 0.174876
H102  H     H_    0.213670 0.443805 0.597262 0.171654
H103  H     H_    0.786511 0.443867 0.402746 0.172122
H104  H     H_    0.824135 0.472591 0.597285 0.178855
H105  H     H_    0.175974 0.972469 0.902730 0.174865
H106  H     H_    0.213669 0.943806 0.097262 0.171659
H107  H     H_    0.786502 0.943864 0.902746 0.172118
H108  H     H_    0.824131 0.972585 0.097285 0.178855
H109  H     H_    0.713673 0.443804 0.902738 0.171692
H110  H     H_    0.675976 0.472466 0.097269 0.174701
H111  H     H_    0.286512 0.443868 0.902746 0.172193
H112  H     H_    0.324135 0.472591 0.097285 0.178691
H113  H     H_    0.786283 0.056214 0.402718 0.167129
H114  H     H_    0.823989 0.027558 0.597264 0.163715
H115  H     H_    0.175963 0.027477 0.402743 0.164832
H116  H     H_    0.213598 0.056186 0.597283 0.167365
H117  H     H_    0.323990 0.527555 0.402736 0.163717
H118  H     H_    0.286289 0.556212 0.597281 0.167130
H119  H     H_    0.713601 0.556187 0.402716 0.167364
H120  H     H_    0.675963 0.527478 0.597256 0.164833
H121  H     H_    0.323992 0.027554 0.902736 0.163709
H122  H     H_    0.286291 0.056211 0.097281 0.167143
H123  H     H_    0.713609 0.056190 0.902716 0.167363
H124  H     H_    0.675967 0.027483 0.097256 0.164834
H125  H     H_    0.786286 0.556213 0.902718 0.167172
H126  H     H_    0.823990 0.527556 0.097264 0.163554
H127  H     H_    0.213599 0.556186 0.902716 0.167418
H128  H     H_    0.175963 0.527477 0.097256 0.164679
O1    O     O_3   0.750000 0.999990 0.250000 -0.497977
O2    O     O_3   0.750000 0.999990 0.750000 -0.497988
O3    O     O_3   0.250000 0.999990 0.250000 -0.497981
O4    O     O_3   0.250000 0.999990 0.750000 -0.497983
O5    O     O_3   0.250000 0.499990 0.250000 -0.497981
O6    O     O_3   0.250000 0.499990 0.750000 -0.497987
O7    O     O_3   0.750000 0.499990 0.250000 -0.497934
O8    O     O_3   0.750000 0.499990 0.750000 -0.498034
O9    O     O_R   0.635430 0.977260 0.272720 -0.585614
O10   O     O_R   0.635430 0.977260 0.727280 -0.588084
O11   O     O_R   0.364570 0.977260 0.272720 -0.588804
O12   O     O_R   0.364570 0.977260 0.727280 -0.586575
O13   O     O_R   0.135430 0.477260 0.272720 -0.587739
O14   O     O_R   0.135430 0.477260 0.727280 -0.585961
O15   O     O_R   0.864570 0.477260 0.272720 -0.586581
O16   O     O_R   0.864570 0.477260 0.727280 -0.588799
O17   O     O_R   0.135430 0.977260 0.772720 -0.588086
O18   O     O_R   0.135430 0.977260 0.227280 -0.585612
O19   O     O_R   0.864570 0.977260 0.772720 -0.586575
O20   O     O_R   0.864570 0.977260 0.227280 -0.588803
O21   O     O_R   0.635430 0.477260 0.772720 -0.585536
O22   O     O_R   0.635430 0.477260 0.227280 -0.588156
O23   O     O_R   0.364570 0.477260 0.772720 -0.586804
O24   O     O_R   0.364570 0.477260 0.227280 -0.588570
O25   O     O_R   0.719960 0.022730 0.163260 -0.643894
O26   O     O_R   0.719960 0.022730 0.836740 -0.644995
O27   O     O_R   0.280040 0.022730 0.163260 -0.645612
O28   O     O_R   0.280040 0.022730 0.836740 -0.644686
O29   O     O_R   0.219960 0.522730 0.163260 -0.643939
O30   O     O_R   0.219960 0.522730 0.836740 -0.644942
O31   O     O_R   0.780040 0.522730 0.163260 -0.644728
O32   O     O_R   0.780040 0.522730 0.836740 -0.645560
O33   O     O_R   0.219960 0.022730 0.663260 -0.644996
O34   O     O_R   0.219960 0.022730 0.336740 -0.643893
O35   O     O_R   0.780040 0.022730 0.663260 -0.644682
O36   O     O_R   0.780040 0.022730 0.336740 -0.645615
O37   O     O_R   0.719960 0.522730 0.663260 -0.643900
O38   O     O_R   0.719960 0.522730 0.336740 -0.644989
O39   O     O_R   0.280040 0.522730 0.663260 -0.645617
O40   O     O_R   0.280040 0.522730 0.336740 -0.644679
O41   O     O_R   0.719950 0.086720 0.227250 -0.638334
O42   O     O_R   0.719950 0.086720 0.772750 -0.640248
O43   O     O_R   0.280050 0.086720 0.227250 -0.638671
O44   O     O_R   0.280050 0.086720 0.772750 -0.636775
O45   O     O_R   0.219950 0.586720 0.227250 -0.638585
O46   O     O_R   0.219950 0.586720 0.772750 -0.639996
O47   O     O_R   0.780050 0.586720 0.227250 -0.636784
O48   O     O_R   0.780050 0.586720 0.772750 -0.638663
O49   O     O_R   0.219950 0.086720 0.727250 -0.640246
O50   O     O_R   0.219950 0.086720 0.272750 -0.638336
O51   O     O_R   0.780050 0.086720 0.727250 -0.636776
O52   O     O_R   0.780050 0.086720 0.272750 -0.638671
O53   O     O_R   0.719950 0.586720 0.727250 -0.638334
O54   O     O_R   0.719950 0.586720 0.272750 -0.640248
O55   O     O_R   0.280050 0.586720 0.727250 -0.638457
O56   O     O_R   0.280050 0.586720 0.272750 -0.636990
O57   O     O_R   0.719970 0.913260 0.272730 -0.633281
O58   O     O_R   0.719970 0.913260 0.727270 -0.630696
O59   O     O_R   0.280030 0.913260 0.272730 -0.635237
O60   O     O_R   0.280030 0.913260 0.727270 -0.637823
O61   O     O_R   0.219970 0.413260 0.272730 -0.631072
O62   O     O_R   0.219970 0.413260 0.727270 -0.632905
O63   O     O_R   0.780030 0.413260 0.272730 -0.637816
O64   O     O_R   0.780030 0.413260 0.727270 -0.635243
O65   O     O_R   0.219970 0.913260 0.772730 -0.630707
O66   O     O_R   0.219970 0.913260 0.227270 -0.633270
O67   O     O_R   0.780030 0.913260 0.772730 -0.637825
O68   O     O_R   0.780030 0.913260 0.227270 -0.635235
O69   O     O_R   0.719970 0.413260 0.772730 -0.633261
O70   O     O_R   0.719970 0.413260 0.227270 -0.630715
O71   O     O_R   0.280030 0.413260 0.772730 -0.637408
O72   O     O_R   0.280030 0.413260 0.227270 -0.635652
O73   O     O_R   0.780040 0.977250 0.163260 -0.631832
O74   O     O_R   0.780040 0.977250 0.836740 -0.630627
O75   O     O_R   0.219960 0.977250 0.163260 -0.635552
O76   O     O_R   0.219960 0.977250 0.836740 -0.636343
O77   O     O_R   0.280040 0.477250 0.163260 -0.631896
O78   O     O_R   0.280040 0.477250 0.836740 -0.630554
O79   O     O_R   0.719960 0.477250 0.163260 -0.636385
O80   O     O_R   0.719960 0.477250 0.836740 -0.635496
O81   O     O_R   0.280040 0.977250 0.663260 -0.630625
O82   O     O_R   0.280040 0.977250 0.336740 -0.631835
O83   O     O_R   0.719960 0.977250 0.663260 -0.636337
O84   O     O_R   0.719960 0.977250 0.336740 -0.635557
O85   O     O_R   0.780040 0.477250 0.663260 -0.631838
O86   O     O_R   0.780040 0.477250 0.336740 -0.630621
O87   O     O_R   0.219960 0.477250 0.663260 -0.635540
O88   O     O_R   0.219960 0.477250 0.336740 -0.636357
O89   O     O_R   0.635420 0.022730 0.227240 -0.668495
O90   O     O_R   0.635420 0.022730 0.772760 -0.666362
O91   O     O_R   0.364580 0.022730 0.227240 -0.665517
O92   O     O_R   0.364580 0.022730 0.772760 -0.667439
O93   O     O_R   0.135420 0.522730 0.227240 -0.668200
O94   O     O_R   0.135420 0.522730 0.772760 -0.666653
O95   O     O_R   0.864580 0.522730 0.227240 -0.667474
O96   O     O_R   0.864580 0.522730 0.772760 -0.665478
O97   O     O_R   0.135420 0.022730 0.727240 -0.666364
O98   O     O_R   0.135420 0.022730 0.272760 -0.668494
O99   O     O_R   0.864580 0.022730 0.727240 -0.667440
O100  O     O_R   0.864580 0.022730 0.272760 -0.665516
O101  O     O_R   0.635420 0.522730 0.727240 -0.668504
O102  O     O_R   0.635420 0.522730 0.272760 -0.666355
O103  O     O_R   0.364580 0.522730 0.727240 -0.665782
O104  O     O_R   0.364580 0.522730 0.272760 -0.667175
Zn1   Zn    Zn3+2 0.792920 0.967500 0.217510 1.027485
Zn2   Zn    Zn3+2 0.792920 0.967500 0.782490 1.027873
Zn3   Zn    Zn3+2 0.207080 0.967500 0.217510 1.025838
Zn4   Zn    Zn3+2 0.207080 0.967500 0.782490 1.025512
Zn5   Zn    Zn3+2 0.292920 0.467500 0.217510 1.027421
Zn6   Zn    Zn3+2 0.292920 0.467500 0.782490 1.027947
Zn7   Zn    Zn3+2 0.707080 0.467500 0.217510 1.025367
Zn8   Zn    Zn3+2 0.707080 0.467500 0.782490 1.025996
Zn9   Zn    Zn3+2 0.292920 0.967500 0.717510 1.027875
Zn10  Zn    Zn3+2 0.292920 0.967500 0.282490 1.027484
Zn11  Zn    Zn3+2 0.707080 0.967500 0.717510 1.025531
Zn12  Zn    Zn3+2 0.707080 0.967500 0.282490 1.025820
Zn13  Zn    Zn3+2 0.792920 0.467500 0.717510 1.027488
Zn14  Zn    Zn3+2 0.792920 0.467500 0.282490 1.027869
Zn15  Zn    Zn3+2 0.207080 0.467500 0.717510 1.025706
Zn16  Zn    Zn3+2 0.207080 0.467500 0.282490 1.025642
Zn17  Zn    Zn3+2 0.707080 0.032480 0.217500 0.987483
Zn18  Zn    Zn3+2 0.707080 0.032480 0.782500 0.986887
Zn19  Zn    Zn3+2 0.292920 0.032480 0.217500 0.985286
Zn20  Zn    Zn3+2 0.292920 0.032480 0.782500 0.985871
Zn21  Zn    Zn3+2 0.207080 0.532480 0.217500 0.987226
Zn22  Zn    Zn3+2 0.207080 0.532480 0.782500 0.987154
Zn23  Zn    Zn3+2 0.792920 0.532480 0.217500 0.985740
Zn24  Zn    Zn3+2 0.792920 0.532480 0.782500 0.985428
Zn25  Zn    Zn3+2 0.207080 0.032480 0.717500 0.986888
Zn26  Zn    Zn3+2 0.207080 0.032480 0.282500 0.987482
Zn27  Zn    Zn3+2 0.792920 0.032480 0.717500 0.985882
Zn28  Zn    Zn3+2 0.792920 0.032480 0.282500 0.985275
Zn29  Zn    Zn3+2 0.707080 0.532480 0.717500 0.987483
Zn30  Zn    Zn3+2 0.707080 0.532480 0.282500 0.986886
Zn31  Zn    Zn3+2 0.292920 0.532480 0.717500 0.985359
Zn32  Zn    Zn3+2 0.292920 0.532480 0.282500 0.985798
Cl1   Cl    Cl    0.773672 0.731860 0.171586 -0.583032
Cl2   Cl    Cl    0.773624 0.731840 0.828459 -0.586453
Cl3   Cl    Cl    0.226209 0.731877 0.171611 -0.584813
Cl4   Cl    Cl    0.226276 0.731879 0.828390 -0.585098
Cl5   Cl    Cl    0.273661 0.231844 0.171553 -0.585014
Cl6   Cl    Cl    0.273635 0.231855 0.828426 -0.584470
Cl7   Cl    Cl    0.726217 0.231888 0.171633 -0.583222
Cl8   Cl    Cl    0.726259 0.231868 0.828411 -0.586689
Cl9   Cl    Cl    0.273596 0.731846 0.671549 -0.586508
Cl10  Cl    Cl    0.273692 0.731853 0.328424 -0.582978
Cl11  Cl    Cl    0.726220 0.731888 0.671632 -0.583195
Cl12  Cl    Cl    0.726257 0.731868 0.328410 -0.586721
Cl13  Cl    Cl    0.773670 0.231860 0.671585 -0.582995
Cl14  Cl    Cl    0.773627 0.231840 0.328459 -0.586490
Cl15  Cl    Cl    0.226279 0.231872 0.671591 -0.586644
Cl16  Cl    Cl    0.226198 0.231884 0.328369 -0.583271
Cl17  Cl    Cl    0.533904 0.445414 0.250719 -0.531497
Cl18  Cl    Cl    0.533912 0.445406 0.749261 -0.530715
Cl19  Cl    Cl    0.466135 0.500753 0.195582 -0.527759
Cl20  Cl    Cl    0.466149 0.500739 0.804407 -0.518915
Cl21  Cl    Cl    0.033905 0.945413 0.250731 -0.530883
Cl22  Cl    Cl    0.033910 0.945408 0.749273 -0.531331
Cl23  Cl    Cl    0.966137 0.000743 0.195583 -0.524789
Cl24  Cl    Cl    0.966147 0.000749 0.804408 -0.521912
Cl25  Cl    Cl    0.033903 0.445416 0.750730 -0.530511
Cl26  Cl    Cl    0.033913 0.445405 0.249272 -0.531700
Cl27  Cl    Cl    0.966133 0.500743 0.695580 -0.524996
Cl28  Cl    Cl    0.966150 0.500750 0.304405 -0.521708
Cl29  Cl    Cl    0.533910 0.945408 0.750725 -0.531330
Cl30  Cl    Cl    0.533906 0.945413 0.249267 -0.530885
Cl31  Cl    Cl    0.466145 0.000751 0.695592 -0.521893
Cl32  Cl    Cl    0.466138 0.000741 0.304416 -0.524809

loop_
_geom_bond_atom_site_label_1
_geom_bond_atom_site_label_2
_ccdc_geom_bond_type
C197  O56   A    
C130  C146  A    
C195  O50   A    
C75   Cl27  S    
C213  C253  A    
C193  O52   A    
C53   C69   D    
C106  H106  S    
C3    O11   A    
O33   Zn25  S    
O38   Zn30  S    
C147  H19   S    
C1    O9    A    
C58   H74   S    
O3    Zn3   S    
O72   Zn5   S    
O2    Zn2   S    
C151  H23   S    
C152  H24   S    
C205  C245  S    
C19   C259  A    
C57   C59   S    
C33   C199  S    
C58   C60   S    
C28   H60   S    
C50   H66   S    
C167  O31   A    
C5    C74   S    
C84   C180  A    
C230  H38   S    
C62   C64   S    
C26   H58   S    
C236  H44   S    
C237  H45   S    
C49   C51   S    
C30   C270  A    
C238  C247  A    
C50   C52   S    
C206  O62   A    
O27   Zn19  S    
C217  C252  A    
C144  C160  A    
C173  O37   A    
O5    Zn16  S    
C129  C145  A    
C230  C246  A    
C101  H101  S    
O42   Zn18  S    
C194  O42   A    
C221  C256  A    
C117  C133  A    
C81   H81   S    
O23   Zn6   S    
C172  O84   A    
C142  C158  A    
C143  H127  S    
C136  C152  A    
C92   H92   S    
C55   H71   S    
C268  Cl12  S    
O50   Zn26  S    
C191  C192  S    
C150  H22   S    
C91   C107  A    
C125  C168  S    
C29   H61   S    
C9    C70   S    
C234  H42   S    
C43   C266  A    
O3    Zn19  S    
C126  C167  S    
C217  C233  A    
C11   C72   S    
C90   C186  A    
C181  C182  S    
C22   H54   S    
C221  C237  A    
C76   Cl28  S    
C13   O101  A    
C183  C184  S    
C94   C190  A    
C54   C70   D    
C23   C263  A    
C82   C178  A    
C137  C153  A    
C220  H12   S    
C127  C143  A    
C221  H13   S    
C128  C144  A    
C198  O55   A    
C57   H73   S    
C140  C156  A    
C87   C103  A    
C141  C157  A    
C130  H114  S    
C12   C71   S    
C28   C33   A    
C72   Cl24  S    
C34   C200  S    
C99   H99   S    
C240  C245  A    
C9    O17   A    
C165  O29   A    
C63   H79   S    
O66   Zn3   S    
C213  C229  A    
C6    C73   S    
O7    Zn7   S    
C124  C161  S    
C49   H65   S    
O11   Zn10  S    
O63   Zn14  S    
O88   Zn16  S    
C231  C247  A    
C195  O43   A    
C207  C247  S    
C204  O65   A    
C50   C66   D    
C44   C265  A    
C63   C79   D    
C226  H34   S    
O101  Zn29  S    
C114  C130  A    
C74   Cl26  S    
C29   C269  A    
C164  O76   A    
O20   Zn1   S    
O57   Zn12  S    
C222  H14   S    
C83   H83   S    
O1    Zn17  S    
C265  Cl9   S    
C47   C270  A    
O96   Zn24  S    
C22   C262  A    
C222  C238  A    
C194  O51   A    
O104  Zn32  S    
O3    Zn26  S    
C98   C114  A    
C25   C36   A    
C10   C69   S    
C147  C179  A    
C26   C35   A    
C90   H90   S    
C2    O10   A    
C136  H120  S    
O92   Zn20  S    
O47   Zn23  S    
O69   Zn8   S    
C155  C187  A    
C232  C248  A    
O68   Zn1   S    
C97   H97   S    
C158  H30   S    
C55   C71   D    
O10   Zn11  S    
C26   C266  A    
C22   C38   A    
C156  C188  A    
O37   Zn29  S    
O86   Zn14  S    
C51   H67   S    
C12   O20   A    
O2    Zn18  S    
C13   O21   A    
C162  O26   A    
O4    Zn9   S    
C223  C239  A    
C102  H102  S    
C204  O60   A    
O41   Zn17  S    
C154  C186  A    
C167  O79   A    
C173  O85   A    
O44   Zn20  S    
C239  C246  A    
C37   C195  S    
C109  H109  S    
C4    O12   A    
C171  O83   A    
C5    O13   A    
C62   H78   S    
C119  C174  S    
C87   C183  A    
C169  O81   A    
C88   C184  A    
O49   Zn25  S    
C202  C242  S    
C123  C139  A    
C85   H85   S    
O26   Zn18  S    
C146  C178  A    
C168  O32   A    
O5    Zn32  S    
O97   Zn25  S    
C19   C35   A    
C124  C140  A    
C202  O58   A    
O7    Zn14  S    
C67   Cl19  S    
C92   C108  A    
C103  H103  S    
C61   C77   D    
O56   Zn32  S    
C219  C250  A    
O54   Zn30  S    
C131  C147  A    
C65   Cl17  S    
C17   H49   S    
C118  C134  A    
O83   Zn11  S    
C229  C245  A    
C8    O96   A    
C196  O44   A    
C95   H95   S    
O1    Zn12  S    
O74   Zn2   S    
C24   C264  A    
C16   O24   A    
C115  C170  S    
C88   C104  A    
C113  C172  S    
C13   C66   S    
O91   Zn19  S    
C114  C171  S    
C112  H112  S    
C18   C258  A    
C219  C235  A    
O8    Zn8   S    
C87   H87   S    
C56   C72   D    
C238  H46   S    
O64   Zn13  S    
C104  H104  S    
C212  C228  A    
C236  C241  A    
C208  C248  S    
C43   C251  S    
C44   C260  A    
C96   H96   S    
C45   C261  A    
C116  C132  A    
C139  C155  A    
C73   Cl25  S    
C106  C122  A    
C215  C255  A    
C174  O86   A    
C165  O77   A    
C16   C67   S    
C51   C67   D    
C32   C37   A    
C41   C257  A    
C224  C240  A    
C160  H32   S    
C45   C253  S    
C110  C126  A    
C207  O63   A    
C80   Cl32  S    
C128  C165  S    
C17   C257  A    
C86   C102  A    
O31   Zn23  S    
C58   C74   D    
C109  C125  A    
C52   H68   S    
C91   C187  A    
C85   C181  A    
C3    O91   A    
O70   Zn7   S    
C89   C185  A    
C62   C78   D    
C2    O90   A    
C1    O89   A    
C78   Cl30  S    
C48   C269  A    
O17   Zn4   S    
C228  C244  A    
C92   C188  A    
C151  C183  A    
C7    C76   S    
C145  C177  A    
C93   C189  A    
C218  H10   S    
O62   Zn15  S    
C111  C127  A    
O25   Zn17  S    
C83   C179  A    
O4    Zn20  S    
O3    Zn10  S    
O76   Zn4   S    
C81   C177  A    
C42   C258  A    
C133  H117  S    
C138  C154  A    
C168  O80   A    
C27   H59   S    
C29   C40   A    
C260  Cl4   S    
C14   C65   S    
C38   C196  S    
C30   C39   A    
C129  H113  S    
C16   O104  A    
C166  O30   A    
C175  O87   A    
C212  H4    S    
C84   H84   S    
O79   Zn7   S    
O13   Zn16  S    
C154  H26   S    
C148  C180  A    
C89   C105  A    
O100  Zn28  S    
O4    Zn25  S    
C200  O53   A    
C210  C250  A    
C93   C109  A    
O8    Zn13  S    
C45   C272  A    
C227  H35   S    
C196  O49   A    
C59   C75   D    
C214  C254  A    
C82   C98   A    
C218  C251  A    
C100  C116  A    
C107  C123  A    
O82   Zn10  S    
C105  H105  S    
C150  C182  A    
C59   H75   S    
C222  C255  A    
C35   C197  S    
C17   C33   A    
O1    Zn1   S    
C206  C246  S    
O7    Zn30  S    
C36   C198  S    
C99   C115  A    
C193  O41   A    
O90   Zn18  S    
C270  Cl14  S    
C225  C241  A    
C148  H20   S    
C155  H27   S    
C149  H21   S    
O94   Zn22  S    
C204  C244  S    
C49   C65   D    
C27   C267  A    
O7    Zn23  S    
C31   H63   S    
C144  H128  S    
C205  O61   A    
C212  C252  A    
O52   Zn28  S    
O6    Zn15  S    
O53   Zn29  S    
C259  Cl3   S    
C216  C256  A    
C83   C99   A    
C220  C249  A    
C149  C181  A    
C1    C78   S    
C64   C80   D    
C209  C225  A    
O46   Zn22  S    
C3    C80   S    
C43   C259  A    
C208  O64   A    
C220  C236  A    
C224  C253  A    
O77   Zn5   S    
O78   Zn6   S    
C263  Cl7   S    
C213  H5    S    
O4    Zn4   S    
C30   H62   S    
C159  C191  A    
C23   H55   S    
C122  C138  A    
C199  O54   A    
C258  Cl2   S    
O2    Zn27  S    
C40   C194  S    
C126  C142  A    
O71   Zn6   S    
C119  C135  A    
C14   O102  A    
C84   C100  A    
C77   Cl29  S    
C239  H47   S    
O18   Zn3   S    
C161  O73   A    
C240  H48   S    
C11   O99   A    
O60   Zn9   S    
C233  C244  A    
C225  H33   S    
O35   Zn27  S    
C9    O97   A    
O1    Zn28  S    
O84   Zn12  S    
C134  H118  S    
C159  H31   S    
O39   Zn31  S    
C68   Cl20  S    
C198  O46   A    
C145  H17   S    
C170  O34   A    
C231  H39   S    
C232  H40   S    
C71   Cl23  S    
C31   C271  A    
O40   Zn32  S    
C8    O16   A    
C215  C231  A    
C32   C272  A    
C46   C262  A    
C89   H89   S    
C176  O88   A    
C235  H43   S    
C229  H37   S    
O80   Zn8   S    
O12   Zn9   S    
O87   Zn15  S    
C39   C193  S    
C24   C40   A    
C138  H122  S    
C199  O47   A    
C269  Cl13  S    
C200  O48   A    
C205  O72   A    
C15   O103  A    
C53   H69   S    
C203  O66   A    
C143  C159  A    
C201  O68   A    
C31   C38   A    
O95   Zn23  S    
O21   Zn8   S    
C101  C117  A    
C158  C190  A    
C210  C226  A    
O81   Zn9   S    
C187  C188  S    
O36   Zn28  S    
C2    C77   S    
C94   C110  A    
O58   Zn11  S    
C111  H111  S    
C82   H82   S    
C223  C254  A    
C96   C192  A    
C185  C186  S    
O98   Zn26  S    
C108  H108  S    
C127  C166  S    
C135  C151  A    
C60   C76   D    
C108  C124  A    
C60   H76   S    
O103  Zn31  S    
C189  C190  S    
C112  C128  A    
O6    Zn6   S    
O8    Zn29  S    
C90   C106  A    
O89   Zn17  S    
C179  C180  S    
C20   C36   A    
C91   H91   S    
C21   C37   A    
C42   C250  S    
C132  H116  S    
C177  C178  S    
C162  O74   A    
C86   C182  A    
C41   C268  A    
O93   Zn21  S    
O48   Zn24  S    
C120  C136  A    
O9    Zn12  S    
O5    Zn5   S    
C46   C254  S    
C207  O70   A    
C163  O75   A    
C104  C120  A    
C134  C150  A    
O29   Zn21  S    
C140  H124  S    
C219  H11   S    
C46   C271  A    
C214  C230  A    
C141  H125  S    
C32   H64   S    
C146  H18   S    
C171  O35   A    
O6    Zn22  S    
C11   O19   A    
O30   Zn22  S    
C115  C131  A    
C47   C255  S    
C197  O45   A    
C96   C112  A    
C271  Cl15  S    
C208  O69   A    
C113  C129  A    
C272  Cl16  S    
C211  H3    S    
O45   Zn21  S    
C262  Cl6   S    
O8    Zn24  S    
C48   C256  S    
C170  O82   A    
C227  C243  A    
C7    O95   A    
C131  H115  S    
C164  O28   A    
C203  C243  S    
O24   Zn5   S    
C121  C137  A    
C86   H86   S    
C201  C241  S    
C24   H56   S    
C226  C242  A    
C175  O39   A    
C233  H41   S    
O102  Zn30  S    
C203  O59   A    
O6    Zn31  S    
C6    O14   A    
C153  H25   S    
C210  H2    S    
C201  O57   A    
C20   H52   S    
C98   H98   S    
O55   Zn31  S    
C10   O18   A    
C10   O98   A    
C209  C249  A    
C107  H107  S    
C18   H50   S    
C102  C118  A    
O59   Zn10  S    
C95   C191  A    
C234  C243  A    
O34   Zn26  S    
C267  Cl11  S    
O32   Zn24  S    
O75   Zn3   S    
C216  H8    S    
C174  O38   A    
O2    Zn11  S    
O73   Zn1   S    
C153  C185  A    
C44   C252  S    
C25   H57   S    
C53   C55   S    
C27   C34   A    
O15   Zn14  S    
C54   C56   S    
C132  C148  A    
C133  C149  A    
C218  C234  A    
C4    C79   S    
C125  C141  A    
C123  C162  S    
C5    O93   A    
O65   Zn4   S    
C47   C263  A    
C121  C164  S    
C48   C264  A    
C8    C75   S    
C122  C163  S    
C237  C248  A    
C93   H93   S    
C135  H119  S    
C206  O71   A    
C235  C242  A    
C215  H7    S    
C6    O94   A    
C217  H9    S    
C100  H100  S    
O43   Zn19  S    
C202  O67   A    
C166  O78   A    
C61   C63   S    
O22   Zn7   S    
C105  C121  A    
C18   C34   A    
C69   Cl21  S    
C20   C260  A    
C223  H15   S    
C117  C176  S    
C21   C261  A    
C224  H16   S    
C79   Cl31  S    
C118  C175  S    
C209  H1    S    
C214  H6    S    
O51   Zn27  S    
O16   Zn13  S    
C61   H77   S    
C56   H72   S    
C152  C184  A    
C97   C113  A    
O99   Zn27  S    
C85   C101  A    
C266  Cl10  S    
C57   C73   D    
C156  H28   S    
O19   Zn2   S    
C103  C119  A    
O28   Zn20  S    
C157  H29   S    
C12   O100  A    
C52   C68   D    
C25   C265  A    
C142  H126  S    
C19   H51   S    
O61   Zn16  S    
O85   Zn13  S    
C14   O22   A    
C163  O27   A    
C28   C268  A    
C161  O25   A    
C172  O36   A    
C42   C267  A    
O5    Zn21  S    
C95   C111  A    
C257  Cl1   S    
C4    O92   A    
C15   O23   A    
C81   C97   A    
C23   C39   A    
C15   C68   S    
C169  O33   A    
C88   H88   S    
C66   Cl18  S    
C116  C169  S    
C261  Cl5   S    
O67   Zn2   S    
C70   Cl22  S    
C157  C189  A    
C176  O40   A    
C160  C192  A    
C264  Cl8   S    
C120  C173  S    
C7    O15   A    
C64   H80   S    
O14   Zn15  S    
C41   C249  S    
C54   H70   S    
C139  H123  S    
C216  C232  A    
C211  C227  A    
C110  H110  S    
C211  C251  A    
C137  H121  S    
C94   H94   S    
C21   H53   S    
C228  H36   S    
