data_mof_unit_31934.cif
_audit_creation_date              2013-03-05T15:45:30-0500
_audit_creation_method            fapswitch 2.2
_symmetry_space_group_name_H-M    P1
_symmetry_Int_Tables_number       1
_space_group_crystal_system       triclinic
_cell_length_a                    11.082623
_cell_length_b                    10.871616
_cell_length_c                    18.719329
_cell_angle_alpha                 89.753511
_cell_angle_beta                  89.870654
_cell_angle_gamma                 59.798446
_cell_volume                      1949.25167203

loop_
_atom_site_label
_atom_site_type_symbol
_atom_site_description
_atom_site_fract_x
_atom_site_fract_y
_atom_site_fract_z
_atom_type_partial_charge
O1    O     O_R   0.507430 0.255570 0.581420 -0.474398
O2    O     O_R   0.280190 0.527390 0.578910 -0.539974
C1    C     C_R   0.228912 0.650197 0.607456 0.577732
O3    O     O_R   0.260310 0.739740 0.584580 -0.405178
O4    O     O_R   0.532250 0.695150 0.573830 -0.436517
C2    C     C_R   0.655057 0.625844 0.599352 0.567457
O5    O     O_R   0.744930 0.503430 0.576380 -0.538515
O6    O     O_R   0.699250 0.276390 0.571950 -0.461091
C3    C     C_R   0.595094 0.288296 0.610088 0.561369
O7    O     O_R   0.499020 0.256400 0.419850 -0.516706
O8    O     O_R   0.272400 0.528160 0.429140 -0.497702
C4    C     C_R   0.286084 0.622090 0.392340 0.548594
O9    O     O_R   0.251910 0.740570 0.423020 -0.434559
O10   O     O_R   0.524460 0.695920 0.424060 -0.512462
C5    C     C_R   0.644508 0.628222 0.394534 0.534463
O11   O     O_R   0.736530 0.504260 0.414810 -0.514749
O12   O     O_R   0.691460 0.277160 0.422180 -0.486354
C6    C     C_R   0.617353 0.229200 0.395184 0.563935
Cr1   Cr    Cr6+3 0.392930 0.397900 0.502230 1.063371
Cr2   Cr    Cr6+3 0.398240 0.708600 0.501260 1.165847
Cr3   Cr    Cr6+3 0.708800 0.393470 0.496460 1.091331
O13   O     O_3   0.499990 0.499990 0.499980 -0.340988
C7    C     C_3   0.584926 0.833333 0.778973 -0.198923
H1    H     H_    0.588872 0.931450 0.790750 0.124993
H2    H     H_    0.494084 0.846644 0.810675 0.199141
C8    C     C_3   0.563848 0.819391 0.697358 0.170033
H3    H     H_    0.844386 0.705263 0.640140 0.209104
C9    C     C_3   0.842429 0.680374 0.758929 -0.124509
C10   C     C_3   0.697509 0.569681 0.799418 -0.237652
C11   C     C_3   0.719664 0.698527 0.806575 -0.021981
H4    H     H_    0.789874 0.470546 0.819588 0.159095
H5    H     H_    0.605773 0.586929 0.831674 0.165805
C12   C     C_3   0.677004 0.662724 0.672522 0.037673
C13   C     C_3   0.824793 0.643093 0.680984 -0.222127
C14   C     C_3   0.674451 0.548181 0.721574 -0.246347
H6    H     H_    0.577927 0.542349 0.715298 0.163983
H7    H     H_    0.761431 0.442254 0.705773 0.129704
H8    H     H_    0.938430 0.589096 0.780542 0.122068
H9    H     H_    0.905962 0.530467 0.670404 0.130878
C15   C     C_R   0.754191 0.210927 0.716349 -0.085447
H10   H     H_    0.838824 0.199679 0.683331 0.220828
C16   C     C_R   0.777221 0.177598 0.788916 -0.158322
H11   H     H_    0.881778 0.132623 0.810155 0.161094
C17   C     C_R   0.667647 0.191160 0.831846 0.003951
C18   C     C_R   0.531331 0.253132 0.802639 0.205453
C19   C     C_R   0.512427 0.278852 0.729968 -0.150821
H12   H     H_    0.411731 0.312444 0.707056 0.148936
C20   C     C_R   0.622841 0.255993 0.686157 -0.027567
C21   C     C_R   0.178525 0.561018 0.718291 -0.207339
H13   H     H_    0.191400 0.467121 0.691623 0.149517
C22   C     C_R   0.173673 0.566453 0.792557 -0.140507
H14   H     H_    0.171144 0.482088 0.821613 0.218541
C23   C     C_R   0.155504 0.686916 0.828459 -0.020207
C24   C     C_R   0.132695 0.806148 0.788343 -0.069831
H15   H     H_    0.106866 0.904762 0.814745 0.168516
C25   C     C_R   0.125747 0.805980 0.713959 0.307397
C26   C     C_R   0.165512 0.676339 0.678693 0.037091
C27   C     C_R   0.805847 0.602420 0.299918 -0.070083
H16   H     H_    0.889760 0.527048 0.334010 0.201297
C28   C     C_R   0.829407 0.604664 0.227188 -0.001204
C29   C     C_R   0.717773 0.707600 0.183329 -0.017830
C30   C     C_R   0.588517 0.801506 0.215359 -0.143517
H17   H     H_    0.502314 0.881022 0.184014 0.156999
C31   C     C_R   0.565317 0.786093 0.287167 -0.142289
H18   H     H_    0.462644 0.850707 0.309614 0.191396
C32   C     C_R   0.672450 0.680678 0.328303 -0.006251
C33   C     C_R   0.557283 0.144479 0.288669 -0.143095
H19   H     H_    0.483338 0.126568 0.318311 0.168502
C34   C     C_R   0.553820 0.142291 0.215599 -0.145547
H20   H     H_    0.481479 0.115603 0.191228 0.160543
C35   C     C_R   0.647995 0.164375 0.175090 -0.011418
C36   C     C_R   0.740136 0.199946 0.208870 -0.006068
C37   C     C_R   0.741255 0.203637 0.282956 -0.061737
H21   H     H_    0.808380 0.235362 0.309219 0.209741
C38   C     C_R   0.648053 0.178939 0.322708 0.009011
C39   C     C_R   0.220947 0.759941 0.278844 0.178404
C40   C     C_R   0.212948 0.758772 0.206101 -0.101349
H22   H     H_    0.194500 0.854668 0.178635 0.197873
C41   C     C_R   0.192347 0.655633 0.172332 -0.023485
C42   C     C_R   0.232218 0.527425 0.207113 -0.138996
H23   H     H_    0.232648 0.440214 0.179381 0.161969
C43   C     C_R   0.266527 0.515259 0.279435 -0.145955
H24   H     H_    0.296655 0.416057 0.306834 0.175459
C44   C     C_R   0.252347 0.634395 0.316746 -0.004245
O14   O     O_R   0.089490 0.825610 0.930610 -0.521976
O15   O     O_R   0.818370 0.054540 0.929880 -0.526217
C45   C     C_R   0.697904 0.109096 0.898383 0.545557
O16   O     O_R   0.605870 0.077310 0.915530 -0.450381
O17   O     O_R   0.646440 0.806700 0.917570 -0.492140
C46   C     C_R   0.751040 0.710471 0.882685 0.524012
O18   O     O_R   0.837200 0.593290 0.915250 -0.508268
O19   O     O_R   0.065330 0.635370 0.931590 -0.495303
C47   C     C_R   0.113827 0.709120 0.903781 0.558719
O20   O     O_R   0.068300 0.828790 0.091860 -0.506006
O21   O     O_R   0.798730 0.057480 0.079370 -0.505143
C48   C     C_R   0.673887 0.109149 0.103160 0.528773
O22   O     O_R   0.584680 0.080480 0.076790 -0.512780
O23   O     O_R   0.626790 0.809640 0.067050 -0.484634
C49   C     C_R   0.734419 0.717614 0.105660 0.552028
O24   O     O_R   0.816010 0.596460 0.076500 -0.535385
O25   O     O_R   0.045680 0.638310 0.081070 -0.538754
C50   C     C_R   0.105619 0.702901 0.108274 0.555697
Cr4   Cr    Cr6+3 0.937620 0.938540 0.007640 1.036577
Cr5   Cr    Cr6+3 0.625150 0.937450 0.994520 1.079336
Cr6   Cr    Cr6+3 0.937990 0.625080 0.001190 1.038395
O26   O     O_3   0.833590 0.833690 0.001120 -0.305978
N1    N     N_R   0.413338 0.277824 0.844970 0.068705
O27   O     O_R   0.387998 0.345373 0.905394 -0.339959
O28   O     O_R   0.338259 0.222041 0.826143 -0.361697
N2    N     N_R   0.078918 0.937328 0.675512 0.129311
O29   O     O_R   0.010783 0.960644 0.615735 -0.276657
O30   O     O_R   0.086814 0.041425 0.704842 -0.334037
C51   C     C_2   0.968020 0.488780 0.201178 0.256187
H25   H     H_    0.002163 0.479445 0.146946 0.171976
O31   O     O_2   0.049253 0.395356 0.241744 -0.480184
C52   C     C_2   0.832833 0.236488 0.168109 0.261038
H26   H     H_    0.806457 0.277005 0.113885 0.116492
O32   O     O_2   0.940660 0.219875 0.194454 -0.431023
N3    N     N_R   0.172236 0.896126 0.312243 0.099307
O33   O     O_R   0.211175 0.982466 0.287021 -0.332472
O34   O     O_R   0.058559 0.949963 0.350311 -0.278581
N4    N     N_R   0.421669 0.845940 0.687680 0.085251
O35   O     O_R   0.335308 0.942342 0.643091 -0.240499
O36   O     O_R   0.380694 0.772583 0.724572 -0.408027
C53   C     C_2   0.577458 0.932664 0.655520 0.334774
H27   H     H_    0.545110 0.034589 0.679822 0.139175
O37   O     O_2   0.614796 0.915246 0.593116 -0.464956
C54   C     C_2   0.853052 0.814025 0.763697 0.165617
H28   H     H_    0.869862 0.847431 0.815307 0.099582
O38   O     O_2   0.836102 0.889445 0.711877 -0.500707

loop_
_geom_bond_atom_site_label_1
_geom_bond_atom_site_label_2
_geom_bond_distance
_ccdc_geom_bond_type
C45   O16   1.270819 A    
C6    C38   1.439524 S    
C37   C38   1.402352 A    
C37   H21   1.084125 S    
O18   Cr6   2.087228 S    
O21   C48   1.282817 A    
C11   C46   1.488913 S    
C54   H28   1.082534 S    
C39   C44   1.415025 A    
Cr5   O26   2.000628 S    
O4    Cr2   1.965064 S    
C40   H22   1.083718 S    
C25   C26   1.413594 A    
O8    Cr1   1.936528 S    
O24   Cr6   2.079071 S    
C30   H17   1.082394 S    
C14   H7    1.108003 S    
C10   H5    1.113454 S    
C34   H20   1.082542 S    
O4    C2    1.271402 A    
C27   C28   1.388111 A    
C5    O11   1.270796 A    
C21   C26   1.397382 A    
C52   H26   1.085230 S    
C4    C44   1.452775 S    
C7    C8    1.565517 S    
C34   C35   1.403191 A    
N2    O29   1.302082 A    
C30   C31   1.393161 A    
C19   H12   1.074017 S    
O14   C47   1.260966 A    
C13   H9    1.113907 S    
C27   C32   1.388053 A    
C14   H6    1.109524 S    
O6    C3    1.305992 A    
C21   C22   1.391478 A    
N1    O27   1.302231 A    
C41   C50   1.459047 S    
C17   C45   1.466652 S    
O14   Cr4   2.084397 S    
C15   C16   1.394978 A    
C9    C13   1.554814 S    
Cr3   O13   2.001127 S    
N1    O28   1.301989 A    
C28   C51   1.496305 S    
C29   C49   1.475588 S    
C16   C17   1.399541 A    
O15   Cr4   1.942139 S    
C25   N2    1.440012 S    
O16   Cr5   2.049190 S    
O21   Cr4   1.961484 S    
C12   C13   1.550014 S    
C24   C25   1.394775 A    
N3    O34   1.302022 A    
H3    C13   1.109502 S    
O25   Cr6   1.965612 S    
C19   C20   1.386721 A    
O1    Cr1   2.053121 S    
C39   N3    1.441059 S    
C23   C47   1.465420 S    
C22   H14   1.076728 S    
O25   C50   1.291357 A    
O10   Cr2   1.965391 S    
Cr1   O13   1.991401 S    
O1    C3    1.307763 A    
C39   C40   1.365318 A    
C42   C43   1.394659 A    
O15   C45   1.298358 A    
C36   C37   1.387859 A    
C35   C48   1.444896 S    
C27   H16   1.084008 S    
C23   C24   1.403875 A    
C5    C32   1.458795 S    
O12   Cr3   1.957052 S    
C33   H19   1.083945 S    
C54   O38   1.219658 D    
C28   C29   1.435544 A    
C33   C34   1.369089 A    
C8    C53   1.526664 S    
C31   C32   1.394136 A    
C7    C11   1.561997 S    
C10   C11   1.545363 S    
C8    C12   1.595312 S    
C49   O24   1.286927 A    
C9    H8    1.103025 S    
O7    Cr1   2.078328 S    
C7    H1    1.112357 S    
C48   O22   1.277403 A    
O12   C6    1.279354 A    
C40   C41   1.404749 A    
C1    C26   1.466567 S    
C15   H10   1.076753 S    
Cr2   O13   1.960362 S    
O20   Cr4   2.064510 S    
C43   H24   1.082298 S    
C43   C44   1.411586 A    
O17   Cr5   1.956981 S    
C53   H27   1.080406 S    
C21   H13   1.081269 S    
C33   C38   1.393721 A    
C16   H11   1.081785 S    
N4    O36   1.295132 A    
C1    O3    1.260424 A    
C17   C18   1.418341 A    
C51   H25   1.069868 S    
C15   C20   1.400821 A    
C36   C52   1.483208 S    
C24   H15   1.082012 S    
O9    Cr2   2.082086 S    
O2    Cr1   1.960344 S    
C42   H23   1.080807 S    
O6    Cr3   1.935885 S    
N3    O33   1.301163 A    
O11   Cr3   2.058092 S    
C2    O5    1.271805 A    
Cr6   O26   1.960145 S    
C10   C14   1.519233 S    
C2    C12   1.483357 S    
C31   H18   1.077497 S    
C9    C11   1.552897 S    
O2    C1    1.277671 A    
N4    O35   1.303087 A    
C35   C36   1.412264 A    
C10   H4    1.113664 S    
O5    Cr3   2.080207 S    
C46   O18   1.295536 A    
O7    C6    1.276238 A    
O23   Cr5   1.932072 S    
O19   C47   1.277272 A    
C12   C14   1.555659 S    
C52   O32   1.220094 D    
Cr4   O26   1.991861 S    
C7    H2    1.112727 S    
C29   C30   1.408482 A    
N2    O30   1.301931 A    
O22   Cr5   2.075242 S    
C18   N1    1.433156 S    
C41   C42   1.391310 A    
O3    Cr2   2.087364 S    
C18   C19   1.382646 A    
O19   Cr6   1.962375 S    
C4    O9    1.283345 A    
O20   C50   1.251413 A    
C3    C20   1.461039 S    
O23   C49   1.320284 A    
C53   O37   1.221706 D    
O10   C5    1.277610 A    
C8    N4    1.463649 S    
C22   C23   1.396067 A    
O17   C46   1.283382 A    
C9    C54   1.518650 S    
O8    C4    1.299846 A    
C51   O31   1.222784 D    
