data_mof_unit_65809.cif
_audit_creation_date              2012-12-10T21:09:17-0500
_audit_creation_method            fapswitch 2.2
_symmetry_space_group_name_H-M    P1
_symmetry_Int_Tables_number       1
_space_group_crystal_system       triclinic
_cell_length_a                    10.777938
_cell_length_b                    17.617496
_cell_length_c                    16.817135
_cell_angle_alpha                 89.752672
_cell_angle_beta                  104.260297
_cell_angle_gamma                 91.558335
_cell_volume                      3093.69385805

loop_
_atom_site_label
_atom_site_type_symbol
_atom_type_description
_atom_site_fract_x
_atom_site_fract_y
_atom_site_fract_z
_atom_type_partial_charge
C1    C     C_R   0.506301 0.352914 0.501224 0.980655
C2    C     C_R   0.578599 0.548930 0.262610 0.449957
C3    C     C_R   0.585822 0.545972 0.761415 0.469135
C4    C     C_R   0.417933 0.451647 0.239157 0.509498
C5    C     C_R   0.588808 0.546933 0.846212 -0.015231
C6    C     C_R   0.416748 0.449522 0.154651 -0.009983
C7    C     C_R   0.502189 0.500352 0.876294 -0.026755
C8    C     C_R   0.499492 0.498473 0.123916 -0.028920
C9    C     C_1   0.501334 0.499525 0.963778 0.024599
C10   C     C_1   0.500708 0.499035 0.036489 0.022104
C11   C     C_R   0.258075 0.501915 0.465716 0.938902
C12   C     C_R   0.500249 0.645972 0.499843 1.036326
C13   C     C_R   0.741931 0.502470 0.534371 0.979795
C14   C     C_2   0.120514 0.511171 0.445848 -0.041320
C15   C     C_2   0.879624 0.512451 0.555357 -0.066480
C16   C     C_2   0.070510 0.535824 0.506149 -0.083032
C17   C     C_2   0.934236 0.536105 0.495903 -0.108087
C18   C     C_R   0.625560 0.844636 0.506765 -0.207305
C19   C     C_R   0.536712 0.151293 0.433787 -0.226022
C20   C     C_R   0.621907 0.766071 0.508151 0.394469
C21   C     C_R   0.534533 0.229782 0.433152 0.399085
C22   C     C_R   0.503920 0.727405 0.499842 -0.280188
C23   C     C_R   0.512618 0.884079 0.497376 -0.128869
C24   C     C_R   0.521405 0.269674 0.503941 -0.329900
C25   C     C_R   0.389718 0.766824 0.490703 0.260742
C26   C     C_R   0.524805 0.227940 0.577402 0.314060
C27   C     C_R   0.394154 0.846075 0.489461 0.410415
C28   C     C_R   0.526415 0.148623 0.576115 0.386774
C29   C     C_R   0.529799 0.111411 0.503719 -0.122461
C30   C     C_1   0.520483 0.964065 0.498224 0.140863
C31   C     C_1   0.525906 0.031396 0.500187 0.143840
C32   C     C_R   0.415083 0.454499 0.820088 -0.282007
C33   C     C_R   0.579932 0.548429 0.179029 -0.290056
C34   C     C_R   0.414831 0.454956 0.736253 0.489905
Cl1   Cl    Cl    0.766759 0.717734 0.521922 -0.473619
Cl2   Cl    Cl    0.307814 0.392734 0.273723 -0.506912
Cl3   Cl    Cl    0.556166 0.272795 0.342301 -0.509093
Cl4   Cl    Cl    0.241818 0.717083 0.480379 -0.496801
Cl5   Cl    Cl    0.534538 0.271251 0.673694 -0.427055
Cl6   Cl    Cl    0.252281 0.897477 0.478375 -0.429890
Cl7   Cl    Cl    0.524054 0.095269 0.665354 -0.427841
Cl8   Cl    Cl    0.300696 0.396275 0.670406 -0.534214
Cl9   Cl    Cl    0.676974 0.616690 0.325816 -0.522482
Cl10  Cl    Cl    0.694146 0.605910 0.726352 -0.485211
H1    H     H_    0.876742 0.548375 0.434943 0.243999
H2    H     H_    0.383988 0.362225 0.073797 0.226015
H3    H     H_    0.002649 0.544737 0.662559 0.237196
H4    H     H_    0.016500 0.453395 0.634347 0.229549
H5    H     H_    0.097636 0.479319 0.325595 0.246079
H6    H     H_    0.987322 0.443708 0.371099 0.209110
H7    H     H_    0.130697 0.550084 0.566447 0.184579
H8    H     H_    0.716475 0.874981 0.513522 0.217048
H9    H     H_    0.543880 0.121008 0.379119 0.212766
H10   H     H_    0.346805 0.418323 0.841167 0.205144
H11   H     H_    0.643105 0.587722 0.157110 0.205571
H12   H     H_    0.737066 0.561971 0.945815 0.211240
H13   H     H_    0.630135 0.632551 0.929086 0.214912
H14   H     H_    0.270788 0.429275 0.054855 0.205085
N1    N     N_R   0.500030 0.500030 0.707240 -0.178910
N2    N     N_R   0.499970 0.499970 0.292760 -0.177106
N3    N     N_3   0.680094 0.595599 0.900545 -0.368459
N4    N     N_3   0.330269 0.397828 0.101125 -0.361529
N5    N     N_3   0.951551 0.495689 0.637239 -0.402021
N6    N     N_3   0.041091 0.492872 0.365531 -0.409664
O1    O     O_R   0.500000 0.389130 0.566570 -0.546085
O2    O     O_R   0.500000 0.610870 0.433430 -0.570384
O3    O     O_R   0.499990 0.389100 0.433480 -0.544413
O4    O     O_R   0.500010 0.610900 0.566520 -0.577937
O5    O     O_R   0.317810 0.500010 0.541690 -0.602360
O6    O     O_R   0.682190 0.499990 0.458310 -0.619313
O7    O     O_R   0.317800 0.499990 0.408610 -0.592767
O8    O     O_R   0.682200 0.500010 0.591390 -0.563096
Zn1   Zn    Zn3+2 0.500010 0.500020 0.588860 1.092448
Zn2   Zn    Zn3+2 0.499990 0.499980 0.411140 1.081916

loop_
_geom_bond_atom_site_label_1
_geom_bond_atom_site_label_2
_ccdc_geom_bond_type
C33   H11   S    
O7    Zn2   S    
C1    O1    A    
C4    Cl2   S    
H14   N4    S    
C13   O8    A    
C23   C27   A    
C25   Cl4   S    
C25   C27   A    
C2    Cl9   S    
H6    N6    S    
C9    C10   T    
N1    Zn1   S    
C26   C28   A    
C34   Cl8   S    
C16   H7    S    
C27   Cl6   S    
C3    C5    A    
C14   N6    S    
C4    N2    A    
C11   O5    A    
C19   H9    S    
O4    Zn1   S    
C5    C7    A    
C5    N3    S    
C29   C31   S    
H5    N6    S    
O3    Zn2   S    
O5    Zn1   S    
C12   O4    A    
C32   C34   A    
C6    N4    S    
C30   C31   T    
C2    N2    A    
H2    N4    S    
C2    C33   A    
N2    Zn2   S    
C28   C29   A    
C1    O3    A    
C17   H1    S    
C18   C20   A    
C8    C33   A    
C13   C15   S    
H3    N5    S    
C34   N1    A    
C3    Cl10  S    
C11   C14   S    
C11   O7    A    
C26   Cl5   S    
C21   C24   A    
C13   O6    A    
C20   C22   A    
C18   H8    S    
C18   C23   A    
C19   C29   A    
C23   C30   S    
C7    C9    S    
C28   Cl7   S    
C21   Cl3   S    
C1    C24   S    
C4    C6    A    
O1    Zn1   S    
C32   H10   S    
H13   N3    S    
C15   C17   D    
C15   N5    S    
O6    Zn2   S    
C16   C17   S    
H4    N5    S    
C6    C8    A    
C7    C32   A    
O2    Zn2   S    
C14   C16   D    
H12   N3    S    
C20   Cl1   S    
C12   O2    A    
C8    C10   S    
C24   C26   A    
C12   C22   S    
O8    Zn1   S    
C19   C21   A    
C22   C25   A    
C3    N1    A    
