data_mof_unit_55305.cif
_audit_creation_date              2012-12-10T18:02:07-0500
_audit_creation_method            fapswitch 2.2
_symmetry_space_group_name_H-M    P1
_symmetry_Int_Tables_number       1
_space_group_crystal_system       triclinic
_cell_length_a                    10.910493
_cell_length_b                    9.505598
_cell_length_c                    23.556882
_cell_angle_alpha                 90.029292
_cell_angle_beta                  89.40416
_cell_angle_gamma                 90.022151
_cell_volume                      2442.96954319

loop_
_atom_site_label
_atom_site_type_symbol
_atom_type_description
_atom_site_fract_x
_atom_site_fract_y
_atom_site_fract_z
_atom_type_partial_charge
C1    C     C_R   0.261926 0.499969 0.499949 0.775695
C2    C     C_R   0.738073 0.500002 0.500053 0.775679
C3    C     C_R   0.552092 0.619487 0.240386 -0.111451
C4    C     C_R   0.443698 0.616414 0.759621 -0.107306
C5    C     C_R   0.548957 0.616268 0.299473 -0.280869
C6    C     C_R   0.446948 0.613608 0.700532 -0.279540
C7    C     C_R   0.498034 0.500610 0.328441 -0.069167
C8    C     C_R   0.502189 0.500743 0.671465 -0.068477
C9    C     C_R   0.448270 0.387549 0.297032 0.226263
C10   C     C_R   0.556442 0.390307 0.702684 0.228029
C11   C     C_R   0.454522 0.390756 0.237625 -0.174616
C12   C     C_R   0.550783 0.393368 0.762108 -0.175315
C13   C     C_R   0.505166 0.506757 0.209218 0.320061
C14   C     C_R   0.495392 0.506356 0.790610 0.316080
C15   C     C_R   0.063586 0.372238 0.500021 -0.181580
C16   C     C_R   0.936419 0.627605 0.499990 -0.178667
C17   C     C_R   0.936309 0.372258 0.500232 -0.181710
C18   C     C_R   0.063676 0.627585 0.499868 -0.178570
C19   C     C_R   0.871925 0.499954 0.500134 -0.020542
C20   C     C_R   0.128071 0.499913 0.499903 -0.020358
C21   C     C_R   0.420243 0.074360 0.466914 -0.016150
C22   C     C_R   0.579659 0.925618 0.533170 -0.027501
C23   C     C_R   0.579725 0.074522 0.533117 -0.016572
C24   C     C_R   0.420322 0.925465 0.466844 -0.028227
C25   C     C_R   0.498766 0.499968 0.390961 0.820934
C26   C     C_R   0.501178 0.500033 0.609007 0.821632
C27   C     C_R   0.605420 0.523449 0.878613 0.559997
C28   C     C_R   0.393938 0.514032 0.121258 0.557342
C29   C     C_R   0.388093 0.505072 0.880938 0.558153
C30   C     C_R   0.612275 0.515933 0.118871 0.557294
C31   C     C_R   0.386546 0.513955 0.940861 -0.085225
C32   C     C_R   0.613513 0.523967 0.058957 -0.066960
C33   C     C_R   0.499126 0.517214 0.969885 -0.122285
C34   C     C_R   0.500477 0.517972 0.030067 -0.114691
C35   C     C_R   0.610273 0.520015 0.938592 -0.065482
C36   C     C_R   0.388841 0.512124 0.061327 -0.082244
C37   C     C_R   0.275751 0.516827 0.972191 0.239556
C38   C     C_R   0.724374 0.533552 0.027402 0.194916
C39   C     C_R   0.276411 0.506507 0.031661 0.186269
C40   C     C_R   0.722741 0.522666 0.967674 0.192957
Cu1   Cu    Cu3+1 0.500000 0.640660 0.500000 0.941594
Cu2   Cu    Cu3+1 0.500000 0.359340 0.500000 0.965965
H1    H     H_    0.590381 0.710122 0.218730 0.146655
H2    H     H_    0.401621 0.704637 0.781423 0.146247
H3    H     H_    0.587181 0.704219 0.322595 0.172134
H4    H     H_    0.405195 0.699400 0.677469 0.171386
H5    H     H_    0.416594 0.304661 0.213282 0.138714
H6    H     H_    0.592274 0.309462 0.786376 0.136101
H7    H     H_    0.111273 0.272310 0.499991 0.146804
H8    H     H_    0.888754 0.727543 0.499947 0.146870
H9    H     H_    0.888541 0.272339 0.500429 0.146713
H10   H     H_    0.111419 0.727518 0.499752 0.146822
H11   H     H_    0.356306 0.130463 0.440537 0.136720
H12   H     H_    0.643393 0.869499 0.559760 0.121983
H13   H     H_    0.643585 0.130745 0.559564 0.137166
H14   H     H_    0.356559 0.869234 0.440266 0.121486
N1    N     N_R   0.496123 0.511780 0.851540 -0.471698
N2    N     N_R   0.503962 0.512471 0.148245 -0.465524
N3    N     N_R   0.500000 0.852070 0.500000 -0.157334
N4    N     N_R   0.500000 0.147930 0.500000 -0.158432
O1    O     O_R   0.319640 0.618740 0.500000 -0.589933
O2    O     O_R   0.680360 0.381260 0.500000 -0.589700
O3    O     O_R   0.680360 0.618740 0.500000 -0.589920
O4    O     O_R   0.319640 0.381260 0.500000 -0.590209
O5    O     O_R   0.499960 0.618810 0.417880 -0.590587
O6    O     O_R   0.500040 0.381190 0.582120 -0.545591
O7    O     O_R   0.500040 0.618810 0.582120 -0.590199
O8    O     O_R   0.499960 0.381190 0.417880 -0.545091
O9    O     O_2   0.708330 0.541041 0.847131 -0.504552
O10   O     O_2   0.290525 0.520014 0.152933 -0.553073
O11   O     O_2   0.283244 0.486348 0.851998 -0.504889
O12   O     O_2   0.717992 0.507785 0.147898 -0.505346
N5    N     N_2   0.162775 0.538368 0.943998 -0.371731
H15   H     H_    0.089952 0.484848 0.961558 0.264758
C41   C     C_3   0.136313 0.684872 0.932539 -0.636532
H16   H     H_    0.110972 0.740023 0.972584 0.197756
H17   H     H_    0.059358 0.692468 0.902298 0.242396
H18   H     H_    0.216822 0.737960 0.912709 0.233701
N6    N     N_2   0.837435 0.557226 0.055637 -0.374932
H19   H     H_    0.911015 0.501436 0.039933 0.258001
C42   C     C_3   0.864967 0.704185 0.065314 -0.627432
H20   H     H_    0.880978 0.759153 0.024290 0.192265
H21   H     H_    0.948629 0.713340 0.091423 0.226999
H22   H     H_    0.788296 0.756134 0.088601 0.239698
N7    N     N_2   0.162033 0.486672 0.060141 -0.435980
H23   H     H_    0.131492 0.566549 0.086234 0.291756
C43   C     C_3   0.132225 0.343806 0.076927 -0.610182
H24   H     H_    0.044080 0.312380 0.057680 0.203899
H25   H     H_    0.122581 0.337117 0.123808 0.260016
H26   H     H_    0.203703 0.267722 0.062719 0.214260
N8    N     N_2   0.834679 0.512218 0.936651 -0.381174
H27   H     H_    0.902522 0.578831 0.949972 0.249954
C44   C     C_3   0.874279 0.369309 0.925666 -0.621446
H28   H     H_    0.901647 0.317348 0.965810 0.185774
H29   H     H_    0.953672 0.370325 0.895826 0.252626
H30   H     H_    0.799640 0.307532 0.905758 0.237670
N9    N     N_2   0.387704 0.273277 0.324508 -0.423801
H31   H     H_    0.395345 0.179206 0.302886 0.244576
C45   C     C_3   0.262162 0.303178 0.340913 -0.660261
H32   H     H_    0.206433 0.325578 0.302727 0.234904
H33   H     H_    0.257877 0.394715 0.370195 0.224320
H34   H     H_    0.222207 0.210733 0.363155 0.207836
N10   N     N_2   0.620113 0.278617 0.674941 -0.425665
H35   H     H_    0.616579 0.184532 0.696724 0.245697
C46   C     C_3   0.743836 0.314065 0.657367 -0.656473
H36   H     H_    0.800617 0.338233 0.695051 0.236275
H37   H     H_    0.743942 0.406159 0.628372 0.222625
H38   H     H_    0.785509 0.223701 0.634381 0.209216

loop_
_geom_bond_atom_site_label_1
_geom_bond_atom_site_label_2
_ccdc_geom_bond_type
C38   C40   A    
C43   H24   S    
C44   H28   S    
C8    C26   S    
Cu1   Cu2   S    
C11   H5    S    
Cu1   O1    S    
C12   H6    S    
C17   H9    S    
N9    H31   S    
C18   H10   S    
Cu1   O7    S    
N7    H23   S    
C46   H37   S    
C3    H1    S    
C26   O7    A    
C10   N10   S    
C16   H8    S    
C24   N3    A    
C8    C10   A    
C38   N6    S    
C30   N2    A    
C7    C9    A    
N5    H15   S    
N9    C45   S    
C31   C33   A    
C32   C38   A    
Cu2   O2    S    
C18   C20   A    
C3    C13   A    
C44   H29   S    
Cu2   O8    S    
N5    C41   S    
C15   C20   A    
C25   O8    A    
C42   H21   S    
C42   H20   S    
N7    C43   S    
C23   N4    A    
C46   H38   S    
C26   O6    A    
C25   O5    A    
Cu1   N3    S    
C21   N4    A    
C22   H12   S    
C27   N1    A    
Cu2   N4    S    
N8    H27   S    
N6    C42   S    
Cu1   O5    S    
C13   N2    S    
C4    H2    S    
C27   C35   A    
C5    H3    S    
C31   C37   A    
C1    O1    A    
C32   C34   A    
C41   H16   S    
N8    C44   S    
C41   H17   S    
C30   O12   S    
C45   H32   S    
C29   C31   A    
C33   C34   A    
N10   C46   S    
C9    C11   A    
C10   C12   A    
C4    C6    A    
C45   H33   S    
C29   N1    A    
C44   H30   S    
C43   H25   S    
C43   H26   S    
Cu1   O3    S    
C1    O4    A    
Cu2   O4    S    
C22   N3    A    
C42   H22   S    
C2    O3    A    
C5    C7    A    
C15   C17   A    
C14   N1    S    
C37   N5    S    
C1    C20   S    
C9    N9    S    
C6    H4    S    
C2    C19   S    
C36   C39   A    
C28   O10   S    
C12   C14   A    
C3    C5    A    
C27   O9    S    
C6    C8    A    
C23   H13   S    
C28   N2    A    
C24   H14   S    
C46   H36   S    
C7    C25   S    
C35   C40   A    
C37   C39   A    
C30   C32   A    
C11   C13   A    
C33   C35   A    
C16   C19   A    
C21   H11   S    
C17   C19   A    
C34   C36   A    
C15   H7    S    
C40   N8    S    
C4    C14   A    
C41   H18   S    
N6    H19   S    
C45   H34   S    
C28   C36   A    
C16   C18   A    
C21   C24   A    
N10   H35   S    
Cu2   O6    S    
C39   N7    S    
C22   C23   A    
C2    O2    A    
C29   O11   S    
