data_mof_unit_64099.cif
_audit_creation_date              2013-03-05T16:27:22-0500
_audit_creation_method            fapswitch 2.2
_symmetry_space_group_name_H-M    P1
_symmetry_Int_Tables_number       1
_space_group_crystal_system       triclinic
_cell_length_a                    28.254869
_cell_length_b                    18.270799
_cell_length_c                    21.655361
_cell_angle_alpha                 89.75181
_cell_angle_beta                  139.701174
_cell_angle_gamma                 90.208592
_cell_volume                      7230.44101887

loop_
_atom_site_label
_atom_site_type_symbol
_atom_site_description
_atom_site_fract_x
_atom_site_fract_y
_atom_site_fract_z
_atom_type_partial_charge
O1    O     O_R   0.892670 0.439420 0.892670 -0.612619
O2    O     O_R   0.107330 0.560580 0.107330 -0.612219
O3    O     O_R   0.107330 0.439420 0.107330 -0.629426
O4    O     O_R   0.892670 0.560580 0.892670 -0.629571
O5    O     O_R   0.392670 0.939420 0.892670 -0.616458
O6    O     O_R   0.607330 0.060580 0.107330 -0.624445
O7    O     O_R   0.607330 0.939420 0.107330 -0.617420
O8    O     O_R   0.392670 0.060580 0.892670 -0.625554
C1    C     C_R   0.858744 0.499989 0.858600 0.927246
C2    C     C_R   0.141256 0.500008 0.141401 0.927693
C3    C     C_R   0.358744 0.999991 0.858602 0.928150
C4    C     C_R   0.641256 0.000018 0.141399 0.927814
O9    O     O_R   0.999990 0.439420 0.908380 -0.620969
O10   O     O_R   0.000010 0.560580 0.091620 -0.620439
O11   O     O_R   0.000010 0.439420 0.091620 -0.624736
O12   O     O_R   0.999990 0.560580 0.908380 -0.624580
O13   O     O_R   0.499990 0.939420 0.908380 -0.621442
O14   O     O_R   0.500010 0.060580 0.091620 -0.623503
O15   O     O_R   0.500010 0.939420 0.091620 -0.621695
O16   O     O_R   0.499990 0.060580 0.908380 -0.624814
C5    C     C_R   0.996510 0.500236 0.876280 0.868859
C6    C     C_R   0.003363 0.499771 0.123600 0.868941
C7    C     C_R   0.496239 0.000254 0.875980 0.869666
C8    C     C_R   0.503519 0.999963 0.123742 0.868811
Zn1   Zn    Zn3+2 0.000000 0.419100 0.000000 0.963697
Zn2   Zn    Zn3+2 0.000000 0.580900 0.000000 0.964434
Zn3   Zn    Zn3+2 0.500000 0.919100 0.000000 0.966879
Zn4   Zn    Zn3+2 0.500000 0.080900 0.000000 0.961042
H1    H     H_    0.075084 0.417244 0.880974 0.161683
H2    H     H_    0.924838 0.582900 0.118946 0.161141
H3    H     H_    0.570394 0.913021 0.876313 0.162908
H4    H     H_    0.424894 0.916796 0.119611 0.161554
C9    C     C_R   0.893371 0.594339 0.706791 -0.226427
C10   C     C_R   0.106327 0.405634 0.292935 -0.224181
C11   C     C_R   0.397900 0.099454 0.710596 -0.225900
C12   C     C_R   0.607548 0.093067 0.293362 -0.227853
H5    H     H_    0.883179 0.588552 0.745587 0.163415
H6    H     H_    0.116545 0.411380 0.254167 0.163906
H7    H     H_    0.386658 0.094119 0.748206 0.165471
H8    H     H_    0.617773 0.087039 0.254663 0.162829
C13   C     C_R   0.851754 0.645826 0.633250 -0.147033
C14   C     C_R   0.147941 0.354204 0.366482 -0.150759
C15   C     C_R   0.359896 0.153523 0.640453 -0.140235
C16   C     C_R   0.649408 0.144484 0.366688 -0.133791
H9    H     H_    0.812486 0.678938 0.619018 0.149412
H10   H     H_    0.186986 0.321087 0.380366 0.148447
H11   H     H_    0.322663 0.188846 0.628217 0.144530
H12   H     H_    0.688870 0.177191 0.380695 0.143435
C17   C     C_R   0.861113 0.655208 0.579065 0.256429
C18   C     C_R   0.138659 0.344869 0.420761 0.269540
C19   C     C_R   0.370386 0.162282 0.587397 0.265835
C20   C     C_R   0.639901 0.154092 0.420674 0.254633
C21   C     C_R   0.910697 0.610501 0.596837 -0.176622
C22   C     C_R   0.088981 0.389478 0.402855 -0.174968
C23   C     C_R   0.416831 0.114282 0.602332 -0.187319
C24   C     C_R   0.590029 0.109748 0.402898 -0.189117
H13   H     H_    0.917766 0.619461 0.554848 0.150999
H14   H     H_    0.081980 0.380589 0.444927 0.151033
H15   H     H_    0.424250 0.122569 0.560611 0.156241
H16   H     H_    0.583097 0.119117 0.444939 0.158781
C25   C     C_R   0.951416 0.556121 0.668968 0.050563
C26   C     C_R   0.048324 0.443883 0.330778 0.048921
C27   C     C_R   0.454244 0.057865 0.671458 0.051727
C28   C     C_R   0.549068 0.055441 0.331023 0.053470
C29   C     C_R   0.945743 0.550841 0.727998 0.098711
C30   C     C_R   0.053995 0.449154 0.271757 0.098561
C31   C     C_R   0.448082 0.053099 0.729982 0.099090
C32   C     C_R   0.554870 0.049903 0.272198 0.098529
C33   C     C_R   0.992185 0.501292 0.805820 -0.093533
C34   C     C_R   0.007621 0.498734 0.193994 -0.092699
C35   C     C_R   0.491887 0.001303 0.805413 -0.095756
C36   C     C_R   0.508187 0.000515 0.194523 -0.093555
C37   C     C_R   0.039514 0.454990 0.821138 -0.203836
C38   C     C_R   0.960365 0.545117 0.178744 -0.202936
C39   C     C_R   0.536777 0.952482 0.818378 -0.201124
C40   C     C_R   0.460633 0.954422 0.179336 -0.204320
H17   H     H_    0.078567 0.420442 0.772496 0.159466
H18   H     H_    0.921453 0.579793 0.227547 0.158856
H19   H     H_    0.574051 0.915739 0.767991 0.156786
H20   H     H_    0.421217 0.920326 0.227913 0.159556
C41   C     C_R   0.042542 0.457782 0.760788 -0.200260
C42   C     C_R   0.957395 0.542382 0.239163 -0.199128
C43   C     C_R   0.539981 0.954902 0.758190 -0.202077
C44   C     C_R   0.457470 0.957448 0.239540 -0.200938
C45   C     C_R   0.998697 0.507293 0.684976 -0.091087
C46   C     C_R   0.001201 0.492824 0.314929 -0.090051
C47   C     C_R   0.498850 0.006574 0.685019 -0.086759
C48   C     C_R   0.501416 0.006977 0.315049 -0.090801
C49   C     C_1   0.782271 0.499976 0.781890 -0.193622
C50   C     C_1   0.217729 0.500010 0.218112 -0.192990
C51   C     C_1   0.282271 0.999985 0.781894 -0.192687
C52   C     C_1   0.717729 0.000053 0.218111 -0.193825
C53   C     C_1   0.717492 0.499983 0.717069 -0.183011
C54   C     C_1   0.282508 0.499991 0.282932 -0.182103
C55   C     C_1   0.217491 0.000002 0.717071 -0.182008
C56   C     C_1   0.782508 0.000047 0.282932 -0.182728
O17   O     O_R   0.060590 0.607350 0.560620 -0.612112
O18   O     O_R   0.939410 0.392650 0.439380 -0.612927
O19   O     O_R   0.939410 0.607350 0.439380 -0.629511
O20   O     O_R   0.060590 0.392650 0.560620 -0.629078
O21   O     O_R   0.560590 0.107350 0.560620 -0.624203
O22   O     O_R   0.439410 0.892650 0.439380 -0.615695
O23   O     O_R   0.439410 0.107350 0.439380 -0.624831
O24   O     O_R   0.560590 0.892650 0.560620 -0.617618
C57   C     C_R   0.000005 0.641264 0.500144 0.925739
C58   C     C_R   0.999994 0.358736 0.499856 0.925684
C59   C     C_R   0.500014 0.141265 0.500093 0.910008
C60   C     C_R   0.499986 0.858736 0.499904 0.941753
O25   O     O_R   0.060610 0.500000 0.652240 -0.619626
O26   O     O_R   0.939390 0.500000 0.347760 -0.619782
O27   O     O_R   0.560610 0.000000 0.652240 -0.619451
O28   O     O_R   0.439390 0.000000 0.347760 -0.619657
O29   O     O_R   0.939430 0.500000 0.531050 -0.625335
O30   O     O_R   0.060570 0.500000 0.468950 -0.624446
O31   O     O_R   0.439430 0.000000 0.531050 -0.624403
O32   O     O_R   0.560570 1.000000 0.468950 -0.626192
C61   C     C_R   0.999769 0.503023 0.619991 0.867161
C62   C     C_R   0.000213 0.497088 0.379990 0.867625
C63   C     C_R   0.499810 0.002398 0.620011 0.867232
C64   C     C_R   0.500244 0.002975 0.379990 0.867110
Zn5   Zn    Zn3+2 0.080920 0.500000 0.580940 0.966197
Zn6   Zn    Zn3+2 0.919080 0.500000 0.419060 0.964395
Zn7   Zn    Zn3+2 0.580920 1.000000 0.580940 0.963074
Zn8   Zn    Zn3+2 0.419080 0.000000 0.419060 0.965303
O33   O     O_R   0.500010 0.607330 0.448300 -0.620098
O34   O     O_R   0.499990 0.392670 0.551700 -0.620810
O35   O     O_R   0.499990 0.607330 0.551700 -0.618834
O36   O     O_R   0.500010 0.392670 0.448300 -0.619983
O37   O     O_R   0.000010 0.107330 0.448300 -0.619189
O38   O     O_R   0.999990 0.892670 0.551700 -0.619685
O39   O     O_R   0.999990 0.107330 0.551700 -0.619656
O40   O     O_R   0.000010 0.892670 0.448300 -0.618631
C65   C     C_R   0.499994 0.641000 0.499883 0.926401
C66   C     C_R   0.499997 0.358994 0.500110 0.925241
C67   C     C_R   0.000027 0.141003 0.499908 0.925373
C68   C     C_R   0.999972 0.858997 0.500091 0.926302
O41   O     O_R   0.607330 0.500000 0.555630 -0.621147
O42   O     O_R   0.392670 0.500000 0.444370 -0.620205
O43   O     O_R   0.107330 0.000000 0.555630 -0.619981
O44   O     O_R   0.892670 0.000000 0.444370 -0.621099
O45   O     O_R   0.607340 0.500000 0.659080 -0.618032
O46   O     O_R   0.392660 0.500000 0.340920 -0.618341
O47   O     O_R   0.107340 0.000000 0.659080 -0.618536
O48   O     O_R   0.892660 0.000000 0.340920 -0.618099
C69   C     C_R   0.641007 0.499995 0.640870 0.925644
C70   C     C_R   0.358993 0.499978 0.359130 0.926018
C71   C     C_R   0.141006 0.000015 0.640871 0.925729
C72   C     C_R   0.858993 0.000015 0.359130 0.925322
Zn9   Zn    Zn3+2 0.500000 0.500000 0.430940 0.970476
Zn10  Zn    Zn3+2 0.500000 0.500000 0.569060 0.972034
Zn11  Zn    Zn3+2 0.000000 0.000000 0.430940 0.973753
Zn12  Zn    Zn3+2 0.000000 0.000000 0.569060 0.971245
C73   C     C_1   0.999998 0.717733 0.500327 -0.193869
C74   C     C_1   0.000001 0.282266 0.499673 -0.194812
C75   C     C_1   0.500031 0.217730 0.500293 -0.192922
C76   C     C_1   0.499963 0.782262 0.499711 -0.193879
C77   C     C_1   0.500017 0.282510 0.500330 -0.186361
C78   C     C_1   0.499972 0.717480 0.499669 -0.182468
C79   C     C_1   0.999976 0.782515 0.500324 -0.182031
C80   C     C_1   0.000023 0.217485 0.499675 -0.182978
C81   C     C_3   0.817591 0.712547 0.502159 -0.917179
H21   H     H_    0.830653 0.713678 0.465058 0.243398
H22   H     H_    0.758248 0.701135 0.448542 0.244706
H23   H     H_    0.829932 0.767274 0.533968 0.246215
C82   C     C_3   0.182694 0.288112 0.498374 -0.947676
H24   H     H_    0.167701 0.285220 0.533120 0.247822
H25   H     H_    0.173141 0.233491 0.468057 0.247924
H26   H     H_    0.241711 0.301891 0.553684 0.237858
C83   C     C_3   0.332201 0.222127 0.514411 -0.939215
H27   H     H_    0.299257 0.256965 0.512857 0.236619
H28   H     H_    0.373271 0.257374 0.531794 0.251417
H29   H     H_    0.295350 0.197911 0.442545 0.246941
C84   C     C_3   0.682916 0.210869 0.497823 -0.915961
H30   H     H_    0.720185 0.241649 0.503672 0.240865
H31   H     H_    0.644864 0.250351 0.481902 0.247778
H32   H     H_    0.716308 0.184022 0.567503 0.246429

loop_
_geom_bond_atom_site_label_1
_geom_bond_atom_site_label_2
_geom_bond_distance
_ccdc_geom_bond_type
O21   C59   1.268921 A    
C43   C47   1.392416 A    
O36   Zn9   1.995077 S    
O14   Zn4   2.016708 S    
C54   C70   1.397732 S    
O12   C5    1.268878 A    
O32   Zn7   2.021161 S    
C23   H15   1.081944 S    
C75   C77   1.183590 T    
C83   H27   1.108638 S    
O46   C70   1.277714 A    
C57   C73   1.397179 S    
C10   C14   1.393076 A    
H20   C44   1.084271 S    
O9    Zn1   2.016708 S    
O44   C72   1.278118 A    
C81   H21   1.110964 S    
C9    C29   1.414580 A    
C16   H12   1.083140 S    
C68   C79   1.397382 S    
O24   Zn7   1.996065 S    
C84   H30   1.110875 S    
O42   Zn10  1.999279 S    
C74   C80   1.183608 T    
C26   C46   1.413886 A    
O43   C71   1.278129 A    
O21   Zn7   1.996427 S    
O14   C8    1.268552 A    
C28   C32   1.407000 A    
O46   Zn9   1.995022 S    
O41   C69   1.278120 A    
O37   Zn11  1.998272 S    
O48   Zn11  1.995022 S    
O39   C67   1.277597 A    
O35   Zn10  1.995074 S    
O6    C4    1.268641 A    
H2    C38   1.084231 S    
C17   C21   1.400459 A    
O11   Zn1   2.019869 S    
C31   C35   1.416663 A    
H1    C37   1.084238 S    
C52   C56   1.183829 T    
O7    Zn3   1.996082 S    
O27   C63   1.269499 A    
C65   C78   1.397332 S    
C14   H10   1.082088 S    
C13   C17   1.395462 A    
O17   Zn5   1.996427 S    
O5    Zn3   1.996445 S    
O30   Zn5   2.021161 S    
C21   C25   1.415757 A    
C39   C43   1.374172 A    
O11   C6    1.268941 A    
O6    Zn4   1.996443 S    
O29   Zn6   2.021161 S    
C58   C74   1.397181 S    
C23   C27   1.414795 A    
C34   C38   1.394013 A    
C24   C28   1.415584 A    
C33   C37   1.393972 A    
C67   C80   1.397376 S    
H17   C41   1.084299 S    
C48   C64   1.433266 S    
C11   C15   1.393905 A    
O44   Zn12  1.999279 S    
C17   C81   1.501231 S    
C3    C51   1.397571 S    
O48   C72   1.277713 A    
O17   C57   1.269035 A    
C16   C20   1.396722 A    
C82   H25   1.110516 S    
O28   Zn8   2.016152 S    
O37   C67   1.277751 A    
O1    Zn1   1.996445 S    
C83   H28   1.110572 S    
C10   C30   1.414178 A    
O39   Zn12  1.995074 S    
C38   C42   1.374157 A    
O3    Zn1   1.996082 S    
O22   Zn8   1.996429 S    
O23   Zn8   1.996064 S    
C37   C41   1.374004 A    
C81   H22   1.110374 S    
O45   Zn10  1.995019 S    
C50   C54   1.183831 T    
C84   H31   1.110531 S    
O12   Zn2   2.019869 S    
O7    C4    1.268706 A    
O19   C57   1.268712 A    
C27   C31   1.406992 A    
C40   C44   1.374465 A    
C26   C30   1.407063 A    
O27   Zn7   2.016154 S    
O13   Zn3   2.016708 S    
C7    C35   1.436636 S    
C12   H8    1.080860 S    
O1    C1    1.268762 A    
C46   C62   1.432791 S    
C1    C49   1.397568 S    
O28   C64   1.271074 A    
C21   H13   1.081213 S    
O16   Zn4   2.019869 S    
C42   C46   1.393367 A    
C9    H5    1.080758 S    
O32   C64   1.269068 A    
C56   C72   1.397736 S    
C5    C33   1.434855 S    
C32   C36   1.415495 A    
C44   C48   1.393584 A    
C73   C79   1.183608 T    
C11   H7    1.080472 S    
C47   C63   1.430914 S    
O36   C66   1.277512 A    
H18   C42   1.084298 S    
H3    C39   1.084190 S    
C60   C76   1.397267 S    
O16   C7    1.269174 A    
C11   C31   1.414797 A    
O40   C68   1.277596 A    
C18   C82   1.500920 S    
O9    C5    1.271767 A    
C36   C40   1.393859 A    
O2    Zn2   1.996443 S    
O13   C7    1.272625 A    
O10   Zn2   2.016708 S    
O22   C60   1.268897 A    
O26   C62   1.270460 A    
O34   C66   1.277882 A    
O30   C62   1.269364 A    
C25   C45   1.414336 A    
C14   C18   1.395615 A    
O19   Zn6   1.996064 S    
O29   C61   1.269154 A    
O47   Zn12  1.995019 S    
O41   Zn9   1.999277 S    
O47   C71   1.277699 A    
C82   H26   1.109776 S    
O31   C63   1.269122 A    
O38   Zn12  1.998273 S    
O8    Zn4   1.996083 S    
C83   H29   1.110307 S    
C53   C69   1.397733 S    
C55   C71   1.397730 S    
C45   C61   1.432994 S    
O2    C2    1.268800 A    
O24   C60   1.268835 A    
C81   H23   1.110387 S    
O15   Zn3   2.019869 S    
C8    C36   1.434816 S    
C22   H14   1.081191 S    
C84   H32   1.110409 S    
O33   C65   1.277872 A    
O18   Zn6   1.996429 S    
O20   Zn5   1.996065 S    
O31   Zn8   2.021161 S    
C27   C47   1.412298 A    
C10   H6    1.080724 S    
C4    C52   1.397567 S    
O38   C68   1.277750 A    
O35   C65   1.277429 A    
H4    C40   1.084227 S    
O4    Zn2   1.996083 S    
O25   C61   1.270833 A    
C12   C32   1.414706 A    
O5    C3    1.268788 A    
O45   C69   1.277712 A    
C22   C26   1.415550 A    
O20   C58   1.268714 A    
O18   C58   1.269034 A    
C9    C13   1.393719 A    
O10   C6    1.271620 A    
C76   C78   1.183624 T    
O15   C8    1.272004 A    
C18   C22   1.400082 A    
O3    C2    1.268547 A    
O26   Zn6   2.016152 S    
C35   C39   1.395038 A    
O34   Zn10  1.998273 S    
C15   C19   1.396819 A    
C30   C34   1.415256 A    
O42   C70   1.278116 A    
O8    C3    1.268560 A    
C29   C33   1.415557 A    
O43   Zn11  1.999277 S    
C6    C34   1.434790 S    
C19   C23   1.397985 A    
C25   C29   1.407276 A    
C49   C53   1.183829 T    
O33   Zn9   1.998272 S    
C59   C75   1.397096 S    
C12   C16   1.393894 A    
C51   C55   1.183831 T    
H19   C43   1.084333 S    
C24   H16   1.081706 S    
C82   H24   1.110888 S    
C66   C77   1.397414 S    
C2    C50   1.397568 S    
O40   Zn11  1.995077 S    
C13   H9    1.083387 S    
O23   C59   1.268839 A    
O25   Zn5   2.016154 S    
O4    C1    1.268585 A    
C15   H11   1.082456 S    
C20   C84   1.501012 S    
C28   C48   1.414238 A    
C41   C45   1.393285 A    
C20   C24   1.399019 A    
C19   C83   1.500052 S    
