data_mof_unit_11347.cif
_audit_creation_date              2013-03-05T15:53:43-0500
_audit_creation_method            fapswitch 2.2
_symmetry_space_group_name_H-M    P1
_symmetry_Int_Tables_number       1
_space_group_crystal_system       triclinic
_cell_length_a                    12.930217
_cell_length_b                    13.282035
_cell_length_c                    27.681491
_cell_angle_alpha                 94.794023
_cell_angle_beta                  90.403711
_cell_angle_gamma                 119.143841
_cell_volume                      4131.39294494

loop_
_atom_site_label
_atom_site_type_symbol
_atom_site_description
_atom_site_fract_x
_atom_site_fract_y
_atom_site_fract_z
_atom_type_partial_charge
O1    O     O_R   0.296680 0.802170 0.437540 -0.457255
O2    O     O_R   0.525380 0.838530 0.443500 -0.453464
C1    C     C_R   0.628435 0.894621 0.427284 0.586447
O3    O     O_R   0.702130 0.995190 0.446810 -0.443075
O4    O     O_R   0.661770 0.181390 0.458760 -0.480417
C2    C     C_R   0.600928 0.222002 0.440563 0.557486
O5    O     O_R   0.499820 0.198480 0.455280 -0.458946
O6    O     O_R   0.311660 0.976250 0.449080 -0.452243
C3    C     C_R   0.266678 0.875667 0.425983 0.573309
O7    O     O_R   0.297580 0.804960 0.544440 -0.488468
O8    O     O_R   0.526220 0.841130 0.542590 -0.493229
C4    C     C_R   0.627436 0.898823 0.564926 0.556318
O9    O     O_R   0.703030 0.997990 0.553710 -0.478222
O10   O     O_R   0.662610 0.183990 0.557860 -0.503535
C5    C     C_R   0.604601 0.228790 0.577916 0.546481
O11   O     O_R   0.500730 0.201280 0.562180 -0.497518
O12   O     O_R   0.312500 0.978850 0.548170 -0.487340
C6    C     C_R   0.271372 0.879205 0.563236 0.553332
Cr1   Cr    Cr6+3 0.416430 0.829200 0.492370 1.155940
Cr2   Cr    Cr6+3 0.674630 0.087020 0.504170 1.143677
Cr3   Cr    Cr6+3 0.408920 0.083740 0.503490 1.154380
O13   O     O_3   0.499990 0.999990 0.500010 -0.300239
C7    C     C_1   0.630182 0.264591 0.393975 0.108702
C8    C     C_R   0.718907 0.414011 0.288117 -0.081471
C9    C     C_R   0.731870 0.434066 0.239372 -0.063694
C10   C     C_R   0.624365 0.227455 0.215816 0.000988
C11   C     C_R   0.610305 0.204877 0.264888 0.258495
C12   C     C_R   0.658225 0.300722 0.301361 0.072060
C13   C     C_R   0.684347 0.341062 0.203192 0.056868
C14   C     C_1   0.693737 0.364116 0.153128 0.054952
C15   C     C_1   0.646023 0.285691 0.352330 0.100235
C16   C     C_1   0.703031 0.392506 0.112501 0.078109
H1    H     H_    0.755637 0.487355 0.315635 0.140663
H2    H     H_    0.777877 0.522441 0.229853 0.120339
H3    H     H_    0.587669 0.156552 0.187208 0.184639
C17   C     C_R   0.165812 0.747609 0.350890 0.139347
C18   C     C_R   0.174147 0.745424 0.300144 -0.021673
C19   C     C_R   0.170094 0.739141 0.198393 -0.035750
C20   C     C_R   0.163681 0.645143 0.220788 0.205358
C21   C     C_R   0.165694 0.647747 0.271338 0.254829
C22   C     C_R   0.153179 0.730814 0.148297 -0.115525
H4    H     H_    0.139256 0.652856 0.126895 0.211860
C23   C     C_R   0.135643 0.812716 0.126239 -0.021489
C24   C     C_R   0.208506 0.947826 0.356482 0.233967
C25   C     C_R   0.214245 0.948294 0.305607 0.013579
C26   C     C_R   0.193970 0.845390 0.277446 -0.069267
C27   C     C_R   0.248012 0.049972 0.282105 0.281805
C28   C     C_R   0.238170 0.043711 0.231193 0.207380
C29   C     C_R   0.198186 0.936105 0.203119 -0.029229
C30   C     C_R   0.188541 0.840696 0.226381 -0.034123
C31   C     C_R   0.165375 0.919417 0.152710 0.193834
C32   C     C_R   0.202151 0.853903 0.378657 -0.001536
C33   C     C_R   0.755183 0.934932 0.357163 0.219966
C34   C     C_R   0.749013 0.935311 0.306621 -0.006106
C35   C     C_R   0.738924 0.927001 0.204082 -0.010849
C36   C     C_R   0.813212 0.032882 0.232987 0.208944
C37   C     C_R   0.818609 0.036497 0.283724 0.221461
C38   C     C_R   0.735348 0.917232 0.152609 0.221770
C39   C     C_R   0.673602 0.807336 0.126508 0.005038
C40   C     C_R   0.573886 0.749764 0.352218 0.216196
C41   C     C_R   0.591705 0.733010 0.302311 -0.012286
C42   C     C_R   0.669243 0.831405 0.278717 -0.078850
C43   C     C_R   0.534388 0.623340 0.274974 0.294154
C44   C     C_R   0.535978 0.615613 0.224158 0.287415
C45   C     C_R   0.593795 0.717581 0.200063 -0.019100
C46   C     C_R   0.668127 0.825250 0.227585 -0.080929
C47   C     C_R   0.588183 0.713992 0.149149 0.212470
C48   C     C_R   0.655248 0.854764 0.379665 0.003313
C49   C     C_R   0.737655 0.284989 0.651011 -0.060912
C50   C     C_R   0.749193 0.302482 0.701660 -0.011053
C51   C     C_R   0.759348 0.325629 0.804420 -0.012545
C52   C     C_R   0.828926 0.284964 0.778733 0.263521
C53   C     C_R   0.826001 0.276690 0.727751 0.222598
C54   C     C_R   0.766859 0.347210 0.855921 0.211832
H5    H     H_    0.790572 0.254525 0.631231 0.194159
C55   C     C_R   0.688173 0.379110 0.878750 0.001917
C56   C     C_R   0.582897 0.337561 0.649838 -0.057000
C57   C     C_R   0.594582 0.359430 0.700228 0.071085
C58   C     C_R   0.675482 0.337616 0.726488 0.027400
C59   C     C_R   0.520521 0.393550 0.725155 0.257474
C60   C     C_R   0.522029 0.399072 0.775339 -0.043605
C61   C     C_R   0.599179 0.374838 0.801257 -0.016286
C62   C     C_R   0.679036 0.346913 0.777418 -0.004052
C63   C     C_R   0.599505 0.383011 0.851129 -0.119638
C64   C     C_R   0.647688 0.292243 0.625836 -0.003687
H6    H     H_    0.537284 0.405394 0.868326 0.171178
H7    H     H_    0.463097 0.423458 0.794232 0.187135
H8    H     H_    0.515989 0.345446 0.629380 0.195807
C65   C     C_1   0.223349 0.862282 0.610153 0.091275
C66   C     C_R   0.066354 0.770800 0.720021 0.204379
C67   C     C_R   0.053516 0.767765 0.770173 -0.098870
C68   C     C_R   0.263972 0.902952 0.786899 0.239296
C69   C     C_R   0.278576 0.908174 0.736456 0.195826
C70   C     C_R   0.179807 0.842191 0.703080 -0.021137
C71   C     C_R   0.150546 0.832197 0.803351 -0.019111
C72   C     C_1   0.130682 0.818118 0.854068 0.072239
C73   C     C_1   0.197451 0.851554 0.651844 0.095054
C74   C     C_1   0.104232 0.799302 0.895252 0.079857
H9    H     H_    0.967161 0.712494 0.783598 0.159777
C75   C     C_1   0.643489 0.865281 0.610963 0.075391
C76   C     C_R   0.765719 0.884085 0.728686 -0.030838
C77   C     C_R   0.771846 0.880279 0.779127 0.194379
C78   C     C_R   0.555953 0.757832 0.775771 0.243527
C79   C     C_R   0.552203 0.764565 0.725735 -0.018690
C80   C     C_R   0.656796 0.827310 0.702210 -0.021046
C81   C     C_R   0.665355 0.815939 0.802864 0.024624
C82   C     C_1   0.669731 0.801939 0.853820 0.085272
C83   C     C_1   0.651193 0.844305 0.651884 0.045057
C84   C     C_1   0.683402 0.790438 0.895676 0.082231
H10   H     H_    0.845860 0.934303 0.710115 0.211381
H11   H     H_    0.467451 0.721961 0.705289 0.195872
O14   O     O_R   0.820790 0.857990 0.068830 -0.436418
O15   O     O_R   0.016700 0.827330 0.062850 -0.446895
C85   C     C_R   0.066730 0.773186 0.079088 0.552963
O16   O     O_R   0.041970 0.673520 0.060040 -0.509953
O17   O     O_R   0.817980 0.483660 0.048840 -0.484095
C86   C     C_R   0.716866 0.440641 0.067056 0.560259
O18   O     O_R   0.637200 0.461990 0.052510 -0.451506
O19   O     O_R   0.664790 0.681920 0.057970 -0.461129
C87   C     C_R   0.718116 0.783765 0.080239 0.574079
O20   O     O_R   0.815840 0.852920 0.961840 -0.458894
O21   O     O_R   0.012100 0.822630 0.963670 -0.483125
C88   C     C_R   0.057201 0.766551 0.941523 0.548785
O22   O     O_R   0.037010 0.668460 0.953040 -0.465862
O23   O     O_R   0.813390 0.478970 0.949660 -0.450743
C89   C     C_R   0.709953 0.433714 0.928891 0.562271
O24   O     O_R   0.632250 0.456930 0.945520 -0.511198
O25   O     O_R   0.660200 0.677230 0.958780 -0.501239
C90   C     C_R   0.715802 0.776328 0.943127 0.550955
Cr4   Cr    Cr6+3 0.914010 0.832750 0.013970 1.190692
Cr5   Cr    Cr6+3 0.922310 0.578600 0.003000 1.157741
Cr6   Cr    Cr6+3 0.656280 0.574630 0.003870 1.143496
O26   O     O_3   0.830870 0.661990 0.006950 -0.319573
N1    N     N_R   0.280929 0.149073 0.208331 0.146166
O27   O     O_R   0.367595 0.178721 0.179298 -0.262429
O28   O     O_R   0.240604 0.220159 0.219578 -0.093902
Cl1   Cl    Cl    0.326988 0.189896 0.314026 -0.325122
Cl2   Cl    Cl    0.182669 0.049212 0.392637 -0.377753
Cl3   Cl    Cl    0.793142 0.038487 0.118201 -0.397717
Cl4   Cl    Cl    0.891222 0.022599 0.391567 -0.393305
N2    N     N_R   0.886242 0.138366 0.211941 0.148892
O29   O     O_R   0.991677 0.161679 0.199357 -0.131932
O30   O     O_R   0.858978 0.220797 0.215507 -0.251915
N3    N     N_R   0.885997 0.146888 0.311687 0.141371
O31   O     O_R   0.832738 0.187615 0.340294 -0.281088
O32   O     O_R   0.999315 0.209607 0.306671 -0.132053
Cl5   Cl    Cl    0.461870 0.607635 0.113225 -0.387124
Cl6   Cl    Cl    0.483498 0.476048 0.192701 -0.341016
Cl7   Cl    Cl    0.481138 0.493336 0.303301 -0.334876
Cl8   Cl    Cl    0.443135 0.647633 0.378012 -0.381483
N4    N     N_R   0.859451 0.347593 0.884807 0.123771
O33   O     O_R   0.833006 0.277958 0.918688 -0.235236
O34   O     O_R   0.968720 0.428534 0.881991 -0.250314
Cl9   Cl    Cl    0.907417 0.226055 0.807496 -0.314366
N5    N     N_R   0.897463 0.236146 0.702560 0.096660
O35   O     O_R   0.847784 0.133843 0.678590 -0.333222
O36   O     O_R   0.012530 0.296421 0.707639 -0.204032
Cl10  Cl    Cl    0.421969 0.427516 0.695356 -0.511245
N6    N     N_R   0.963729 0.700967 0.687340 0.091423
O37   O     O_R   0.857750 0.669279 0.702061 -0.345993
O38   O     O_R   0.974056 0.658744 0.644653 -0.315152
N7    N     N_R   0.364556 0.966386 0.820957 0.122170
O39   O     O_R   0.463416 0.965548 0.813420 -0.239088
O40   O     O_R   0.357715 0.024851 0.859754 -0.283381
N8    N     N_R   0.393033 0.983845 0.719277 0.102666
O41   O     O_R   0.441269 0.944099 0.687463 -0.353177
O42   O     O_R   0.450532 0.092461 0.736282 -0.292757
N9    N     N_R   0.886203 0.942210 0.805197 0.097332
O43   O     O_R   0.982389 0.968540 0.782330 -0.293267
O44   O     O_R   0.896537 0.984457 0.850204 -0.246683
Cl11  Cl    Cl    0.421664 0.675959 0.803473 -0.483585
N10   N     N_R   0.548265 0.085656 0.276178 0.075278
O45   O     O_R   0.523636 0.001795 0.242352 -0.344448
O46   O     O_R   0.511629 0.058603 0.319285 -0.345013
N11   N     N_R   0.114363 0.641444 0.373736 -0.115299
O47   O     O_R   0.056502 0.630014 0.413025 -0.000001
O48   O     O_R   0.056502 0.630014 0.413025 -0.000001
N12   N     N_R   0.149358 0.543586 0.192161 0.110184
O49   O     O_R   0.045109 0.466338 0.173438 -0.250444
O50   O     O_R   0.237942 0.523338 0.188591 -0.154844
Cl12  Cl    Cl    0.165524 0.528728 0.296210 -0.287609
N13   N     N_R   0.151454 0.004901 0.129481 0.119294
O51   O     O_R   0.068253 0.028368 0.142081 -0.229389
O52   O     O_R   0.210293 0.046974 0.091470 -0.236906

loop_
_geom_bond_atom_site_label_1
_geom_bond_atom_site_label_2
_geom_bond_distance
_ccdc_geom_bond_type
C38   Cl3   1.775825 S    
C58   C62   1.403345 A    
C35   C36   1.423367 A    
C76   C77   1.404465 A    
N5    O36   1.300932 A    
C33   Cl4   1.775676 S    
C55   C89   1.469382 S    
C22   H4    1.081635 S    
C21   Cl12  1.775268 S    
C1    C48   1.485450 S    
O20   Cr4   2.033574 S    
C31   N13   1.433340 S    
O25   C90   1.270859 A    
C55   C63   1.397802 A    
C85   O16   1.265326 A    
C88   O22   1.267487 A    
N11   O48   1.301550 A    
O4    Cr2   1.908462 S    
O16   Cr5   2.051671 S    
C25   C26   1.419328 A    
O17   C86   1.272761 A    
O8    Cr1   1.920734 S    
C10   C11   1.409495 A    
C39   C87   1.479396 S    
C54   C55   1.413591 A    
C89   O24   1.265292 A    
O19   Cr6   1.942621 S    
C28   N1    1.436619 S    
C17   C18   1.408572 A    
C63   H6    1.084875 S    
O15   C85   1.280920 A    
C18   C21   1.420791 A    
N2    O30   1.300424 A    
C23   C85   1.478712 S    
O4    C2    1.271507 A    
C57   C59   1.406525 A    
C81   C82   1.442360 S    
C5    O11   1.270538 A    
C36   C37   1.401363 A    
C66   N6    1.443456 S    
C41   C43   1.414236 A    
C33   C48   1.404822 A    
O24   Cr6   2.060850 S    
C43   Cl7   1.773815 S    
C39   C47   1.398461 A    
N13   O51   1.299965 A    
C27   C28   1.406018 A    
C56   H8    1.082303 S    
Cr6   O26   1.969591 S    
C29   C31   1.422904 A    
C72   C74   1.203728 T    
C77   N9    1.443917 S    
N4    O33   1.301326 A    
N6    O38   1.301152 A    
C66   C70   1.414298 A    
C16   C86   1.431610 S    
C51   C62   1.423845 A    
O9    Cr2   2.025000 S    
C9    H2    1.083931 S    
C5    C64   1.457969 S    
C82   C84   1.204166 T    
C24   C32   1.403076 A    
N9    O44   1.301024 A    
C50   C58   1.409740 A    
C56   C64   1.392044 A    
N8    O42   1.300931 A    
Cr3   O13   1.973019 S    
C44   Cl6   1.775278 S    
C78   Cl11  1.761975 S    
C22   C23   1.398909 A    
N6    O37   1.302225 A    
C27   Cl1   1.772526 S    
C41   C42   1.419638 A    
C3    C32   1.477285 S    
O25   Cr6   1.906684 S    
C79   C80   1.397472 A    
N10   O46   1.300480 A    
C60   C61   1.398131 A    
N7    O40   1.301173 A    
C25   C27   1.419244 A    
C9    C13   1.397050 A    
C74   C88   1.430406 S    
C80   C83   1.436663 S    
C75   C83   1.203703 T    
C76   C80   1.395703 A    
C52   Cl9   1.772664 S    
O15   Cr4   1.919144 S    
C42   C46   1.410493 A    
N12   O49   1.300968 A    
Cr1   O13   1.971618 S    
O1    C3    1.274791 A    
C8    C9    1.392660 A    
C19   C22   1.389088 A    
N3    O32   1.301329 A    
C20   C21   1.396559 A    
O14   C87   1.271738 A    
C57   C58   1.423474 A    
O6    C3    1.275528 A    
N1    O28   1.301114 A    
C34   C42   1.410408 A    
C70   C73   1.444113 S    
C45   C47   1.406351 A    
C76   H10   1.083777 S    
C56   C57   1.392615 A    
O1    Cr1   2.040692 S    
C68   C71   1.407135 A    
O12   Cr3   1.908641 S    
O22   Cr5   2.029129 S    
C65   C73   1.204476 T    
C40   C41   1.419216 A    
C7    C15   1.204504 T    
C13   C14   1.437407 S    
O10   Cr2   1.941677 S    
C51   C54   1.423575 A    
O23   Cr5   1.934836 S    
C59   Cl10  1.764976 S    
N11   O47   1.301547 A    
C69   N8    1.437912 S    
O7    Cr1   2.041986 S    
O19   C87   1.277269 A    
C53   N5    1.435628 S    
C50   C53   1.409947 A    
O12   C6    1.272098 A    
C69   C70   1.417926 A    
C40   Cl8   1.775771 S    
C60   H7    1.084788 S    
C10   C13   1.397344 A    
C36   N2    1.431635 S    
C28   C29   1.415235 A    
Cr2   O13   1.969844 S    
C29   C30   1.421139 A    
C61   C63   1.375536 A    
C47   Cl5   1.773986 S    
O23   C89   1.276326 A    
C54   N4    1.432705 S    
C35   C38   1.418256 A    
Cr4   O26   1.971297 S    
C1    O3    1.271509 A    
N5    O35   1.300909 A    
C20   N12   1.434456 S    
C49   C64   1.398982 A    
N10   O45   1.301835 A    
N7    O39   1.301867 A    
C68   N7    1.439736 S    
N9    O43   1.301636 A    
C24   Cl2   1.773206 S    
C37   N3    1.436868 S    
O2    Cr1   1.927386 S    
C6    C65   1.430741 S    
C12   C15   1.440457 S    
C24   C25   1.411145 A    
C8    C12   1.400187 A    
O20   C90   1.263795 A    
C59   C60   1.384451 A    
Cr5   O26   1.973251 S    
O6    Cr3   1.937373 S    
C79   H11   1.084059 S    
N12   O50   1.300483 A    
O8    C4    1.270784 A    
O11   Cr3   2.056618 S    
C33   C34   1.401366 A    
C2    O5    1.266365 A    
C19   C30   1.409235 A    
C17   C32   1.404344 A    
C26   C30   1.409449 A    
N1    O27   1.300968 A    
C8    H1    1.083986 S    
N3    O31   1.301097 A    
O14   Cr4   2.050783 S    
C44   C45   1.417680 A    
O2    C1    1.276541 A    
C38   C39   1.403763 A    
C51   C52   1.422961 A    
C45   C46   1.420602 A    
O5    Cr3   2.025417 S    
N2    O29   1.299752 A    
C14   C16   1.204185 T    
C23   C31   1.408885 A    
C66   C67   1.400910 A    
C19   C20   1.406831 A    
O17   Cr5   1.911754 S    
O7    C6    1.264987 A    
C52   C53   1.405151 A    
C2    C7    1.430603 S    
C68   C69   1.413299 A    
C49   H5    1.081465 S    
C78   C81   1.408579 A    
N4    O34   1.301602 A    
C49   C50   1.396715 A    
N13   O52   1.301410 A    
C4    C75   1.430669 S    
O18   Cr6   2.023336 S    
C10   H3    1.083490 S    
C67   C71   1.398769 A    
C43   C44   1.402872 A    
O3    Cr2   2.059588 S    
N8    O41   1.301521 A    
C4    O9    1.267012 A    
C40   C48   1.418286 A    
C17   N11   1.439498 S    
C61   C62   1.407463 A    
C77   C81   1.420750 A    
C78   C79   1.397414 A    
O21   C88   1.273783 A    
O10   C5    1.268954 A    
C67   H9    1.084838 S    
C18   C26   1.426055 A    
C86   O18   1.265455 A    
C84   C90   1.430324 S    
C11   N10   1.448327 S    
O21   Cr4   1.930047 S    
C71   C72   1.440161 S    
C35   C46   1.427627 A    
C11   C12   1.425463 A    
C34   C37   1.410738 A    
