data_mof_unit_5530.cif
_audit_creation_date              2012-12-10T17:10:26-0500
_audit_creation_method            fapswitch 2.2
_symmetry_space_group_name_H-M    P1
_symmetry_Int_Tables_number       1
_space_group_crystal_system       triclinic
_cell_length_a                    10.834826
_cell_length_b                    13.005814
_cell_length_c                    11.651954
_cell_angle_alpha                 100.144466
_cell_angle_beta                  93.233218
_cell_angle_gamma                 90.594301
_cell_volume                      1613.35755262

loop_
_atom_site_label
_atom_site_type_symbol
_atom_type_description
_atom_site_fract_x
_atom_site_fract_y
_atom_site_fract_z
_atom_type_partial_charge
C1    C     C_R   0.498129 0.298957 0.478426 0.815347
C2    C     C_R   0.501871 0.701043 0.521574 0.815345
C3    C     C_R   0.502830 0.814548 0.534061 -0.051168
C4    C     C_R   0.497169 0.185452 0.465938 -0.051168
C5    C     C_R   0.488248 0.014199 0.343840 -0.211352
C6    C     C_R   0.511752 0.985801 0.656160 -0.211352
C7    C     C_R   0.488917 0.122368 0.354767 -0.176075
C8    C     C_R   0.511083 0.877632 0.645233 -0.176075
C9    C     C_R   0.504715 0.139660 0.566235 -0.267624
C10   C     C_R   0.495285 0.860340 0.433765 -0.267624
C11   C     C_R   0.504147 0.031605 0.556038 0.174262
C12   C     C_R   0.495853 0.968395 0.443962 0.174263
C13   C     C_R   0.381279 0.403962 0.020966 -0.380062
C14   C     C_R   0.618721 0.596038 0.979034 -0.380063
C15   C     C_R   0.392605 0.412161 0.143006 0.172505
C16   C     C_R   0.607395 0.587839 0.856994 0.172505
C17   C     C_R   0.551576 0.541268 0.157096 -0.010764
C18   C     C_R   0.448424 0.458732 0.842904 -0.010764
C19   C     C_R   0.543171 0.534714 0.034374 0.063996
C20   C     C_R   0.456829 0.465286 0.965626 0.063996
C21   C     C_R   0.262615 0.512264 0.502883 0.818804
C22   C     C_R   0.737385 0.487736 0.497117 0.818804
C23   C     C_R   0.124983 0.532452 0.723573 -0.129868
C24   C     C_R   0.875017 0.467551 0.276427 -0.129869
C25   C     C_R   0.071599 0.499747 0.817460 -0.161800
C26   C     C_R   0.928401 0.500256 0.182541 -0.161801
C27   C     C_R   0.959310 0.445350 0.800004 -0.145893
C28   C     C_R   0.040691 0.554653 0.199996 -0.145893
C29   C     C_R   0.895729 0.431414 0.690976 -0.121564
C30   C     C_R   0.104271 0.568587 0.309024 -0.121564
C31   C     C_R   0.944122 0.471851 0.597081 0.087538
C32   C     C_R   0.055878 0.528150 0.402919 0.087539
C33   C     C_R   0.067202 0.509897 0.609292 0.084999
C34   C     C_R   0.932797 0.490104 0.390708 0.084999
C35   C     C_R   0.872832 0.474778 0.492099 -0.233520
C36   C     C_R   0.127168 0.525223 0.507901 -0.233520
Cu1   Cu    Cu3+1 0.509250 0.507730 0.615930 0.939284
Cu2   Cu    Cu3+1 0.490750 0.492270 0.384070 0.939284
H1    H     H_    0.080165 0.583781 0.128348 0.129659
H2    H     H_    0.919836 0.416222 0.871653 0.129659
H3    H     H_    0.314019 0.349791 0.969610 0.143341
H4    H     H_    0.685981 0.650209 0.030390 0.143341
H5    H     H_    0.208952 0.579115 0.743401 0.158753
H6    H     H_    0.791048 0.420889 0.256598 0.158754
H7    H     H_    0.118333 0.515546 0.903525 0.132032
H8    H     H_    0.881666 0.484458 0.096476 0.132032
H9    H     H_    0.809365 0.387354 0.680505 0.144707
H10   H     H_    0.190636 0.612647 0.319495 0.144707
H11   H     H_    0.488932 0.812127 0.347556 0.152383
H12   H     H_    0.511069 0.187873 0.652444 0.152383
H13   H     H_    0.516931 0.843513 0.723665 0.160904
H14   H     H_    0.483069 0.156487 0.276335 0.160905
H15   H     H_    0.481853 0.966505 0.257420 0.136400
H16   H     H_    0.518147 0.033495 0.742579 0.136400
H17   H     H_    0.382189 0.405304 0.789469 0.136977
H18   H     H_    0.617811 0.594696 0.210531 0.136977
N1    N     N_R   0.523180 0.519350 0.790130 -0.207557
N2    N     N_R   0.476820 0.480650 0.209870 -0.207557
O1    O     O_R   0.506570 0.354460 0.582000 -0.597547
O2    O     O_R   0.493430 0.645540 0.418000 -0.597547
O3    O     O_R   0.490940 0.341410 0.386200 -0.588306
O4    O     O_R   0.509060 0.658590 0.613800 -0.588306
O5    O     O_R   0.327470 0.506520 0.597900 -0.594984
O6    O     O_R   0.672530 0.493480 0.402100 -0.594985
O7    O     O_R   0.311840 0.493460 0.402100 -0.576586
O8    O     O_R   0.688160 0.506540 0.597900 -0.576586
C37   C     C_1   0.686570 0.653705 0.804631 0.299299
N3    N     N_1   0.750797 0.706984 0.763402 -0.296519
C38   C     C_1   0.313430 0.346294 0.195369 0.299299
N4    N     N_1   0.249203 0.293016 0.236597 -0.296519

loop_
_geom_bond_atom_site_label_1
_geom_bond_atom_site_label_2
_ccdc_geom_bond_type
C11   C12   A    
C31   C33   A    
Cu1   N1    S    
Cu1   Cu2   S    
C14   C16   A    
C27   C29   A    
C27   H2    S    
C18   N1    A    
C18   C20   A    
C19   C20   A    
C8    H13   S    
Cu2   O7    S    
C17   N2    A    
C14   H4    S    
Cu2   O3    S    
Cu1   O8    S    
C1    C4    S    
C28   C30   A    
C2    C3    S    
C29   C31   A    
C21   C36   S    
Cu2   N2    S    
C26   C28   A    
C30   C32   A    
C22   C35   S    
C9    C11   A    
C17   H18   S    
Cu1   O1    S    
C10   C12   A    
C18   H17   S    
C29   H9    S    
C4    C7    A    
Cu2   O2    S    
C32   C36   A    
C31   C35   A    
C5    H15   S    
C15   C38   S    
C17   C19   A    
C1    O1    A    
C24   C26   A    
C7    H14   S    
Cu1   O4    S    
Cu2   O6    S    
C16   N1    A    
C23   C25   A    
C13   C15   A    
C38   N4    T    
C24   H6    S    
C15   N2    A    
C2    O2    A    
C21   O5    A    
C25   C27   A    
C26   H8    S    
C16   C37   S    
C37   N3    T    
C25   H7    S    
C33   C36   A    
C23   H5    S    
C3    C8    A    
C5    C12   A    
C5    C7    A    
C34   C35   A    
C30   H10   S    
C6    C11   A    
C3    C10   A    
C13   H3    S    
C22   O8    A    
C6    C8    A    
C28   H1    S    
C21   O7    A    
C4    C9    A    
Cu1   O5    S    
C10   H11   S    
C22   O6    A    
C14   C19   A    
C13   C20   A    
C6    H16   S    
C24   C34   A    
C9    H12   S    
C2    O4    A    
C32   C34   A    
C23   C33   A    
C1    O3    A    
