data_mof_unit_32719.cif
_audit_creation_date              2013-03-05T16:15:19-0500
_audit_creation_method            fapswitch 2.2
_symmetry_space_group_name_H-M    P1
_symmetry_Int_Tables_number       1
_space_group_crystal_system       triclinic
_cell_length_a                    27.783459
_cell_length_b                    10.623086
_cell_length_c                    9.407342
_cell_angle_alpha                 89.652163
_cell_angle_beta                  90.068866
_cell_angle_gamma                 89.213478
_cell_volume                      2776.22500323

loop_
_atom_site_label
_atom_site_type_symbol
_atom_site_description
_atom_site_fract_x
_atom_site_fract_y
_atom_site_fract_z
_atom_type_partial_charge
O1    O     O_R   0.500020 0.316850 0.620870 -0.563955
O2    O     O_R   0.499980 0.683150 0.379130 -0.564063
O3    O     O_R   0.500000 0.316860 0.379090 -0.605079
O4    O     O_R   0.500000 0.683140 0.620910 -0.603260
C1    C     C_R   0.499966 0.259367 0.500335 0.891365
C2    C     C_R   0.500176 0.740643 0.499670 0.893350
O5    O     O_R   0.430270 0.500020 0.620880 -0.537399
O6    O     O_R   0.569730 0.499980 0.379120 -0.534312
O7    O     O_R   0.430250 0.500030 0.379090 -0.598738
O8    O     O_R   0.569750 0.499970 0.620910 -0.602295
C3    C     C_R   0.407727 0.497247 0.499943 0.935293
C4    C     C_R   0.592275 0.502613 0.500033 0.923822
Cu1   Cu    Cu3+1 0.500010 0.499990 0.643150 0.998577
Cu2   Cu    Cu3+1 0.499990 0.500010 0.356850 1.000676
C5    C     C_R   0.177748 0.439411 0.374143 0.655567
C6    C     C_R   0.822148 0.554380 0.626925 0.570975
O9    O     O_2   0.202586 0.407829 0.256283 -0.442733
O10   O     O_2   0.797164 0.583258 0.745372 -0.452661
N1    N     N_R   0.202385 0.481250 0.490042 -0.447584
N2    N     N_R   0.797632 0.516430 0.509096 -0.476649
C7    C     C_R   0.179201 0.518066 0.610875 0.599526
C8    C     C_R   0.820980 0.480902 0.388083 0.576756
C9    C     C_R   0.277280 0.600836 0.448690 -0.049568
C10   C     C_R   0.722713 0.398979 0.551345 -0.049636
C11   C     C_R   0.328240 0.604715 0.454281 -0.147426
C12   C     C_R   0.671683 0.395580 0.548357 -0.093352
C13   C     C_R   0.330672 0.383909 0.534352 0.273081
C14   C     C_R   0.669443 0.614597 0.461816 0.267721
C15   C     C_R   0.280598 0.381173 0.524880 -0.157799
C16   C     C_R   0.719543 0.617145 0.470695 -0.100518
C17   C     C_R   0.253929 0.487679 0.484824 0.268491
C18   C     C_R   0.746045 0.511116 0.513047 0.197547
C19   C     C_R   0.102177 0.479957 0.497450 -0.077782
C20   C     C_R   0.897878 0.514643 0.504244 -0.086540
C21   C     C_R   0.126877 0.433943 0.376396 -0.145653
C22   C     C_R   0.873042 0.559034 0.625766 -0.138640
C23   C     C_R   0.099894 0.387259 0.261352 0.358289
C24   C     C_R   0.899888 0.603419 0.742287 0.357788
C25   C     C_R   0.128839 0.519345 0.616398 -0.010048
C26   C     C_R   0.871354 0.477909 0.383866 -0.016454
C27   C     C_R   0.354844 0.496335 0.499630 -0.167205
C28   C     C_R   0.645156 0.503167 0.500145 -0.202018
H1    H     H_    0.261737 0.295914 0.552752 0.192197
H2    H     H_    0.738497 0.701765 0.440960 0.199159
C29   C     C_R   0.973268 0.461739 0.379112 0.071643
C30   C     C_R   0.026831 0.532878 0.623177 0.071780
C31   C     C_R   0.975637 0.543320 0.623920 -0.008262
C32   C     C_R   0.024354 0.449445 0.379197 -0.008157
C33   C     C_R   0.949118 0.506555 0.502543 0.080714
C34   C     C_R   0.050930 0.487334 0.499916 0.082109
C35   C     C_R   0.945262 0.432471 0.258270 -0.172302
C36   C     C_R   0.055057 0.565370 0.742533 -0.169974
C37   C     C_R   0.895448 0.438984 0.261522 -0.063285
C38   C     C_R   0.104887 0.559783 0.738375 -0.065560
O11   O     O_2   0.795373 0.446719 0.272871 -0.489478
O12   O     O_2   0.204957 0.555170 0.724609 -0.501826
C39   C     C_R   0.049796 0.396599 0.263513 -0.252717
C40   C     C_R   0.949994 0.593384 0.740871 -0.258935
H3    H     H_    0.875811 0.413193 0.166690 0.207803
H4    H     H_    0.124662 0.587916 0.832083 0.210123
H5    H     H_    0.960506 0.405422 0.157733 0.151794
H6    H     H_    0.040085 0.595439 0.842326 0.152882
H7    H     H_    0.031751 0.355971 0.173925 0.173703
H8    H     H_    0.967810 0.630919 0.832535 0.175392
C41   C     C_3   0.504023 0.039887 0.634773 -0.172108
C42   C     C_3   0.496294 0.960170 0.365267 -0.174563
C43   C     C_3   0.541457 0.956098 0.557259 -0.118591
C44   C     C_3   0.458855 0.043926 0.442788 -0.121840
H9    H     H_    0.575186 0.917111 0.604330 0.189353
H10   H     H_    0.425140 0.082874 0.395606 0.187831
H11   H     H_    0.507198 0.075162 0.745200 0.155542
H12   H     H_    0.493121 0.924913 0.254834 0.155767
C45   C     C_3   0.500095 0.877615 0.499148 -0.016864
C46   C     C_3   0.500200 0.122420 0.500897 -0.014607
C47   C     C_3   0.462654 0.959177 0.576662 -0.075938
C48   C     C_3   0.537662 0.040910 0.423409 -0.073945
H13   H     H_    0.432086 0.923569 0.640459 0.192857
H14   H     H_    0.568267 0.076844 0.359986 0.194681
C49   C     C_3   0.514845 0.606371 0.049856 -0.023329
C50   C     C_3   0.485156 0.393628 0.950142 -0.026238
C51   C     C_3   0.472050 0.588097 0.948588 -0.044214
C52   C     C_3   0.527950 0.411902 0.051411 -0.044501
H15   H     H_    0.448546 0.662132 0.900227 0.134427
H16   H     H_    0.551455 0.337867 0.099769 0.134785
H17   H     H_    0.527430 0.695873 0.096476 0.149750
H18   H     H_    0.472566 0.304133 0.903513 0.148949
N3    N     N_3   0.500040 0.499970 0.858290 -0.169799
N4    N     N_3   0.499960 0.500030 0.141710 -0.169866
C53   C     C_3   0.542843 0.518238 0.949702 -0.022744
C54   C     C_3   0.457158 0.481761 0.050297 -0.022874
H19   H     H_    0.578967 0.533817 0.903076 0.141341
H20   H     H_    0.421034 0.466172 0.096922 0.142819
N5    N     N_R   0.356205 0.270360 0.574940 0.099682
O13   O     O_R   0.339906 0.161434 0.536466 -0.364780
O14   O     O_R   0.390970 0.273423 0.667488 -0.379086
N6    N     N_R   0.643990 0.727689 0.419272 0.099591
O15   O     O_R   0.660193 0.837012 0.456666 -0.335523
O16   O     O_R   0.609463 0.723649 0.326030 -0.375114
N7    N     N_R   0.122161 0.323793 0.143795 0.167400
O17   O     O_R   0.109625 0.353380 0.014415 -0.348457
O18   O     O_R   0.146605 0.220185 0.166196 -0.279265
N8    N     N_R   0.877504 0.666257 0.860147 0.168821
O19   O     O_R   0.890125 0.636567 0.989439 -0.354549
O20   O     O_R   0.852969 0.769820 0.838144 -0.268964
C55   C     C_2   0.646532 0.281782 0.601206 0.460098
H21   H     H_    0.661031 0.228763 0.690786 0.111939
O21   O     O_2   0.610118 0.244487 0.543631 -0.584817
C56   C     C_2   0.353227 0.721359 0.408789 0.360583
H22   H     H_    0.338434 0.779525 0.323760 0.081876
O22   O     O_2   0.389890 0.755317 0.467659 -0.575789
C57   C     C_2   0.752903 0.286619 0.589294 0.411105
H23   H     H_    0.788667 0.298604 0.633150 0.088541
O23   O     O_2   0.739301 0.179846 0.566387 -0.496195
C58   C     C_2   0.248708 0.716541 0.411819 0.424290
H24   H     H_    0.263752 0.808998 0.428123 0.082436
O24   O     O_2   0.208265 0.710631 0.361714 -0.506162

loop_
_geom_bond_atom_site_label_1
_geom_bond_atom_site_label_2
_geom_bond_distance
_ccdc_geom_bond_type
C42   C44   1.545890 S    
N5    O13   1.301572 A    
C13   C15   1.394682 A    
C57   H23   1.084850 S    
C35   H5    1.075821 S    
C23   N7    1.435113 S    
N1    C17   1.435530 S    
C58   H24   1.084370 S    
C37   H3    1.083731 S    
C32   C39   1.413340 A    
C31   C33   1.417915 A    
C38   H4    1.083911 S    
C44   C47   1.546304 S    
C5    N1    1.366491 A    
C55   O21   1.219099 D    
C19   C25   1.410004 A    
C52   C53   1.537337 S    
C46   C48   1.532709 S    
O1    C1    1.291155 A    
C48   H14   1.110002 S    
C21   C23   1.412100 A    
C10   C12   1.418997 A    
C50   N3    1.481778 S    
C25   C38   1.394299 A    
C29   C35   1.415356 A    
C44   C46   1.531016 S    
C30   C36   1.415939 A    
O4    Cu1   1.955568 S    
C56   H22   1.084804 S    
C14   C28   1.415593 A    
C1    C46   1.454694 S    
C50   H18   1.110155 S    
C24   C40   1.394819 A    
C42   H12   1.110293 S    
C41   C43   1.545961 S    
N6    O16   1.300405 A    
C4    C28   1.469323 S    
C43   C45   1.531296 S    
C53   H19   1.109889 S    
O6    C4    1.298511 A    
C24   N8    1.435593 S    
C32   C34   1.417242 A    
C8    C26   1.400112 A    
N5    O14   1.300462 A    
Cu1   Cu2   2.693319 S    
C15   H1    1.083580 S    
C45   C47   1.532755 S    
C16   H2    1.083486 S    
O2    C2    1.291276 A    
C10   C57   1.490758 S    
C12   C55   1.487820 S    
C5    C21   1.415538 A    
C49   N4    1.481783 S    
C51   H15   1.110318 S    
C36   C38   1.385514 A    
C39   H7    1.075763 S    
C40   H8    1.075255 S    
C50   C52   1.537792 S    
C11   C27   1.422610 A    
C49   C51   1.537789 S    
C19   C34   1.425126 A    
C41   H11   1.110295 S    
C42   C45   1.533046 S    
C41   C46   1.532922 S    
C43   H9    1.109918 S    
C9    C17   1.413650 A    
O5    C3    1.298727 A    
O7    Cu2   1.949128 S    
C10   C18   1.409122 A    
C47   H13   1.109877 S    
C13   C27   1.414888 A    
C54   H20   1.109886 S    
N7    O17   1.301084 A    
C7    C25   1.400151 A    
C29   C33   1.423020 A    
C6    N2    1.366132 A    
C42   C48   1.545009 S    
N6    O15   1.301558 A    
Cu1   N3    2.023894 S    
C57   O23   1.220794 D    
N8    O20   1.301603 A    
O7    C3    1.298781 A    
C51   N3    1.481228 S    
O3    Cu2   1.955567 S    
O8    C4    1.298961 A    
C51   C54   1.537336 S    
O4    C2    1.290602 A    
N7    O18   1.301279 A    
N4    C54   1.482322 S    
C52   H16   1.110315 S    
N3    C53   1.482319 S    
C20   C26   1.410323 A    
C13   N5    1.440246 S    
O1    Cu1   1.958032 S    
C49   H17   1.110144 S    
C12   C28   1.422977 A    
C2    C45   1.455018 S    
N2    C18   1.435671 S    
C29   C32   1.423551 A    
C5    O9    1.348364 S    
C30   C31   1.425173 A    
C20   C33   1.425136 A    
O6    Cu2   1.948657 S    
N1    C7    1.363905 A    
N2    C8    1.363627 A    
O3    C1    1.290558 A    
O8    Cu1   1.949128 S    
C7    O12   1.350260 S    
C58   O24   1.220532 D    
C8    O11   1.350100 S    
C55   H21   1.084822 S    
C30   C34   1.423639 A    
C41   C47   1.544753 S    
C14   N6    1.440063 S    
C22   C24   1.412129 A    
Cu2   N4    2.023894 S    
C15   C17   1.393636 A    
C36   H6    1.075782 S    
C6    C22   1.415612 A    
C9    C58   1.492870 S    
C16   C18   1.393081 A    
C52   N4    1.481239 S    
C14   C16   1.394979 A    
C19   C21   1.416395 A    
C56   O22   1.218834 D    
C3    C27   1.469448 S    
C20   C22   1.415958 A    
C9    C11   1.417932 A    
C50   C54   1.536833 S    
N8    O19   1.301176 A    
O2    Cu2   1.958030 S    
C49   C53   1.536834 S    
O5    Cu1   1.948657 S    
C6    O10   1.348224 S    
C26   C37   1.394186 A    
C44   H10   1.109834 S    
C43   C48   1.546503 S    
C35   C37   1.385182 A    
C23   C39   1.394252 A    
C11   C56   1.489439 S    
C31   C40   1.414025 A    
