data_mof_unit_32038.cif
_audit_creation_date              2012-12-10T16:50:12-0500
_audit_creation_method            fapswitch 2.2
_symmetry_space_group_name_H-M    P1
_symmetry_Int_Tables_number       1
_space_group_crystal_system       triclinic
_cell_length_a                    23.542925
_cell_length_b                    8.769439
_cell_length_c                    7.634874
_cell_angle_alpha                 102.015916
_cell_angle_beta                  96.29544
_cell_angle_gamma                 95.372804
_cell_volume                      1521.41302828

loop_
_atom_site_label
_atom_site_type_symbol
_atom_type_description
_atom_site_fract_x
_atom_site_fract_y
_atom_site_fract_z
_atom_type_partial_charge
C1    C     C_R   0.496098 0.200305 0.454068 0.874314
C2    C     C_R   0.501667 0.799289 0.545720 0.886703
C3    C     C_R   0.246524 0.645463 0.532771 0.302481
C4    C     C_R   0.750890 0.342223 0.435055 0.258214
C5    C     C_R   0.306484 0.639969 0.561948 -0.005225
C6    C     C_R   0.692987 0.349770 0.465606 0.021348
C7    C     C_R   0.329163 0.499432 0.495655 -0.105614
C8    C     C_R   0.670688 0.494986 0.497549 -0.113575
C9    C     C_R   0.291786 0.361401 0.417607 0.177491
C10   C     C_R   0.706577 0.633182 0.503017 0.156248
C11   C     C_R   0.232560 0.362679 0.418886 -0.229839
C12   C     C_R   0.763532 0.625651 0.469762 -0.213546
C13   C     C_R   0.208942 0.503716 0.472583 0.244846
C14   C     C_R   0.786930 0.482506 0.442129 0.250200
C15   C     C_2   0.492865 0.031910 0.428927 -0.315000
C16   C     C_2   0.501587 0.966742 0.570714 -0.290227
C17   C     C_R   0.391522 0.498982 0.498767 0.855596
C18   C     C_R   0.608544 0.500484 0.500714 0.876386
C19   C     C_R   0.884575 0.580846 0.583152 0.570436
C20   C     C_R   0.110957 0.411537 0.321721 0.550077
C21   C     C_R   0.870566 0.395564 0.302082 0.613840
C22   C     C_R   0.124228 0.586181 0.609549 0.624458
C23   C     C_R   0.930295 0.382489 0.313743 -0.115294
C24   C     C_R   0.064844 0.600942 0.595341 -0.097806
C25   C     C_R   0.967488 0.491428 0.450208 -0.113503
C26   C     C_R   0.027756 0.494659 0.456979 -0.112911
C27   C     C_R   0.944464 0.597740 0.579947 -0.078350
C28   C     C_R   0.051083 0.390661 0.326248 -0.092169
C29   C     C_R   0.954226 0.262318 0.200207 0.229686
C30   C     C_R   0.041622 0.720628 0.710381 0.186714
C31   C     C_R   0.014369 0.265798 0.209381 0.238169
C32   C     C_R   0.981533 0.719116 0.700955 0.224248
Cu1   Cu    Cu3+1 0.506340 0.517380 0.684380 1.001680
Cu2   Cu    Cu3+1 0.493660 0.482620 0.315620 1.000337
H1    H     H_    0.204730 0.252717 0.373739 0.170402
H2    H     H_    0.790764 0.733525 0.474317 0.165591
H3    H     H_    0.485147 0.961366 0.291596 0.202398
H4    H     H_    0.509303 0.037324 0.708031 0.203716
N1    N     N_R   0.848545 0.484546 0.442339 -0.444387
N2    N     N_R   0.146970 0.501676 0.467215 -0.441999
N3    N     N_2   0.484110 0.456420 0.038520 0.023477
N4    N     N_2   0.515890 0.543580 0.961480 0.029631
O1    O     O_R   0.504120 0.286130 0.619770 -0.599107
O2    O     O_R   0.495880 0.713870 0.380230 -0.603146
O3    O     O_R   0.493410 0.256770 0.308360 -0.564059
O4    O     O_R   0.506590 0.743230 0.691640 -0.562540
O5    O     O_R   0.423230 0.514630 0.655730 -0.595491
O6    O     O_R   0.576770 0.485370 0.344270 -0.601471
O7    O     O_R   0.412530 0.485280 0.344320 -0.582598
O8    O     O_R   0.587470 0.514720 0.655680 -0.577253
O9    O     O_2   0.862509 0.657927 0.727503 -0.525232
O10   O     O_2   0.132701 0.346198 0.171386 -0.556700
O11   O     O_2   0.835198 0.326885 0.149990 -0.552989
O12   O     O_2   0.158506 0.651622 0.765550 -0.533974
N5    N     N_2   0.919491 0.125848 0.094065 -0.404812
H5    H     H_    0.887175 0.143125 0.000821 0.293075
C33   C     C_3   0.904407 0.006408 0.191780 -0.655979
H6    H     H_    0.943769 0.961530 0.244640 0.233820
H7    H     H_    0.876417 0.906388 0.099421 0.251820
H8    H     H_    0.881451 0.054725 0.306679 0.225858
N6    N     N_2   0.077336 0.855388 0.816707 -0.422045
H9    H     H_    0.101702 0.836954 0.929287 0.287517
C34   C     C_3   0.106421 0.957000 0.718034 -0.592490
H10   H     H_    0.088839 0.071282 0.738551 0.211880
H11   H     H_    0.100558 0.905667 0.570399 0.217250
H12   H     H_    0.153198 0.978527 0.767873 0.247074
N7    N     N_2   0.037038 0.130364 0.120948 -0.400897
H13   H     H_    0.056666 0.142838 0.010258 0.297233
C35   C     C_3   0.064904 0.039984 0.237153 -0.690728
H14   H     H_    0.112176 0.055688 0.236105 0.237718
H15   H     H_    0.048889 0.913647 0.187316 0.217838
H16   H     H_    0.055595 0.075369 0.378709 0.217033
N8    N     N_2   0.958320 0.849732 0.798231 -0.365477
H17   H     H_    0.977601 0.892382 0.928633 0.302360
C36   C     C_3   0.944891 0.968058 0.697739 -0.594899
H18   H     H_    0.899257 0.988294 0.703344 0.232030
H19   H     H_    0.951083 0.931506 0.553411 0.198835
H20   H     H_    0.972900 0.080020 0.757297 0.215579
N9    N     N_2   0.223730 0.792230 0.555837 -0.400002
H21   H     H_    0.246085 0.882332 0.654749 0.277034
C37   C     C_3   0.206802 0.839328 0.388844 -0.709514
H22   H     H_    0.190180 0.954982 0.419087 0.210292
H23   H     H_    0.172181 0.752534 0.302776 0.253794
H24   H     H_    0.244340 0.850028 0.313914 0.249830
N10   N     N_2   0.773257 0.194948 0.401001 -0.417071
H25   H     H_    0.774456 0.139838 0.508006 0.255043
C38   C     C_3   0.751787 0.090410 0.227143 -0.575710
H26   H     H_    0.725171 0.985216 0.245405 0.193001
H27   H     H_    0.788220 0.049247 0.158217 0.245552
H28   H     H_    0.725667 0.149438 0.136675 0.252012
I1    I     I_    0.362902 0.841807 0.707497 -0.451425
I2    I     I_    0.639661 0.142886 0.471616 -0.462459
N11   N     N_2   0.313152 0.221389 0.334230 -0.445109
H29   H     H_    0.284830 0.151906 0.228860 0.267822
C39   C     C_3   0.335982 0.131765 0.458276 -0.689639
H30   H     H_    0.302258 0.097575 0.538417 0.246321
H31   H     H_    0.373272 0.200740 0.550902 0.222348
H32   H     H_    0.350839 0.024264 0.381192 0.250913
N12   N     N_2   0.686028 0.781280 0.549172 -0.434927
H33   H     H_    0.694219 0.849800 0.458543 0.268217
C40   C     C_3   0.705725 0.864407 0.733683 -0.650037
H34   H     H_    0.752241 0.908584 0.749287 0.233231
H35   H     H_    0.699060 0.786216 0.828677 0.231486
H36   H     H_    0.681111 0.965677 0.769831 0.248640
N13   N     N_2   0.449370 0.327165 0.931249 -0.309405
H37   H     H_    0.440046 0.329530 0.800267 0.288003
C41   C     C_3   0.396340 0.284656 0.997632 -0.515256
H38   H     H_    0.369249 0.190528 0.894271 0.189744
H39   H     H_    0.371404 0.386755 0.022176 0.228596
H40   H     H_    0.404420 0.236580 0.119296 0.267990
N14   N     N_2   0.549856 0.674156 0.069464 -0.292540
H41   H     H_    0.560066 0.670570 0.199969 0.300382
C42   C     C_3   0.602363 0.721664 0.003473 -0.567893
H42   H     H_    0.627622 0.820879 0.105316 0.183227
H43   H     H_    0.593730 0.765390 0.879237 0.262470
H44   H     H_    0.629163 0.623266 0.982895 0.220766

loop_
_geom_bond_atom_site_label_1
_geom_bond_atom_site_label_2
_ccdc_geom_bond_type
C21   O11   S    
N5    H5    S    
C34   H11   S    
N11   H29   S    
C41   H39   S    
N3    N4    D    
C39   H30   S    
N4    N14   S    
C3    N9    S    
C37   H22   S    
C39   H32   S    
C22   O12   S    
N10   H25   S    
C2    O4    A    
C31   N7    S    
N13   C41   S    
C40   H34   S    
N3    N13   S    
Cu1   N4    S    
C23   C29   A    
C24   C26   A    
C20   N2    A    
C33   H7    S    
C19   N1    A    
C15   C16   D    
C35   H15   S    
N8    H17   S    
N6    C34   S    
C15   H3    S    
C13   N2    S    
C14   N1    S    
C1    O1    A    
N14   H41   S    
C2    O2    A    
C7    C17   S    
C41   H38   S    
C1    C15   S    
C12   H2    S    
C2    C16   S    
N6    H9    S    
C3    C13   A    
C42   H44   S    
C34   H12   S    
C40   H35   S    
Cu1   O4    S    
N8    C36   S    
C35   H14   S    
Cu2   N3    S    
C37   H23   S    
N10   C38   S    
N7    H13   S    
Cu1   O1    S    
Cu2   O2    S    
C4    C6    A    
C17   O7    A    
C32   N8    S    
N9    C37   S    
C33   H8    S    
C6    C8    A    
C4    N10   S    
C20   C28   A    
Cu1   O8    S    
C8    C18   S    
N9    H21   S    
N7    C35   S    
C35   H16   S    
C36   H18   S    
C36   H19   S    
N12   H33   S    
C21   N1    A    
C29   C31   A    
C22   N2    A    
Cu1   Cu2   S    
N14   C42   S    
Cu2   O3    S    
C9    C11   A    
C5    I1    S    
C10   C12   A    
N12   C40   S    
C12   C14   A    
C40   H36   S    
N5    C33   S    
Cu1   O5    S    
C41   H40   S    
C22   C24   A    
C30   N6    S    
Cu2   O6    S    
C9    N11   S    
C37   H24   S    
C19   C27   A    
C18   O8    A    
C5    C7    A    
C42   H42   S    
C7    C9    A    
Cu2   O7    S    
C27   C32   A    
C28   C31   A    
C17   O5    A    
C3    C5    A    
C18   O6    A    
C39   H31   S    
C25   C27   A    
C29   N5    S    
N13   H37   S    
C26   C28   A    
C21   C23   A    
C25   C26   A    
C20   O10   S    
C30   C32   A    
C11   C13   A    
C1    O3    A    
C33   H6    S    
N11   C39   S    
C6    I2    S    
C11   H1    S    
C23   C25   A    
C4    C14   A    
C10   N12   S    
C36   H20   S    
C24   C30   A    
C34   H10   S    
C19   O9    S    
C38   H26   S    
C8    C10   A    
C38   H28   S    
C38   H27   S    
C16   H4    S    
C42   H43   S    
