data_mof_unit_22783.cif
_audit_creation_date              2012-10-26T20:03:43-0400
_audit_creation_method            fapswitch 2.2
_symmetry_space_group_name_H-M    P1
_symmetry_Int_Tables_number       1
_space_group_crystal_system       triclinic
_cell_length_a                    12.350989
_cell_length_b                    13.212374
_cell_length_c                    15.858507
_cell_angle_alpha                 77.417777
_cell_angle_beta                  101.307076
_cell_angle_gamma                 116.513795
_cell_volume                      2245.58035576

loop_
_atom_site_label
_atom_site_type_symbol
_atom_type_description
_atom_site_fract_x
_atom_site_fract_y
_atom_site_fract_z
_atom_type_partial_charge
C1    C     C_R   0.854639 0.286537 0.507925 0.539382
C2    C     C_R   0.226771 0.835308 0.479558 -0.047007
C3    C     C_R   0.813927 0.087261 0.572244 -0.137971
C4    C     C_R   0.999518 0.499481 0.659934 0.564904
C5    C     C_R   0.733123 0.981469 0.608981 -0.126965
C6    C     C_R   0.607811 0.948630 0.591410 -0.003418
C7    C     C_R   0.561008 0.016343 0.525218 0.029600
C8    C     C_R   0.644772 0.125609 0.489031 0.019290
C9    C     C_R   0.434736 0.982107 0.494890 -0.009674
C10   C     C_R   0.392731 0.062962 0.443991 0.045875
C11   C     C_R   0.477028 0.168550 0.408528 -0.129292
C12   C     C_3   0.997670 0.497601 0.916876 0.046068
C13   C     C_R   0.600190 0.194971 0.425114 -0.131083
C14   C     C_R   0.350846 0.867585 0.505634 -0.137693
C15   C     C_R   0.184228 0.918616 0.441133 -0.100508
C16   C     C_R   0.144888 0.713367 0.488539 0.553915
C17   C     C_R   0.771001 0.163864 0.518591 -0.004438
C18   C     C_R   0.343591 0.324025 0.639543 -0.063950
C19   C     C_R   0.759566 0.646567 0.384072 0.053923
C20   C     C_R   0.662590 0.677399 0.358831 -0.157685
C21   C     C_R   0.558769 0.620582 0.402324 -0.131612
C22   C     C_R   0.550468 0.531530 0.472330 -0.001602
C23   C     C_3   0.097722 0.591403 0.026219 -0.125256
C24   C     C_R   0.652570 0.503723 0.495597 0.164932
C25   C     C_R   0.446039 0.470355 0.520417 -0.037771
C26   C     C_R   0.444605 0.380123 0.589902 -0.012055
C27   C     C_R   0.545118 0.350933 0.607463 -0.060263
C28   C     C_R   0.000261 0.500175 0.340087 0.545136
C29   C     C_R   0.647063 0.415806 0.564082 -0.098698
C30   C     C_R   0.342546 0.495682 0.501921 0.023318
C31   C     C_R   0.245552 0.354719 0.617413 0.104770
C32   C     C_3   0.003246 0.402783 0.046030 0.011854
C33   C     C_3   0.900080 0.406349 0.974074 -0.148288
C34   C     C_3   0.999788 0.499273 0.083314 -0.018649
C35   C     C_1   0.998655 0.498523 0.749625 0.017299
C36   C     C_1   0.000341 0.499925 0.250479 -0.021489
C37   C     C_3   0.099303 0.493408 0.988642 0.288108
C38   C     C_1   0.534126 0.854627 0.651412 0.196763
C39   C     C_1   0.143110 0.297235 0.667921 0.272209
C40   C     C_1   0.548996 0.251942 0.666786 0.197139
C41   C     C_1   0.338848 0.238760 0.715924 0.196815
C42   C     C_1   0.008634 0.297974 0.097314 0.212158
C43   C     C_1   0.987438 0.697654 0.902846 0.212086
C44   C     C_3   0.292872 0.508670 0.041883 -0.003067
C45   C     C_3   0.993823 0.593437 0.954393 -0.016364
C46   C     C_3   0.392827 0.478272 0.028531 -0.342517
C47   C     C_3   0.220752 0.179519 0.432178 -0.009677
C48   C     C_3   0.095987 0.128695 0.464519 -0.373420
C49   C     C_3   0.896136 0.503683 0.012275 -0.130041
C50   C     C_1   0.998078 0.497818 0.825195 0.009048
C51   C     C_1   0.000168 0.499677 0.174962 -0.049307
C52   C     C_R   0.266544 0.032718 0.422829 0.273702
Cu1   Cu    Cu3+1 0.098270 0.475420 0.519690 0.962116
Cu2   Cu    Cu3+1 0.901730 0.524580 0.480310 0.928551
H1    H     H_    0.819837 0.330984 0.951859 0.137733
H2    H     H_    0.721514 0.393539 0.586238 0.191881
H3    H     H_    0.812845 0.509082 0.023079 0.130459
H4    H     H_    0.177305 0.667334 0.048257 0.110003
H5    H     H_    0.088082 0.894706 0.420700 0.144364
H6    H     H_    0.447860 0.228297 0.363262 0.152441
H7    H     H_    0.256594 0.458461 0.104241 0.133462
H8    H     H_    0.333818 0.601564 0.046429 0.133048
H9    H     H_    0.432669 0.528382 0.967501 0.178113
H10   H     H_    0.465774 0.498222 0.084008 0.095858
H11   H     H_    0.354909 0.385585 0.024456 0.179222
H12   H     H_    0.382365 0.801276 0.527722 0.154090
H13   H     H_    0.237244 0.265491 0.394553 0.161218
H14   H     H_    0.293170 0.193346 0.488602 0.125834
H15   H     H_    0.079692 0.045993 0.507506 0.143140
H16   H     H_    0.091747 0.188330 0.501967 0.123425
H17   H     H_    0.023598 0.114758 0.408586 0.175667
H18   H     H_    0.910116 0.112905 0.592798 0.149903
H19   H     H_    0.769124 0.928677 0.656959 0.144213
H20   H     H_    0.659568 0.270959 0.386815 0.152854
H21   H     H_    0.336192 0.561056 0.449924 0.124535
H22   H     H_    0.839683 0.691012 0.349932 0.132365
H23   H     H_    0.486931 0.648378 0.379557 0.099855
H24   H     H_    0.667850 0.745563 0.305312 0.112387
N1    N     N_R   0.246280 0.438200 0.549540 -0.259029
N2    N     N_R   0.754330 0.561180 0.450980 -0.237672
N3    N     N_1   0.475652 0.779533 0.699780 -0.267002
N4    N     N_1   0.062337 0.250629 0.709446 -0.283841
N5    N     N_1   0.553682 0.172974 0.713458 -0.255560
N6    N     N_1   0.333480 0.170902 0.777019 -0.240506
N7    N     N_1   0.013014 0.215437 0.137828 -0.273036
N8    N     N_1   0.982405 0.779834 0.862132 -0.268966
O1    O     O_R   0.972510 0.318130 0.524770 -0.506240
O2    O     O_3   0.223218 0.111084 0.375806 -0.559287
O3    O     O_R   0.806530 0.359650 0.491510 -0.533219
O4    O     O_R   0.082970 0.479240 0.637550 -0.466562
O5    O     O_R   0.916990 0.520750 0.604290 -0.519079
O6    O     O_R   0.193470 0.640350 0.508490 -0.501910
O7    O     O_R   0.027490 0.681870 0.475230 -0.506896
O8    O     O_R   0.083010 0.479250 0.395710 -0.506456
O9    O     O_R   0.917030 0.520760 0.362450 -0.505496
O10   O     O_3   0.201552 0.483859 0.970599 -0.534513

loop_
_geom_bond_atom_site_label_1
_geom_bond_atom_site_label_2
_ccdc_geom_bond_type
C1    O1    A    
C23   H4    S    
C33   H1    S    
C8    C13   A    
C23   C45   S    
C27   C29   A    
C19   C20   A    
C18   C26   A    
C48   H15   S    
C10   C52   A    
C7    C8    A    
Cu1   Cu2   S    
C16   O7    A    
C28   O9    A    
C19   H22   S    
Cu1   N1    S    
C5    C6    A    
C33   C49   S    
C49   H3    S    
C28   O8    A    
C12   C37   S    
C24   C29   A    
Cu2   O7    S    
C24   N2    A    
C22   C25   A    
C6    C38   S    
C2    C16   S    
C9    C10   A    
Cu2   N2    S    
C4    O5    A    
C4    C35   S    
C21   C22   A    
C40   N5    T    
Cu1   O6    S    
C47   H13   S    
C44   C46   S    
C4    O4    A    
C52   O2    S    
C46   H11   S    
C18   C41   S    
C44   H8    S    
C25   C26   A    
C32   C37   S    
C41   N6    T    
C34   C51   S    
C37   O10   S    
C46   H10   S    
C32   C34   S    
C9    C14   A    
C44   O10   S    
C47   C48   S    
C45   C49   S    
C27   C40   S    
C23   C34   S    
C35   C50   T    
C14   H12   S    
Cu1   O1    S    
C42   N7    T    
C15   C52   A    
C13   H20   S    
C2    C15   A    
C43   C45   S    
Cu2   O9    S    
C36   C51   T    
Cu2   O3    S    
C30   N1    A    
C16   O6    A    
C38   N3    T    
C26   C27   A    
C22   C24   A    
C48   H17   S    
C11   H6    S    
C47   H14   S    
C25   C30   A    
C7    C9    A    
C34   C49   S    
C1    O3    A    
Cu1   O8    S    
C43   N8    T    
C15   H5    S    
C39   N4    T    
C48   H16   S    
C12   C45   S    
C3    C5    A    
C12   C50   S    
C31   N1    A    
C6    C7    A    
C29   H2    S    
C44   H7    S    
C1    C17   S    
C8    C17   A    
C20   H24   S    
C46   H9    S    
C32   C33   S    
C3    H18   S    
Cu2   O5    S    
C23   C37   S    
C47   O2    S    
C30   H21   S    
C11   C13   A    
C31   C39   S    
C3    C17   A    
C5    H19   S    
C19   N2    A    
C2    C14   A    
C10   C11   A    
C20   C21   A    
C28   C36   S    
C21   H23   S    
Cu1   O4    S    
C32   C42   S    
C18   C31   A    
C12   C33   S    
