data_mof_unit_9900.cif
_audit_creation_date              2013-03-05T15:42:25-0500
_audit_creation_method            fapswitch 2.2
_symmetry_space_group_name_H-M    P1
_symmetry_Int_Tables_number       1
_space_group_crystal_system       triclinic
_cell_length_a                    11.059262
_cell_length_b                    10.953847
_cell_length_c                    18.814022
_cell_angle_alpha                 89.766223
_cell_angle_beta                  89.216965
_cell_angle_gamma                 60.316328
_cell_volume                      1979.87594929

loop_
_atom_site_label
_atom_site_type_symbol
_atom_site_description
_atom_site_fract_x
_atom_site_fract_y
_atom_site_fract_z
_atom_type_partial_charge
O1    O     O_R   0.507340 0.255690 0.581430 -0.522714
O2    O     O_R   0.280360 0.527380 0.578910 -0.506222
C1    C     C_R   0.241958 0.643085 0.611548 0.540489
O3    O     O_R   0.260600 0.739610 0.584580 -0.525860
O4    O     O_R   0.532370 0.695050 0.573830 -0.512134
C2    C     C_R   0.653125 0.622215 0.600878 0.537661
O5    O     O_R   0.744850 0.503430 0.576380 -0.526802
O6    O     O_R   0.699080 0.276500 0.571950 -0.508367
C3    C     C_R   0.626539 0.229838 0.603277 0.530949
O7    O     O_R   0.498860 0.256520 0.419860 -0.534852
O8    O     O_R   0.272490 0.528150 0.429140 -0.496955
C4    C     C_R   0.283526 0.625042 0.391901 0.553909
O9    O     O_R   0.252110 0.740440 0.423010 -0.534944
O10   O     O_R   0.524510 0.695820 0.424050 -0.530948
C5    C     C_R   0.642972 0.624398 0.392793 0.521616
O11   O     O_R   0.736370 0.504260 0.414810 -0.522446
O12   O     O_R   0.691220 0.277270 0.422180 -0.501096
C6    C     C_R   0.615332 0.234072 0.393604 0.529508
Cr1   Cr    Cr6+3 0.392940 0.397950 0.502230 1.002982
Cr2   Cr    Cr6+3 0.398400 0.708500 0.501260 0.987735
Cr3   Cr    Cr6+3 0.708640 0.393530 0.496460 1.001202
O13   O     O_3   0.499990 0.499990 0.499980 -0.265109
C7    C     C_3   0.573061 0.810171 0.782502 -0.194703
H1    H     H_    0.581220 0.905382 0.794212 0.173750
H2    H     H_    0.477301 0.822793 0.809172 0.189362
C8    C     C_3   0.563036 0.798748 0.701322 -0.220539
H3    H     H_    0.583893 0.876911 0.673969 0.131190
H4    H     H_    0.843898 0.747392 0.773024 0.125494
C9    C     C_3   0.830177 0.653711 0.767889 -0.225901
C10   C     C_3   0.677636 0.549574 0.800372 -0.253521
C11   C     C_3   0.700883 0.675556 0.811625 0.022980
H5    H     H_    0.771052 0.450610 0.817235 0.136555
H6    H     H_    0.587515 0.562112 0.833082 0.116413
C12   C     C_3   0.669838 0.648558 0.676099 0.037534
C13   C     C_3   0.816135 0.627063 0.688960 -0.245912
C14   C     C_3   0.650233 0.539485 0.721388 -0.219221
H7    H     H_    0.542728 0.557436 0.715183 0.127803
H8    H     H_    0.722794 0.430630 0.702726 0.153385
H9    H     H_    0.923977 0.563278 0.789175 0.166954
H10   H     H_    0.894139 0.517627 0.674525 0.142553
H11   H     H_    0.441375 0.260631 0.702092 0.178322
C15   C     C_R   0.688704 0.166667 0.825715 -0.014591
C16   C     C_R   0.804814 0.140518 0.781822 -0.028743
C17   C     C_R   0.791953 0.140086 0.706780 0.001134
C18   C     C_R   0.544748 0.222687 0.722477 -0.143795
C19   C     C_R   0.558628 0.216615 0.794808 -0.148504
C20   C     C_R   0.932456 0.115835 0.809998 -0.090916
C21   C     C_R   0.048690 0.078398 0.766026 0.202009
C22   C     C_R   0.037218 0.067945 0.692687 -0.131510
C23   C     C_R   0.911517 0.096019 0.663507 -0.143087
C24   C     C_R   0.659420 0.184729 0.677309 -0.002489
H12   H     H_    0.941854 0.132628 0.865533 0.177117
H13   H     H_    0.126135 0.037186 0.657616 0.146807
H14   H     H_    0.910161 0.080614 0.606887 0.143917
H15   H     H_    0.273253 0.806546 0.704385 0.163988
C25   C     C_R   0.201018 0.650328 0.838939 -0.020628
C26   C     C_R   0.197600 0.541538 0.800607 0.015888
C27   C     C_R   0.190886 0.547371 0.725143 0.014718
C28   C     C_R   0.245132 0.736006 0.729650 -0.153433
C29   C     C_R   0.241558 0.734703 0.803243 -0.152479
C30   C     C_R   0.196186 0.429556 0.836127 -0.120738
C31   C     C_R   0.165359 0.339451 0.800183 -0.097671
C32   C     C_R   0.147092 0.350148 0.727027 -0.127224
C33   C     C_R   0.160194 0.452800 0.689492 -0.135349
C34   C     C_R   0.213648 0.648381 0.688991 -0.007458
H16   H     H_    0.217561 0.411000 0.892266 0.139357
H17   H     H_    0.265334 0.802973 0.833095 0.206449
H18   H     H_    0.146628 0.269071 0.831408 0.208351
H19   H     H_    0.117361 0.282948 0.699417 0.153453
H20   H     H_    0.136825 0.461417 0.633652 0.139743
H21   H     H_    0.437612 0.772801 0.302121 0.126427
C35   C     C_R   0.673735 0.653612 0.170699 -0.001667
C36   C     C_R   0.790970 0.558490 0.212784 0.034223
C37   C     C_R   0.788821 0.585870 0.285588 0.020448
C38   C     C_R   0.538361 0.727865 0.277930 -0.145926
C39   C     C_R   0.546707 0.735847 0.204524 -0.147571
C40   C     C_R   0.909781 0.436872 0.185747 -0.089763
C41   C     C_R   0.030632 0.367446 0.225203 -0.152316
C42   C     C_R   0.034861 0.413042 0.293392 -0.122854
C43   C     C_R   0.914925 0.522801 0.323533 -0.074690
C44   C     C_R   0.658509 0.660374 0.319570 -0.007200
H22   H     H_    0.909957 0.390752 0.135017 0.136279
H23   H     H_    0.454201 0.801370 0.174202 0.136243
H24   H     H_    0.120974 0.278967 0.202090 0.105173
H25   H     H_    0.129492 0.360103 0.323786 0.123861
H26   H     H_    0.919270 0.553599 0.377648 0.134075
H27   H     H_    0.724639 0.332070 0.295750 0.156955
C45   C     C_R   0.623706 0.179949 0.172181 -0.005507
C46   C     C_R   0.545724 0.139494 0.217634 0.036078
C47   C     C_R   0.576934 0.122632 0.290123 0.015436
C48   C     C_R   0.685077 0.267294 0.274201 -0.153897
C49   C     C_R   0.681731 0.255583 0.200660 -0.184063
C50   C     C_R   0.435931 0.118571 0.194459 -0.085520
C51   C     C_R   0.373011 0.067059 0.240795 -0.152492
C52   C     C_R   0.418593 0.034295 0.310283 -0.118537
C53   C     C_R   0.526526 0.052172 0.333380 -0.078359
C54   C     C_R   0.641381 0.193021 0.319226 0.005270
H28   H     H_    0.728891 0.300234 0.166195 0.114976
H29   H     H_    0.291160 0.049688 0.221871 0.115375
H30   H     H_    0.371169 0.995888 0.347404 0.099595
H31   H     H_    0.561822 0.021557 0.387327 0.129500
H32   H     H_    0.304702 0.434408 0.296428 0.140205
C55   C     C_R   0.088263 0.707477 0.192904 0.008327
C56   C     C_R   0.072464 0.820223 0.235647 0.015625
C57   C     C_R   0.160634 0.793981 0.292496 0.042373
C58   C     C_R   0.242977 0.542069 0.278642 -0.165351
C59   C     C_R   0.176753 0.568715 0.213789 -0.131874
C60   C     C_R   0.978488 0.960232 0.218404 -0.078153
C61   C     C_R   0.995037 0.070054 0.243050 -0.112006
C62   C     C_R   0.088843 0.045794 0.295351 -0.148256
C63   C     C_R   0.170386 0.910727 0.319865 -0.094531
C64   C     C_R   0.231774 0.653516 0.319627 0.000565
H33   H     H_    0.895503 0.981973 0.184297 0.152772
H34   H     H_    0.195555 0.481192 0.179949 0.143743
H35   H     H_    0.937419 0.173697 0.221387 0.122644
H36   H     H_    0.100322 0.131037 0.316549 0.118570
H37   H     H_    0.243842 0.903713 0.358088 0.141290
O14   O     O_R   0.089570 0.825450 0.930590 -0.481565
O15   O     O_R   0.818700 0.054260 0.929860 -0.511408
C65   C     C_R   0.702802 0.103882 0.896668 0.529959
O16   O     O_R   0.606310 0.077010 0.915520 -0.515550
O17   O     O_R   0.646730 0.806540 0.917560 -0.495700
C66   C     C_R   0.725650 0.689093 0.887648 0.542874
O18   O     O_R   0.837290 0.593240 0.915240 -0.527252
O19   O     O_R   0.065320 0.635310 0.931580 -0.514176
C67   C     C_R   0.123197 0.702292 0.907099 0.547018
O20   O     O_R   0.068470 0.828620 0.091850 -0.512999
O21   O     O_R   0.799150 0.057200 0.079350 -0.532002
C68   C     C_R   0.669981 0.112247 0.102294 0.523215
O22   O     O_R   0.585220 0.080180 0.076770 -0.528379
O23   O     O_R   0.627170 0.809480 0.067050 -0.489045
C69   C     C_R   0.697989 0.686205 0.097528 0.537732
O24   O     O_R   0.816200 0.596410 0.076500 -0.539268
O25   O     O_R   0.045770 0.638240 0.081070 -0.505601
C70   C     C_R   0.039540 0.738839 0.120169 0.540467
Cr4   Cr    Cr6+3 0.937880 0.938320 0.007620 1.029802
Cr5   Cr    Cr6+3 0.625560 0.937220 0.994510 1.035822
Cr6   Cr    Cr6+3 0.938080 0.625010 0.001190 1.001849
O26   O     O_3   0.833840 0.833520 0.001110 -0.267102
H38   H     H_    0.467454 0.241561 0.826867 0.162256
N1    N     N_R   0.179371 0.047707 0.796003 0.009999
O27   O     O_R   0.279869 0.036919 0.755091 -0.444401
O28   O     O_R   0.196462 0.038886 0.864629 -0.407050
H39   H     H_    0.456523 0.824677 0.687412 0.174047
H40   H     H_    0.390268 0.150202 0.142576 0.143653
H41   H     H_    0.836005 0.698858 0.654970 0.112894

loop_
_geom_bond_atom_site_label_1
_geom_bond_atom_site_label_2
_geom_bond_distance
_ccdc_geom_bond_type
O6    C3    1.281777 A    
C10   H5    1.113579 S    
C38   C39   1.388163 A    
C50   C51   1.389530 A    
H15   C28   1.072698 S    
C36   C37   1.400748 A    
C52   C53   1.377817 A    
C3    C24   1.465151 S    
C42   H25   1.082187 S    
C35   C39   1.384519 A    
O21   C68   1.312531 A    
C49   H28   1.082816 S    
C66   O18   1.274925 A    
C5    C44   1.462484 S    
O4    Cr2   1.979511 S    
C58   C64   1.398394 A    
C40   C41   1.389791 A    
C25   C26   1.412088 A    
Cr5   O26   2.006668 S    
O8    Cr1   1.962619 S    
C8    H3    1.113487 S    
C23   H14   1.080678 S    
C40   H22   1.081244 S    
O18   Cr6   2.101553 S    
H4    C9    1.113922 S    
O20   C70   1.286902 A    
H27   C48   1.083472 S    
O21   Cr4   1.962105 S    
C32   H19   1.080400 S    
C10   C11   1.539663 S    
C58   C59   1.385685 A    
C18   C24   1.398034 A    
C5    O11   1.277207 A    
C60   C61   1.385851 A    
C12   C13   1.537735 S    
C15   C19   1.395567 A    
C7    C8    1.542908 S    
O16   Cr5   2.065377 S    
C55   C70   1.453946 S    
C62   C63   1.378136 A    
C43   H26   1.083011 S    
C30   H16   1.081773 S    
C8    C12   1.547037 S    
C45   C49   1.387388 A    
C29   H17   1.070523 S    
C69   O24   1.244410 A    
C7    H1    1.113558 S    
C50   H40   1.079494 S    
C6    C54   1.452313 S    
C33   H20   1.077894 S    
C47   C54   1.400242 A    
C10   H6    1.113233 S    
C45   C46   1.423609 A    
C56   C60   1.401406 A    
C57   C63   1.433750 A    
C28   C29   1.384829 A    
C37   C43   1.414504 A    
C53   H31   1.083223 S    
C1    C34   1.481400 S    
C45   C68   1.467788 S    
Cr4   O26   1.992463 S    
C8    H39   1.101443 S    
C39   H23   1.082860 S    
C56   C57   1.387715 A    
C35   C69   1.474879 S    
C27   C33   1.413628 A    
O1    Cr1   2.080675 S    
O10   Cr2   1.956777 S    
Cr1   O13   1.990368 S    
O1    C3    1.277131 A    
O20   Cr4   2.090269 S    
C48   C49   1.392729 A    
C41   C42   1.388338 A    
C38   C44   1.405939 A    
C18   C19   1.369220 A    
O12   Cr3   1.968958 S    
C2    C12   1.477694 S    
C13   H41   1.113078 S    
C7    C11   1.556577 S    
C60   H33   1.053145 S    
C16   C17   1.421176 A    
C59   H34   1.082424 S    
C31   C32   1.389881 A    
O23   Cr5   1.944530 S    
C27   C34   1.419597 A    
C20   C21   1.398786 A    
O7    Cr1   2.084811 S    
O15   C65   1.287388 A    
C9    H9    1.099154 S    
O12   C6    1.274771 A    
C51   C52   1.388197 A    
C48   C54   1.409118 A    
C47   C53   1.406200 A    
C2    O5    1.272520 A    
C17   C24   1.415982 A    
C21   C22   1.397683 A    
C57   C64   1.432676 A    
Cr2   O13   1.984351 S    
C25   C67   1.483167 S    
O19   C67   1.270619 A    
C42   C43   1.389955 A    
C15   C16   1.421824 A    
C37   C44   1.402106 A    
C1    O3    1.275344 A    
C62   H36   1.081156 S    
C4    C64   1.454245 S    
O14   Cr4   2.082574 S    
C65   O16   1.284952 A    
C19   H38   1.080275 S    
C68   O22   1.253987 A    
C17   C23   1.409213 A    
C14   H7    1.112610 S    
H11   C18   1.080219 S    
O9    Cr2   2.099409 S    
O2    Cr1   1.964885 S    
C52   H30   1.070489 S    
O17   Cr5   1.968637 S    
C35   C36   1.441160 A    
O6    Cr3   1.946014 S    
O25   Cr6   1.979813 S    
O8    C4    1.323664 A    
O11   Cr3   2.065272 S    
C26   C30   1.401247 A    
C20   H12   1.076942 S    
C10   C14   1.535937 S    
O19   Cr6   1.952874 S    
C9    C13   1.539215 S    
O25   C70   1.300073 A    
O15   Cr4   1.967254 S    
C31   H18   1.064664 S    
C63   H37   1.066160 S    
N1    O28   1.303706 A    
C13   H10   1.107691 S    
O17   C66   1.270412 A    
C11   C66   1.481689 S    
C9    C11   1.552262 S    
O5    Cr3   2.092634 S    
N1    O27   1.299607 A    
C28   C34   1.404251 A    
H21   C38   1.065678 S    
C15   C65   1.473528 S    
C26   C27   1.422267 A    
O4    C2    1.280214 A    
C51   H29   1.078118 S    
O7    C6    1.278108 A    
C22   H13   1.082501 S    
C14   H8    1.112225 S    
C21   N1    1.435037 S    
O2    C1    1.276668 A    
C12   C14   1.563231 S    
C7    H2    1.110613 S    
C46   C50   1.417011 A    
C30   C31   1.375762 A    
Cr6   O26   1.984390 S    
C61   H35   1.071383 S    
C32   C33   1.391457 A    
O3    Cr2   2.078613 S    
C41   H24   1.076641 S    
O24   Cr6   2.070012 S    
C25   C29   1.379610 A    
C4    O9    1.275384 A    
C22   C23   1.387295 A    
H32   C58   1.083708 S    
C61   C62   1.366670 A    
C55   C56   1.411736 A    
C36   C40   1.418998 A    
O10   C5    1.281328 A    
C55   C59   1.398157 A    
O14   C67   1.287266 A    
C46   C47   1.400324 A    
Cr3   O13   2.005052 S    
O22   Cr5   2.086967 S    
C16   C20   1.409991 A    
O23   C69   1.313058 A    
