data_mof_unit_54891.cif
_audit_creation_date              2012-12-10T18:53:00-0500
_audit_creation_method            fapswitch 2.2
_symmetry_space_group_name_H-M    P1
_symmetry_Int_Tables_number       1
_space_group_crystal_system       triclinic
_cell_length_a                    9.857591
_cell_length_b                    10.661356
_cell_length_c                    15.806137
_cell_angle_alpha                 91.043075
_cell_angle_beta                  85.365986
_cell_angle_gamma                 88.852396
_cell_volume                      1655.06072951

loop_
_atom_site_label
_atom_site_type_symbol
_atom_type_description
_atom_site_fract_x
_atom_site_fract_y
_atom_site_fract_z
_atom_type_partial_charge
C1    C     C_R   0.499052 0.739853 0.499216 0.893846
C2    C     C_R   0.501180 0.260168 0.499778 0.891065
C3    C     C_R   0.590579 0.933512 0.546321 -0.305496
C4    C     C_R   0.411442 0.066662 0.450843 -0.287418
C5    C     C_R   0.593645 0.062444 0.547287 0.111835
C6    C     C_R   0.408442 0.937637 0.449817 0.099479
C7    C     C_R   0.503222 0.127833 0.499298 -0.043682
C8    C     C_R   0.497822 0.872250 0.498610 -0.039662
C9    C     C_R   0.935712 0.403627 0.461447 0.172907
C10   C     C_R   0.062386 0.594059 0.540791 0.152179
C11   C     C_R   0.080013 0.405279 0.460777 -0.153089
C12   C     C_R   0.919486 0.593508 0.540117 -0.096176
C13   C     C_R   0.481422 0.499311 0.656158 0.843223
C14   C     C_R   0.518710 0.501257 0.343052 0.852547
C15   C     C_R   0.474594 0.474391 0.748082 -0.141421
C16   C     C_R   0.531329 0.478077 0.249109 -0.176261
C17   C     C_R   0.557908 0.540883 0.802562 0.043600
C18   C     C_R   0.417104 0.437411 0.207162 0.021662
C19   C     C_R   0.591929 0.483527 0.879969 0.114309
C20   C     C_R   0.438579 0.346759 0.139883 0.102465
C21   C     C_R   0.545795 0.360296 0.898522 0.101197
C22   C     C_R   0.571139 0.332581 0.098246 0.104525
C23   C     C_R   0.450647 0.306907 0.848612 -0.223538
C24   C     C_R   0.679555 0.395634 0.130373 -0.203585
C25   C     C_R   0.411280 0.363536 0.776198 0.063396
C26   C     C_R   0.661587 0.467498 0.204785 0.085214
C27   C     C_2   0.622924 0.266127 0.945681 -0.245757
C28   C     C_2   0.608341 0.240757 0.029166 -0.232255
H1    H     H_    0.656992 0.154851 0.048679 0.147332
H2    H     H_    0.673025 0.192332 0.905455 0.153850
H3    H     H_    0.417639 0.211960 0.859924 0.155665
H4    H     H_    0.781363 0.384254 0.099304 0.155517
H5    H     H_    0.659263 0.881312 0.583609 0.154780
H6    H     H_    0.343618 0.118972 0.413013 0.146581
H7    H     H_    0.141676 0.330091 0.429737 0.132814
H8    H     H_    0.858202 0.668196 0.572138 0.142174
N1    N     N_R   0.142790 0.500030 0.500020 -0.093003
N2    N     N_R   0.857210 0.499970 0.499980 -0.094932
O1    O     O_R   0.385380 0.683250 0.500010 -0.611260
O2    O     O_R   0.614620 0.316750 0.499990 -0.562952
O3    O     O_R   0.614710 0.683220 0.500000 -0.631787
O4    O     O_R   0.385290 0.316780 0.500000 -0.632585
O5    O     O_R   0.371780 0.500040 0.615800 -0.623416
O6    O     O_R   0.628220 0.499960 0.384200 -0.612222
O7    O     O_R   0.601110 0.500010 0.615800 -0.594104
O8    O     O_R   0.398890 0.499990 0.384200 -0.604595
Zn1   Zn    Zn3+2 0.346870 0.500020 0.500000 0.915806
Zn2   Zn    Zn3+2 0.653130 0.499980 0.500000 0.942084
C29   C     C_3   0.616319 0.667442 0.773911 -0.406116
C30   C     C_3   0.552979 0.780447 0.825903 -0.354538
C31   C     C_3   0.556875 0.900738 0.774934 -0.925099
H9    H     H_    0.662989 0.919135 0.749948 0.257769
H10   H     H_    0.490910 0.892609 0.721472 0.269255
H11   H     H_    0.518824 0.981176 0.816425 0.252356
H12   H     H_    0.445214 0.762267 0.847706 0.226280
H13   H     H_    0.612019 0.797988 0.881401 0.235579
H14   H     H_    0.728791 0.665830 0.774805 0.182082
H15   H     H_    0.599437 0.685145 0.706817 0.210156
C32   C     C_3   0.276699 0.497375 0.230578 -0.373324
C33   C     C_3   0.209661 0.547730 0.152974 -0.366424
C34   C     C_3   0.103244 0.650526 0.178479 -0.893816
H16   H     H_    0.030293 0.617912 0.230160 0.273691
H17   H     H_    0.153497 0.735954 0.200885 0.255891
H18   H     H_    0.046529 0.675111 0.122941 0.254340
H19   H     H_    0.287532 0.586957 0.106510 0.221028
H20   H     H_    0.157979 0.470603 0.121538 0.239362
H21   H     H_    0.208793 0.430401 0.265328 0.181510
H22   H     H_    0.286740 0.579955 0.273158 0.237150
N3    N     N_3   0.776608 0.533449 0.231315 -0.476511
H23   H     H_    0.745166 0.622741 0.254496 0.194708
H24   H     H_    0.820307 0.483849 0.278723 0.195835
N4    N     N_3   0.320001 0.296384 0.726591 -0.455735
H25   H     H_    0.237884 0.355736 0.715549 0.209312
H26   H     H_    0.371386 0.268291 0.668801 0.201059
C35   C     C_3   0.328354 0.252706 0.124970 -0.419444
C36   C     C_3   0.277512 0.257432 0.036009 -0.315794
C37   C     C_3   0.131897 0.211339 0.034858 -0.924052
H27   H     H_    0.125049 0.114285 0.059027 0.264840
H28   H     H_    0.060209 0.273855 0.074644 0.254556
H29   H     H_    0.101328 0.211285 0.968764 0.258771
H30   H     H_    0.282620 0.354037 0.010846 0.226594
H31   H     H_    0.343460 0.193717 0.994022 0.231369
H32   H     H_    0.369552 0.156793 0.135222 0.181773
H33   H     H_    0.241164 0.265430 0.173458 0.203396
C38   C     C_3   0.678842 0.550618 0.940653 -0.396828
C39   C     C_3   0.589221 0.626006 0.008799 -0.331012
C40   C     C_3   0.673984 0.714149 0.059302 -0.889084
H34   H     H_    0.760136 0.662087 0.084418 0.281855
H35   H     H_    0.715470 0.790048 0.018249 0.246582
H36   H     H_    0.609232 0.757214 0.113322 0.249380
H37   H     H_    0.508689 0.681318 0.980664 0.202985
H38   H     H_    0.533455 0.562302 0.052509 0.234145
H39   H     H_    0.744590 0.482456 0.971097 0.203062
H40   H     H_    0.751633 0.613474 0.906572 0.194609
N5    N     N_3   0.685024 0.126801 0.598421 -0.432619
H41   H     H_    0.784122 0.094193 0.580495 0.193180
H42   H     H_    0.661315 0.103822 0.661790 0.178508
N6    N     N_3   0.318953 0.873392 0.397321 -0.457773
H43   H     H_    0.219284 0.904484 0.415143 0.177397
H44   H     H_    0.342733 0.899217 0.334441 0.170295
N7    N     N_3   0.871396 0.298465 0.424976 -0.406098
H45   H     H_    0.943933 0.230233 0.402730 0.137408
H46   H     H_    0.824208 0.329163 0.372240 0.188189
N8    N     N_3   0.119476 0.695553 0.585049 -0.485963
H47   H     H_    0.161707 0.757766 0.540652 0.215756
H48   H     H_    0.193073 0.661224 0.622874 0.227365

loop_
_geom_bond_atom_site_label_1
_geom_bond_atom_site_label_2
_ccdc_geom_bond_type
C40   H34   S    
N7    H45   S    
C1    C8    S    
N5    H41   S    
N8    H48   S    
C14   O8    A    
C37   H27   S    
C10   N1    A    
C6    N6    S    
C22   C24   A    
O1    Zn1   S    
C28   H1    S    
C19   C21   A    
C24   C26   A    
C39   H37   S    
C35   H33   S    
C15   C25   A    
C3    H5    S    
C29   H14   S    
C34   H17   S    
C11   N1    A    
C32   H21   S    
C38   H39   S    
C11   H7    S    
C2    C7    S    
C40   H35   S    
N1    Zn1   S    
N2    Zn2   S    
C21   C27   S    
C33   H20   S    
C32   C33   S    
N7    H46   S    
C9    N7    S    
C22   C28   S    
C27   H2    S    
N3    H23   S    
C4    C7    A    
N8    H47   S    
C5    N5    S    
C37   H28   S    
C16   C26   A    
C4    H6    S    
N3    H24   S    
C31   H9    S    
C36   C37   S    
N4    H26   S    
C3    C8    A    
C17   C29   S    
C5    C7    A    
C39   C40   S    
C6    C8    A    
O7    Zn2   S    
C3    C5    A    
C38   C39   S    
C30   H13   S    
C29   H15   S    
C20   C35   S    
C33   C34   S    
C31   H10   S    
C23   H3    S    
C34   H18   S    
C35   C36   S    
C24   H4    S    
C32   H22   S    
C38   H40   S    
C30   C31   S    
C25   N4    S    
C9    C11   A    
C10   C12   A    
C1    O3    A    
C20   C22   A    
C33   H19   S    
N6    H43   S    
N6    H44   S    
C13   C15   S    
C14   C16   S    
C4    C6    A    
C12   H8    S    
C36   H31   S    
C13   O5    A    
C14   O6    A    
C37   H29   S    
O2    Zn2   S    
O8    Zn1   S    
N4    H25   S    
C19   C38   S    
C36   H30   S    
N5    H42   S    
C15   C17   A    
C30   H12   S    
C31   H11   S    
C21   C23   A    
C39   H38   S    
C13   O7    A    
C35   H32   S    
C2    O4    A    
C10   N8    S    
C9    N2    A    
C17   C19   A    
O3    Zn2   S    
C18   C20   A    
O4    Zn1   S    
C23   C25   A    
C12   N2    A    
C34   H16   S    
C1    O1    A    
C2    O2    A    
C18   C32   S    
C16   C18   A    
C29   C30   S    
C40   H36   S    
C27   C28   D    
C26   N3    S    
O5    Zn1   S    
O6    Zn2   S    
