data_mof_unit_34889.cif
_audit_creation_date              2012-12-10T20:43:19-0500
_audit_creation_method            fapswitch 2.2
_symmetry_space_group_name_H-M    P1
_symmetry_Int_Tables_number       1
_space_group_crystal_system       triclinic
_cell_length_a                    15.809733
_cell_length_b                    10.757442
_cell_length_c                    9.904642
_cell_angle_alpha                 89.877464
_cell_angle_beta                  90.637466
_cell_angle_gamma                 90.622676
_cell_volume                      1684.29794843

loop_
_atom_site_label
_atom_site_type_symbol
_atom_type_description
_atom_site_fract_x
_atom_site_fract_y
_atom_site_fract_z
_atom_type_partial_charge
C1    C     C_R   0.502029 0.260537 0.500332 0.895113
C2    C     C_R   0.043911 0.568067 0.621746 0.091293
C3    C     C_1   0.823768 0.521159 0.501156 -0.037400
C4    C     C_1   0.176467 0.524932 0.499248 -0.076342
C5    C     C_1   0.251011 0.511681 0.497588 -0.199360
C6    C     C_1   0.749031 0.510449 0.501720 -0.144918
C7    C     C_R   0.471352 0.063942 0.611591 0.131958
C8    C     C_R   0.499480 0.128930 0.499324 -0.113310
C9    C     C_R   0.513866 0.067089 0.378373 -0.273319
C10   C     C_R   0.504054 0.939777 0.370759 -0.056981
C11   C     C_R   0.489041 0.872316 0.492250 -0.193793
C12   C     C_R   0.339307 0.500274 0.499194 0.917340
C13   C     C_R   0.466837 0.936809 0.608539 0.063816
C14   C     C_3   0.497290 0.925438 0.751485 -0.243404
C15   C     C_3   0.503782 0.066574 0.753966 -0.487998
C16   C     C_R   0.426371 0.485975 0.068983 0.201367
C17   C     C_R   0.570835 0.529704 0.074579 -0.110378
C18   C     C_R   0.570765 0.533404 0.931348 0.020702
C19   C     C_R   0.426301 0.486510 0.927408 0.260518
C20   C     C_3   0.362337 0.384369 0.917585 -0.578071
C21   C     C_3   0.361583 0.383363 0.071845 -0.311365
C22   C     C_R   0.497739 0.740026 0.498648 0.880933
C23   C     C_R   0.660613 0.500753 0.500653 0.910680
C24   C     C_R   0.955680 0.563083 0.617948 -0.230028
C25   C     C_R   0.912492 0.533593 0.499431 0.115264
C26   C     C_R   0.954794 0.512666 0.380027 -0.216537
C27   C     C_R   0.042681 0.515842 0.378343 0.088703
C28   C     C_R   0.087636 0.539906 0.500337 0.124827
H1    H     H_    0.570105 0.101660 0.761460 0.210727
H2    H     H_    0.627607 0.554148 0.130949 0.166527
H3    H     H_    0.301750 0.415899 0.873248 0.202180
H4    H     H_    0.388005 0.299965 0.869192 0.229650
H5    H     H_    0.301207 0.416229 0.114687 0.159970
H6    H     H_    0.920113 0.580375 0.709028 0.145210
H7    H     H_    0.919263 0.490824 0.288578 0.159312
H8    H     H_    0.532710 0.117927 0.289050 0.234456
H9    H     H_    0.559631 0.879336 0.760776 0.202615
H10   H     H_    0.459304 0.112644 0.823338 0.245505
N1    N     N_R   0.499440 0.499140 0.142800 -0.111986
N2    N     N_R   0.499440 0.499180 0.857150 -0.134502
O1    O     O_R   0.500010 0.316790 0.614690 -0.627407
O2    O     O_R   0.500000 0.316760 0.385350 -0.608324
O3    O     O_R   0.378030 0.499990 0.614640 -0.623913
O4    O     O_R   0.378020 0.499950 0.385300 -0.608497
O5    O     O_R   0.500000 0.683240 0.614650 -0.583083
O6    O     O_R   0.499990 0.683210 0.385310 -0.600153
O7    O     O_R   0.621980 0.500050 0.614700 -0.597324
O8    O     O_R   0.621970 0.500010 0.385360 -0.628696
Zn1   Zn    Zn3+2 0.500010 0.500020 0.653130 1.001553
Zn2   Zn    Zn3+2 0.499990 0.499980 0.346870 1.007903
C29   C     C_3   0.081736 0.600917 0.760301 -0.434791
C30   C     C_3   0.177553 0.619891 0.774274 -0.321586
C31   C     C_3   0.202319 0.661329 0.916795 -0.885153
H11   H     H_    0.175038 0.753663 0.939010 0.267606
H12   H     H_    0.179537 0.592823 0.992371 0.255430
H13   H     H_    0.272269 0.668010 0.925624 0.276245
H14   H     H_    0.208997 0.530370 0.755773 0.232292
H15   H     H_    0.199794 0.691647 0.701577 0.244133
H16   H     H_    0.051640 0.688542 0.793728 0.214010
H17   H     H_    0.062233 0.526920 0.832539 0.203205
C32   C     C_2   0.647382 0.583503 0.868067 0.945199
O9    O     O_2   0.643231 0.676341 0.797192 -0.626582
O10   O     O_R   0.725588 0.529320 0.896174 -0.821641
H18   H     H_    0.773881 0.573062 0.848353 0.333997
C33   C     C_2   0.390382 0.262225 0.131458 1.027064
O11   O     O_2   0.455952 0.214584 0.093967 -0.651266
O12   O     O_R   0.339427 0.202426 0.226502 -0.809992
H19   H     H_    0.361625 0.117942 0.253682 0.341598
C34   C     C_3   0.085441 0.488158 0.245376 -0.439472
C35   C     C_3   0.091643 0.347384 0.222878 -0.317826
C36   C     C_3   0.109018 0.316812 0.075358 -0.844291
H20   H     H_    0.054498 0.344514 0.010753 0.252589
H21   H     H_    0.166551 0.366052 0.040024 0.257200
H22   H     H_    0.118401 0.215212 0.064405 0.266109
H23   H     H_    0.143309 0.309740 0.287565 0.247473
H24   H     H_    0.031498 0.300240 0.251553 0.229174
H25   H     H_    0.048259 0.531259 0.161812 0.206772
H26   H     H_    0.149543 0.531184 0.240889 0.207216
C37   C     C_2   0.511393 0.884662 0.234619 0.982659
O13   O     O_2   0.451892 0.825917 0.185981 -0.587444
O14   O     O_R   0.584400 0.906012 0.159316 -0.796823
H27   H     H_    0.581557 0.864887 0.067346 0.352259
C38   C     C_2   0.429839 0.872577 0.841665 1.008876
O15   O     O_2   0.443750 0.777719 0.905625 -0.628020
O16   O     O_R   0.351524 0.931035 0.851332 -0.802988
H28   H     H_    0.312924 0.889078 0.918895 0.345737

loop_
_geom_bond_atom_site_label_1
_geom_bond_atom_site_label_2
_ccdc_geom_bond_type
C16   C21   S    
C1    C8    S    
C34   H25   S    
C19   C20   S    
C3    C6    T    
O14   H27   S    
C7    C8    A    
O7    Zn1   S    
C31   H11   S    
C26   C27   A    
C12   O3    A    
C21   H5    S    
N2    Zn1   S    
C29   C30   S    
C17   N1    A    
C32   O10   S    
C18   N2    A    
C8    C9    A    
C33   O12   S    
C9    H8    S    
C35   C36   S    
C9    C10   A    
C27   C34   S    
C21   C33   S    
C7    C15   S    
C13   C14   S    
C17   H2    S    
C34   H26   S    
C34   C35   S    
C14   C38   S    
O1    Zn1   S    
C4    C28   S    
C15   H1    S    
C31   H12   S    
C23   O7    A    
O12   H19   S    
C3    C25   S    
C24   C25   A    
C5    C12   S    
C19   N2    A    
C37   O14   S    
O3    Zn1   S    
C25   C26   A    
O16   H28   S    
C24   H6    S    
C37   O13   D    
C15   H10   S    
C1    O2    A    
C38   O15   D    
O5    Zn1   S    
N1    Zn2   S    
C17   C18   A    
C30   H15   S    
O2    Zn2   S    
C1    O1    A    
C38   O16   S    
C10   C11   A    
C35   H24   S    
C29   H16   S    
C35   H23   S    
C30   C31   S    
C36   H21   S    
C20   H4    S    
C31   H13   S    
O4    Zn2   S    
C23   O8    A    
C22   O6    A    
C4    C5    T    
C36   H22   S    
C10   C37   S    
C18   C32   S    
O6    Zn2   S    
C11   C22   S    
C2    C29   S    
C36   H20   S    
C12   O4    A    
C14   H9    S    
C2    C24   A    
C11   C13   A    
C16   C19   A    
C6    C23   S    
O8    Zn2   S    
C32   O9    D    
C30   H14   S    
C16   N1    A    
O10   H18   S    
C26   H7    S    
C7    C13   A    
C22   O5    A    
C20   C21   S    
C33   O11   D    
C27   C28   A    
C14   C15   S    
C2    C28   A    
C29   H17   S    
C20   H3    S    
