data_mof_unit_56507.cif
_audit_creation_date              2012-12-10T18:13:52-0500
_audit_creation_method            fapswitch 2.2
_symmetry_space_group_name_H-M    P1
_symmetry_Int_Tables_number       1
_space_group_crystal_system       triclinic
_cell_length_a                    10.750106
_cell_length_b                    9.392169
_cell_length_c                    23.506352
_cell_angle_alpha                 89.953322
_cell_angle_beta                  89.944142
_cell_angle_gamma                 90.023722
_cell_volume                      2373.35931103

loop_
_atom_site_label
_atom_site_type_symbol
_atom_type_description
_atom_site_fract_x
_atom_site_fract_y
_atom_site_fract_z
_atom_type_partial_charge
C1    C     C_R   0.259709 0.499949 0.499195 0.831804
C2    C     C_R   0.277811 0.444137 0.972615 0.094094
C3    C     C_R   0.281388 0.462635 0.031743 -0.190946
C4    C     C_R   0.393650 0.484082 0.060639 -0.039429
C5    C     C_R   0.506227 0.493762 0.030190 -0.040822
C6    C     C_R   0.621041 0.510580 0.059727 -0.038424
C7    C     C_R   0.733479 0.523562 0.027474 0.087318
C8    C     C_R   0.727533 0.518713 0.967972 -0.203013
C9    C     C_R   0.395626 0.490167 0.120039 0.525652
C10   C     C_R   0.616883 0.512364 0.120129 0.510903
C11   C     C_R   0.493439 0.626932 0.238805 -0.115398
C12   C     C_R   0.500228 0.500018 0.390925 0.889339
C13   C     C_R   0.492410 0.627832 0.297991 -0.170055
C14   C     C_R   0.501809 0.499703 0.328381 -0.037885
C15   C     C_R   0.513325 0.370788 0.298619 -0.188857
C16   C     C_R   0.516103 0.368742 0.239050 0.138275
C17   C     C_R   0.505116 0.498590 0.209122 0.354209
C18   C     C_R   0.495054 0.366792 0.760755 0.192516
C19   C     C_R   0.495251 0.368938 0.701435 -0.240514
C20   C     C_R   0.499315 0.498877 0.671776 -0.077510
C21   C     C_R   0.503055 0.627122 0.702464 -0.220629
C22   C     C_R   0.503076 0.625203 0.761778 -0.119407
C23   C     C_R   0.740049 0.500040 0.499139 0.833059
C24   C     C_R   0.499070 0.495452 0.791072 0.326507
C25   C     C_3   0.070900 0.636682 0.524645 -0.416787
C26   C     C_3   0.070463 0.370579 0.529896 -0.406623
C27   C     C_3   0.929140 0.630165 0.529285 -0.407128
C28   C     C_3   0.928713 0.363928 0.525224 -0.416107
C29   C     C_3   0.074539 0.493131 0.432079 0.230002
C30   C     C_3   0.121856 0.499883 0.495715 0.030183
C31   C     C_3   0.877911 0.500038 0.495676 0.031748
C32   C     C_3   0.925546 0.505271 0.432023 0.229830
C33   C     C_3   0.610403 0.083896 0.531322 -0.187075
C34   C     C_3   0.610612 0.916110 0.531147 -0.187531
C35   C     C_3   0.388458 0.083757 0.530093 -0.187889
C36   C     C_3   0.388649 0.916021 0.530264 -0.187344
C37   C     C_3   0.501957 0.083768 0.442676 -0.185371
C38   C     C_3   0.501467 0.916435 0.442675 -0.184932
C39   C     C_R   0.499749 0.499866 0.609157 0.807216
C40   C     C_R   0.611220 0.501015 0.879712 0.572410
C41   C     C_R   0.389707 0.488294 0.880784 0.553298
C42   C     C_R   0.388277 0.471812 0.940710 -0.039924
C43   C     C_R   0.502983 0.489071 0.970069 -0.035061
C44   C     C_R   0.614609 0.502697 0.939243 -0.031870
Cu1   Cu    Cu3+1 0.499860 0.642410 0.500030 0.925430
Cu2   Cu    Cu3+1 0.499860 0.357590 0.500030 0.925294
H1    H     H_    0.492315 0.268758 0.678692 0.165969
H2    H     H_    0.506259 0.728768 0.680713 0.159595
H3    H     H_    0.506271 0.724536 0.785093 0.163975
H4    H     H_    0.097758 0.732981 0.499982 0.204962
H5    H     H_    0.109750 0.267984 0.514828 0.196618
H6    H     H_    0.111126 0.648856 0.568024 0.173227
H7    H     H_    0.097358 0.380771 0.575461 0.177425
H8    H     H_    0.901957 0.621110 0.574883 0.177183
H9    H     H_    0.888206 0.352741 0.568633 0.173284
H10   H     H_    0.889997 0.732396 0.513725 0.196836
H11   H     H_    0.902033 0.267069 0.500960 0.205529
H12   H     H_    0.612909 0.123406 0.575898 0.143220
H13   H     H_    0.613870 0.875812 0.575622 0.141814
H14   H     H_    0.196050 0.454468 0.055888 0.180055
H15   H     H_    0.697419 0.121365 0.510648 0.157018
H16   H     H_    0.697370 0.879444 0.510104 0.158016
H17   H     H_    0.382983 0.123935 0.574521 0.142473
H18   H     H_    0.383889 0.876267 0.574796 0.142331
H19   H     H_    0.419753 0.122706 0.418544 0.170964
H20   H     H_    0.418675 0.878057 0.418803 0.166567
H21   H     H_    0.585832 0.122367 0.419566 0.165348
H22   H     H_    0.584758 0.877412 0.419309 0.170799
H23   H     H_    0.302763 0.120450 0.508212 0.159521
H24   H     H_    0.302684 0.878728 0.508737 0.157397
H25   H     H_    0.812639 0.530478 0.943641 0.181126
H26   H     H_    0.484982 0.726265 0.215751 0.130886
H27   H     H_    0.483429 0.728723 0.319884 0.158113
H28   H     H_    0.520737 0.271161 0.321648 0.152531
N1    N     N_R   0.500043 0.494739 0.852005 -0.454179
N2    N     N_R   0.505861 0.501578 0.148173 -0.467018
N3    N     N_3   0.500250 0.143650 0.501250 -0.120764
N4    N     N_3   0.500250 0.856350 0.501250 -0.121111
O1    O     O_R   0.317570 0.620260 0.500030 -0.588114
O2    O     O_R   0.317570 0.379740 0.500030 -0.584963
O3    O     O_R   0.499840 0.620290 0.417900 -0.581734
O4    O     O_R   0.499840 0.379710 0.417900 -0.582620
O5    O     O_R   0.682190 0.620260 0.500010 -0.585153
O6    O     O_R   0.682190 0.379740 0.500010 -0.587096
O7    O     O_R   0.499920 0.620230 0.582140 -0.594852
O8    O     O_R   0.499920 0.379770 0.582140 -0.595004
O9    O     O_2   0.718016 0.507459 0.849545 -0.532303
O10   O     O_2   0.283183 0.505295 0.851379 -0.545659
O11   O     O_2   0.288331 0.482123 0.149798 -0.532921
O12   O     O_2   0.721432 0.523577 0.151270 -0.552448
C45   C     C_3   0.157263 0.388230 0.946307 -0.345344
C46   C     C_3   0.099568 0.262720 0.979479 -0.424215
C47   C     C_3   0.989942 0.197860 0.947322 -0.776862
H29   H     H_    0.916980 0.279469 0.939967 0.262358
H30   H     H_    0.021156 0.154371 0.905771 0.268078
H31   H     H_    0.949137 0.109749 0.972761 0.241725
H32   H     H_    0.171073 0.178958 0.986337 0.244706
H33   H     H_    0.064445 0.298035 0.021532 0.218553
H34   H     H_    0.089073 0.476770 0.943373 0.203398
H35   H     H_    0.174235 0.345441 0.903238 0.264777
I1    I     I_    0.168894 0.653612 0.380208 -0.304588
I2    I     I_    0.148527 0.300547 0.391887 -0.322459
I3    I     I_    0.851704 0.696907 0.391007 -0.323901
I4    I     I_    0.831509 0.343685 0.380727 -0.334523
C48   C     C_3   0.861892 0.546377 0.052971 -0.345923
C49   C     C_3   0.880646 0.702022 0.071063 -0.328485
C50   C     C_3   0.006979 0.723063 0.099390 -0.754661
H36   H     H_    0.014590 0.655004 0.137904 0.293860
H37   H     H_    0.083049 0.695779 0.069308 0.243990
H38   H     H_    0.017622 0.836140 0.112259 0.238451
H39   H     H_    0.875390 0.771702 0.032870 0.207365
H40   H     H_    0.806590 0.736480 0.100961 0.253884
H41   H     H_    0.880331 0.470037 0.087937 0.242292
H42   H     H_    0.935010 0.521373 0.021055 0.164791
C51   C     C_3   0.530190 0.227415 0.208832 -0.423104
C52   C     C_3   0.663030 0.169863 0.215058 -0.316557
C53   C     C_3   0.678595 0.028465 0.183894 -0.819260
H43   H     H_    0.614014 0.947578 0.201686 0.252520
H44   H     H_    0.659632 0.042134 0.137764 0.248320
H45   H     H_    0.775447 0.989553 0.189127 0.262529
H46   H     H_    0.730222 0.248062 0.197223 0.263964
H47   H     H_    0.685291 0.153517 0.260772 0.239369
H48   H     H_    0.462816 0.150063 0.227182 0.206544
H49   H     H_    0.507727 0.237008 0.162910 0.208550
I5    I     I_    0.490009 0.167322 0.802905 -0.389542

loop_
_geom_bond_atom_site_label_1
_geom_bond_atom_site_label_2
_ccdc_geom_bond_type
C26   H7    S    
C47   H29   S    
C53   H43   S    
C41   C42   A    
C36   H18   S    
C19   C20   A    
C27   H8    S    
C46   H33   S    
C7    C8    A    
C49   H40   S    
C28   H11   S    
C33   H12   S    
C52   H47   S    
C18   C24   A    
C40   O9    S    
C48   H41   S    
C37   C38   S    
C29   C32   S    
C53   H44   S    
C18   I5    S    
C5    C6    A    
C19   H1    S    
C49   C50   S    
C15   C16   A    
C34   H16   S    
C52   C53   S    
C18   C19   A    
C25   H4    S    
C46   C47   S    
Cu2   O4    S    
C10   N2    A    
C38   H20   S    
C16   C17   A    
C37   H19   S    
C12   O3    A    
C17   N2    S    
C50   H36   S    
C7    C48   S    
Cu1   N4    S    
C9    N2    A    
C45   H35   S    
C21   H2    S    
C3    H14   S    
C5    C43   A    
C47   H30   S    
C13   C14   A    
C50   H37   S    
Cu1   O5    S    
C28   H9    S    
C36   H24   S    
C46   H32   S    
C49   H39   S    
C51   H48   S    
C23   O6    A    
C12   O4    A    
C48   H42   S    
C52   H46   S    
C53   H45   S    
C9    O11   S    
C45   C46   S    
C20   C39   S    
C27   H10   S    
C38   N4    S    
Cu1   Cu2   S    
C27   C31   S    
C35   N3    S    
C35   C36   S    
C23   C31   S    
Cu1   O7    S    
C43   C44   A    
C13   H27   S    
C29   C30   S    
C41   N1    A    
C31   C32   S    
C32   I4    S    
C33   C34   S    
C32   I3    S    
C29   I1    S    
Cu1   O1    S    
C35   H23   S    
C23   O5    A    
C22   H3    S    
Cu2   O6    S    
C12   C14   S    
C26   C30   S    
C47   H31   S    
C34   H13   S    
C1    O1    A    
C50   H38   S    
C22   C24   A    
C42   C43   A    
C39   O7    A    
C3    C4    A    
C16   C51   S    
C25   C30   S    
C41   O10   S    
C11   C17   A    
C8    H25   S    
C51   H49   S    
C11   H26   S    
C28   C31   S    
Cu1   O3    S    
C8    C44   A    
C38   H22   S    
C4    C5    A    
C6    C10   A    
Cu2   N3    S    
C24   N1    S    
C6    C7    A    
C25   C27   S    
C48   C49   S    
C26   C28   S    
C40   N1    A    
C2    C3    A    
C25   H6    S    
C36   N4    S    
C26   H5    S    
C34   N4    S    
Cu2   O2    S    
C11   C13   A    
C33   N3    S    
C37   N3    S    
C2    C42   A    
C37   H21   S    
C1    C30   S    
C29   I2    S    
C2    C45   S    
C40   C44   A    
C15   H28   S    
C20   C21   A    
C10   O12   S    
C33   H15   S    
C1    O2    A    
C14   C15   A    
C35   H17   S    
C39   O8    A    
C45   H34   S    
C4    C9    A    
C21   C22   A    
C51   C52   S    
Cu2   O8    S    
