data_mof_unit_38798.cif
_audit_creation_date              2012-12-11T14:32:57-0500
_audit_creation_method            fapswitch 2.2
_symmetry_space_group_name_H-M    P1
_symmetry_Int_Tables_number       1
_space_group_crystal_system       triclinic
_cell_length_a                    6.934819
_cell_length_b                    13.962909
_cell_length_c                    17.774171
_cell_angle_alpha                 112.835829
_cell_angle_beta                  95.856363
_cell_angle_gamma                 90.175371
_cell_volume                      1576.19278061

loop_
_atom_site_label
_atom_site_type_symbol
_atom_type_description
_atom_site_fract_x
_atom_site_fract_y
_atom_site_fract_z
_atom_type_partial_charge
O1    O     O_R   0.484560 0.544530 0.414330 -0.536468
O2    O     O_R   0.197040 0.638810 0.585080 -0.535901
O3    O     O_R   0.026800 0.455470 0.585670 -0.539661
C1    C     C_R   0.374100 0.680251 0.608909 0.686638
O4    O     O_R   0.155000 0.556150 0.414940 -0.542739
O5    O     O_R   0.984450 0.372220 0.414320 -0.535207
C2    C     C_R   0.317385 0.565054 0.386482 0.758151
O6    O     O_R   0.526900 0.627780 0.585680 -0.542514
O7    O     O_3   0.339170 0.439750 0.499990 -0.371848
V1    V     V_3+5 0.064350 0.511180 0.500000 1.364162
O8    O     O_R   0.654880 0.361190 0.414920 -0.541967
C3    C     C_R   0.816847 0.324462 0.386406 0.765800
O9    O     O_R   0.696930 0.443850 0.585060 -0.540815
C4    C     C_R   0.874142 0.432494 0.612614 0.680759
V2    V     V_3+5 0.564340 0.488820 0.500000 1.363873
O10   O     O_3   0.839390 0.560250 0.500010 -0.378747
C5    C     C_R   0.037573 0.864541 0.822287 -0.056872
C6    C     C_R   0.909443 0.395231 0.680973 -0.045523
C7    C     C_R   0.916044 0.829240 0.680098 -0.123998
C8    C     C_R   0.963727 0.794823 0.742965 0.139853
C9    C     C_R   0.052534 0.971189 0.837455 -0.253124
C10   C     C_R   0.997944 0.008132 0.773905 0.097343
C11   C     C_R   0.932648 0.933877 0.694534 0.089539
C12   C     C_R   0.003826 0.115498 0.785856 0.075735
C13   C     C_R   0.947531 0.145200 0.717922 0.064201
C14   C     C_R   0.888882 0.066788 0.640318 -0.175359
C15   C     C_R   0.881225 0.963471 0.629197 -0.212312
C16   C     C_R   0.062639 0.194065 0.863433 -0.178920
C17   C     C_R   0.068998 0.297623 0.874591 -0.222193
C18   C     C_R   0.016123 0.327150 0.809289 0.124471
C19   C     C_R   0.952257 0.252412 0.729791 0.095451
C20   C     C_R   0.029007 0.432017 0.823476 -0.131223
C21   C     C_R   0.978976 0.464795 0.760369 -0.156686
C22   C     C_R   0.897435 0.288743 0.665873 -0.207354
H1    H     H_    0.832482 0.905824 0.568480 0.117853
H2    H     H_    0.848138 0.237099 0.603800 0.092304
H3    H     H_    0.998672 0.545386 0.776303 0.117250
H4    H     H_    0.117116 0.355506 0.935270 0.119003
H5    H     H_    0.863012 0.773716 0.619059 0.129388
H6    H     H_    0.104132 0.022681 0.899333 0.101676
H7    H     H_    0.846111 0.082293 0.586408 0.122522
H8    H     H_    0.105773 0.178341 0.917239 0.124313
H9    H     H_    0.080862 0.489461 0.883832 0.135838
H10   H     H_    0.114310 0.223895 0.308794 0.155435
H11   H     H_    0.834117 0.034547 0.193659 0.155252
C23   C     C_2   0.135893 0.037543 0.184048 -0.353015
C24   C     C_2   0.972710 0.077829 0.217038 -0.130518
H12   H     H_    0.674203 0.177491 0.294551 0.125130
C25   C     C_2   0.812525 0.220914 0.318390 -0.354527
C26   C     C_2   0.975711 0.180620 0.285406 -0.130622
H13   H     H_    0.274204 0.080980 0.207870 0.125041
C27   C     C_R   0.409572 0.787555 0.675918 -0.059524
C28   C     C_R   0.538226 0.470902 0.826480 -0.059472
C29   C     C_R   0.527187 0.891155 0.818356 -0.131968
C30   C     C_R   0.474652 0.794982 0.755026 -0.134038
C31   C     C_R   0.399975 0.881215 0.661353 -0.214858
C32   C     C_R   0.452990 0.981951 0.726194 0.098519
C33   C     C_R   0.516286 0.983863 0.805126 0.117415
C34   C     C_R   0.447058 0.080621 0.716513 0.066626
C35   C     C_R   0.502716 0.177733 0.785626 0.064746
C36   C     C_R   0.562541 0.172719 0.861958 -0.177887
C37   C     C_R   0.569269 0.078215 0.871196 -0.214775
C38   C     C_R   0.387109 0.085652 0.640196 -0.177802
C39   C     C_R   0.379387 0.180220 0.631064 -0.217271
C40   C     C_R   0.431761 0.274604 0.697202 0.116819
C41   C     C_R   0.496243 0.276431 0.776004 0.096661
C42   C     C_R   0.418493 0.367452 0.684239 -0.124514
C43   C     C_R   0.469957 0.463688 0.747697 -0.138177
C44   C     C_R   0.549641 0.377125 0.840820 -0.207987
H14   H     H_    0.617599 0.079039 0.931413 0.118326
H15   H     H_    0.598027 0.385175 0.902640 0.093061
H16   H     H_    0.454907 0.533424 0.735151 0.092857
H17   H     H_    0.330389 0.179436 0.570918 0.118891
H18   H     H_    0.577779 0.893063 0.878614 0.141879
H19   H     H_    0.486677 0.725393 0.767890 0.093839
H20   H     H_    0.353378 0.873052 0.599357 0.093880
H21   H     H_    0.606223 0.241308 0.916197 0.123577
H22   H     H_    0.343457 0.017054 0.585957 0.123623
H23   H     H_    0.366489 0.365612 0.624135 0.142649
H24   H     H_    0.334152 0.667495 0.194318 0.154799
H25   H     H_    0.615029 0.590754 0.308363 0.154988
C45   C     C_2   0.313632 0.602384 0.318744 -0.351977
C46   C     C_2   0.476398 0.610975 0.285412 -0.130471
H26   H     H_    0.773892 0.635940 0.207272 0.125633
C47   C     C_2   0.635520 0.655888 0.183891 -0.351387
C48   C     C_2   0.472810 0.647281 0.217252 -0.130357
H27   H     H_    0.175308 0.622348 0.295335 0.125733
O11   O     O_R   0.421600 0.630430 0.917010 -0.537771
O12   O     O_R   0.793840 0.702190 0.087630 -0.543385
O13   O     O_R   0.964010 0.886170 0.088190 -0.536530
C49   C     C_R   0.631564 0.693228 0.116148 0.756887
O14   O     O_R   0.751460 0.619510 0.917500 -0.538362
O15   O     O_R   0.921330 0.802900 0.916840 -0.539910
C50   C     C_R   0.574315 0.578103 0.893572 0.678178
O16   O     O_R   0.464290 0.713700 0.088350 -0.537335
O17   O     O_3   0.609200 0.818520 0.002630 -0.374146
V3    V     V_3+5 0.884140 0.747190 0.002530 1.372372
O18   O     O_R   0.251150 0.814630 0.917340 -0.541559
C51   C     C_R   0.073963 0.827419 0.890856 0.703299
O19   O     O_R   0.293530 0.897310 0.087470 -0.543361
C52   C     C_R   0.131586 0.933983 0.116046 0.760107
V4    V     V_3+5 0.384070 0.769710 0.002370 1.372686
O20   O     O_3   0.109180 0.698190 0.002460 -0.373380
C53   C     C_3   0.937450 0.682539 0.723329 -0.752606
H28   H     H_    0.084129 0.653441 0.730061 0.182020
H29   H     H_    0.837474 0.671061 0.764303 0.181597
H30   H     H_    0.871478 0.639632 0.659599 0.240274

loop_
_geom_bond_atom_site_label_1
_geom_bond_atom_site_label_2
_ccdc_geom_bond_type
C33   C37   A    
C13   C19   A    
C31   H20   S    
O17   V4    S    
C4    C6    S    
O2    C1    A    
C7    C8    A    
C1    O6    A    
C28   C44   A    
C53   H29   S    
C3    C25   S    
C47   C49   S    
C47   C48   D    
C14   C15   A    
C1    C27   S    
C16   C17   A    
O5    C3    A    
C18   C19   A    
C32   C34   A    
C41   C44   A    
V2    O10   S    
O18   C51   A    
C5    C8    A    
C31   C32   A    
C37   H14   S    
C23   C24   D    
C44   H15   S    
C28   C43   A    
H24   C48   S    
C29   H18   S    
O8    V2    S    
C36   H21   S    
C40   C42   A    
C17   H4    S    
C39   H17   S    
O1    V2    S    
C11   C15   A    
O12   C49   A    
O7    V1    S    
O15   C51   A    
O13   V3    S    
C27   C30   A    
C30   H19   S    
C35   C41   A    
C34   C35   A    
O9    C4    A    
V4    O20   S    
O19   V4    S    
C53   H28   S    
H25   C46   S    
O14   V3    S    
C24   C26   S    
H11   C24   S    
C23   C52   S    
O11   C50   A    
C42   C43   A    
C42   H23   S    
C12   C13   A    
O4    C2    A    
C15   H1    S    
C13   C14   A    
O18   V4    S    
C23   H13   S    
C21   H3    S    
O12   V3    S    
C35   C36   A    
C7    C11   A    
O13   C52   A    
C17   C18   A    
C5    C51   S    
C43   H16   S    
O17   V3    S    
C46   C48   S    
O14   C50   A    
C19   C22   A    
H26   C47   S    
C6    C22   A    
V3    O20   S    
O3    C4    A    
C7    H5    S    
H12   C25   S    
C45   C46   D    
O6    V2    S    
O9    V2    S    
C10   C12   A    
O2    V1    S    
O15   V3    S    
C29   C33   A    
H10   C26   S    
C29   C30   A    
C28   C50   S    
O1    C2    A    
C12   C16   A    
O5    V1    S    
O11   V4    S    
O8    C3    A    
O16   V4    S    
C8    C53   S    
C34   C38   A    
C20   C21   A    
O7    V2    S    
O4    V1    S    
O3    V1    S    
V1    O10   S    
C39   C40   A    
C18   C20   A    
C32   C33   A    
C9    H6    S    
C16   H8    S    
O19   C52   A    
C20   H9    S    
C22   H2    S    
C40   C41   A    
C36   C37   A    
C6    C21   A    
C5    C9    A    
C49   O16   A    
C38   C39   A    
C27   C31   A    
C2    C45   S    
C25   C26   D    
C10   C11   A    
C9    C10   A    
C53   H30   S    
C45   H27   S    
C14   H7    S    
C38   H22   S    
