data_mof_unit_5120.cif
_audit_creation_date              2012-12-10T17:31:17-0500
_audit_creation_method            fapswitch 2.2
_symmetry_space_group_name_H-M    P1
_symmetry_Int_Tables_number       1
_space_group_crystal_system       triclinic
_cell_length_a                    19.189262
_cell_length_b                    18.549889
_cell_length_c                    12.325292
_cell_angle_alpha                 89.99988
_cell_angle_beta                  128.782382
_cell_angle_gamma                 90.000373
_cell_volume                      3420.03046473

loop_
_atom_site_label
_atom_site_type_symbol
_atom_type_description
_atom_site_fract_x
_atom_site_fract_y
_atom_site_fract_z
_atom_type_partial_charge
C1    C     C_R   0.608319 0.895876 0.648582 0.802803
C2    C     C_R   0.608320 0.104123 0.648583 0.802799
C3    C     C_R   0.108320 0.395877 0.648583 0.802800
C4    C     C_R   0.108320 0.604123 0.648583 0.802798
C5    C     C_R   0.236942 0.781271 0.030918 0.090051
C6    C     C_R   0.236943 0.218729 0.030921 0.090050
C7    C     C_R   0.736942 0.281271 0.030918 0.090050
C8    C     C_R   0.736942 0.718729 0.030921 0.090050
C9    C     C_R   0.673981 0.259639 0.049328 0.150178
C10   C     C_R   0.673999 0.740379 0.049359 0.150181
C11   C     C_R   0.173978 0.759642 0.049324 0.150177
C12   C     C_R   0.173990 0.240369 0.049343 0.150179
C13   C     C_R   0.600520 0.218583 0.948115 -0.213143
C14   C     C_R   0.600542 0.781439 0.948155 -0.213143
C15   C     C_R   0.100517 0.718587 0.948108 -0.213145
C16   C     C_R   0.100531 0.281426 0.948134 -0.213144
C17   C     C_R   0.591666 0.194418 0.833887 -0.165637
C18   C     C_R   0.591676 0.805593 0.833911 -0.165635
C19   C     C_R   0.091665 0.694421 0.833882 -0.165640
C20   C     C_R   0.091671 0.305586 0.833899 -0.165636
C21   C     C_R   0.308591 0.824585 0.133906 -0.250283
C22   C     C_R   0.308586 0.175408 0.133899 -0.250283
C23   C     C_R   0.808590 0.324587 0.133905 -0.250283
C24   C     C_R   0.808579 0.675400 0.133889 -0.250280
C25   C     C_R   0.254832 0.824439 0.267013 -0.147745
C26   C     C_R   0.254848 0.175574 0.267035 -0.147749
C27   C     C_R   0.754834 0.324437 0.267017 -0.147747
C28   C     C_R   0.754861 0.675586 0.267053 -0.147754
C29   C     C_R   0.661345 0.169864 0.721887 -0.144382
C30   C     C_R   0.661340 0.830134 0.721882 -0.144378
C31   C     C_R   0.161347 0.669863 0.721888 -0.144382
C32   C     C_R   0.161343 0.330135 0.721885 -0.144380
C33   C     C_R   0.683267 1.000000 0.285279 -0.287318
C34   C     C_R   0.183267 0.500000 0.285279 -0.287315
C35   C     C_R   0.344079 0.999999 0.632361 0.391589
C36   C     C_R   0.844079 0.500000 0.632360 0.391595
C37   C     C_R   0.313168 0.999997 0.708590 -0.194946
C38   C     C_R   0.813168 0.499998 0.708590 -0.194942
C39   C     C_R   0.385619 0.099599 0.343813 0.819598
C40   C     C_R   0.385619 0.900401 0.343813 0.819597
C41   C     C_R   0.885619 0.599598 0.343813 0.819599
C42   C     C_R   0.885619 0.400401 0.343813 0.819596
C43   C     C_R   0.372171 0.999997 0.852037 -0.216238
C44   C     C_R   0.872170 0.499997 0.852037 -0.216241
C45   C     C_R   0.464627 0.999999 0.923846 0.012475
C46   C     C_R   0.964627 0.499999 0.923846 0.012476
C47   C     C_R   0.495049 0.999999 0.842857 0.251155
C48   C     C_R   0.995049 0.499999 0.842857 0.251159
C49   C     C_R   0.527630 0.999999 0.073250 -0.024389
C50   C     C_R   0.027630 0.499999 0.073250 -0.024387
C51   C     C_R   0.620071 0.999999 0.139621 0.161275
C52   C     C_R   0.120071 0.499999 0.139621 0.161277
C53   C     C_R   0.648939 0.999999 0.060427 -0.264108
C54   C     C_R   0.148939 0.499999 0.060427 -0.264106
C55   C     C_R   0.588066 1.000000 0.915907 -0.170126
C56   C     C_R   0.088066 0.499999 0.915907 -0.170120
C57   C     C_R   0.503048 0.999999 0.160758 0.013166
C58   C     C_R   0.003048 0.499999 0.160758 0.013167
C59   C     C_R   0.654797 0.000000 0.364997 0.075202
C60   C     C_R   0.154797 0.500000 0.364997 0.075204
C61   C     C_R   0.683851 0.280690 0.167420 -0.175762
C62   C     C_R   0.683884 0.719339 0.167467 -0.175757
C63   C     C_R   0.183848 0.780694 0.167414 -0.175762
C64   C     C_R   0.183867 0.219323 0.167442 -0.175760
C65   C     C_R   0.316252 0.847937 0.248913 -0.055185
C66   C     C_R   0.316255 0.152064 0.248916 -0.055185
C67   C     C_R   0.816252 0.347937 0.248913 -0.055184
C68   C     C_R   0.816256 0.652065 0.248917 -0.055183
C69   C     C_R   0.717352 0.195823 0.694079 -0.199966
C70   C     C_R   0.717339 0.804170 0.694063 -0.199970
C71   C     C_R   0.217356 0.695821 0.694083 -0.199966
C72   C     C_R   0.217345 0.304174 0.694071 -0.199967
C73   C     C_R   0.273733 0.753837 0.767741 0.208062
C74   C     C_R   0.273720 0.246156 0.767725 0.208057
C75   C     C_R   0.773728 0.253841 0.767735 0.208058
C76   C     C_R   0.773712 0.746151 0.767715 0.208055
C77   C     C_R   0.281334 0.782850 0.878912 -0.209464
C78   C     C_R   0.281324 0.217146 0.878902 -0.209461
C79   C     C_R   0.781329 0.282853 0.878907 -0.209463
C80   C     C_R   0.781317 0.717141 0.878892 -0.209457
C81   C     C_R   0.727326 0.257141 0.912447 0.050261
C82   C     C_R   0.727320 0.742856 0.912442 0.050261
C83   C     C_R   0.227327 0.757140 0.912449 0.050261
C84   C     C_R   0.227324 0.242858 0.912447 0.050261
C85   C     C_R   0.659540 0.206140 0.822121 0.071523
C86   C     C_R   0.659539 0.793861 0.822125 0.071525
C87   C     C_R   0.159541 0.706140 0.822120 0.071523
C88   C     C_R   0.159541 0.293861 0.822124 0.071524
Cu1   Cu    Cu3+1 0.526340 0.000000 0.421010 0.944713
Cu2   Cu    Cu3+1 0.026340 0.500000 0.421010 0.944713
Cu3   Cu    Cu3+1 0.473640 0.000000 0.578990 0.960066
Cu4   Cu    Cu3+1 0.973640 0.500000 0.578990 0.960067
H1    H     H_    0.260685 0.840705 0.356726 0.198357
H2    H     H_    0.260707 0.159313 0.356755 0.198363
H3    H     H_    0.760688 0.340703 0.356731 0.198358
H4    H     H_    0.760726 0.659330 0.356781 0.198364
H5    H     H_    0.719784 0.999999 0.110865 0.159413
H6    H     H_    0.219784 0.499999 0.110865 0.159412
H7    H     H_    0.754293 1.000000 0.337185 0.148735
H8    H     H_    0.254293 0.500000 0.337185 0.148735
H9    H     H_    0.434381 1.000000 0.119656 0.124077
H10   H     H_    0.934381 0.500000 0.119655 0.124074
H11   H     H_    0.342941 0.999996 0.903361 0.141691
H12   H     H_    0.842941 0.499996 0.903360 0.141690
H13   H     H_    0.242074 0.999997 0.655903 0.174503
H14   H     H_    0.742074 0.499997 0.655902 0.174505
H15   H     H_    0.617563 1.000000 0.866134 0.212352
H16   H     H_    0.117563 0.500000 0.866134 0.212351
H17   H     H_    0.549512 0.205115 0.957370 0.177027
H18   H     H_    0.549545 0.794919 0.957428 0.177020
H19   H     H_    0.049507 0.705121 0.957359 0.177028
H20   H     H_    0.049527 0.294898 0.957396 0.177025
H21   H     H_    0.636068 0.263902 0.181941 0.149821
H22   H     H_    0.636116 0.736144 0.182011 0.149821
H23   H     H_    0.136063 0.763907 0.181932 0.149821
H24   H     H_    0.136091 0.236118 0.181974 0.149822
H25   H     H_    0.359868 0.840406 0.127465 0.155048
H26   H     H_    0.359850 0.159575 0.127439 0.155047
H27   H     H_    0.859865 0.340409 0.127460 0.155048
H28   H     H_    0.859831 0.659554 0.127412 0.155046
H29   H     H_    0.716937 0.171612 0.613721 0.180094
H30   H     H_    0.716921 0.828379 0.613702 0.180093
H31   H     H_    0.216942 0.671609 0.613727 0.180094
H32   H     H_    0.216928 0.328384 0.613710 0.180094
H33   H     H_    0.327416 0.827070 0.933193 0.146667
H34   H     H_    0.327406 0.172926 0.933180 0.146666
H35   H     H_    0.827410 0.327074 0.933185 0.146667
H36   H     H_    0.827398 0.672921 0.933168 0.146664
H37   H     H_    0.528889 0.169077 0.753647 0.208442
H38   H     H_    0.528899 0.830935 0.753678 0.208451
H39   H     H_    0.028888 0.669080 0.753641 0.208440
H40   H     H_    0.028894 0.330928 0.753662 0.208446
H41   H     H_    0.703388 0.000000 0.477389 0.133255
H42   H     H_    0.203389 0.500000 0.477389 0.133254
N1    N     N_R   0.566260 1.000000 0.302220 -0.184814
N2    N     N_R   0.066260 0.500000 0.302220 -0.184814
N3    N     N_R   0.434410 1.000000 0.697680 -0.222117
N4    N     N_R   0.934410 0.500000 0.697680 -0.222118
O1    O     O_R   0.608610 0.924520 0.551740 -0.580105
O2    O     O_R   0.608610 0.075480 0.551740 -0.580102
O3    O     O_R   0.108610 0.424520 0.551740 -0.580104
O4    O     O_R   0.108610 0.575480 0.551740 -0.580102
O5    O     O_R   0.564110 0.924510 0.685150 -0.613299
O6    O     O_R   0.564110 0.075490 0.685150 -0.613292
O7    O     O_R   0.064110 0.424510 0.685150 -0.613295
O8    O     O_R   0.064110 0.575490 0.685150 -0.613292
O9    O     O_R   0.435880 0.075470 0.314850 -0.596474
O10   O     O_R   0.435880 0.924530 0.314850 -0.596473
O11   O     O_R   0.935880 0.575470 0.314850 -0.596475
O12   O     O_R   0.935880 0.424530 0.314850 -0.596474
O13   O     O_R   0.391380 0.075460 0.448260 -0.561094
O14   O     O_R   0.391380 0.924540 0.448260 -0.561093
O15   O     O_R   0.891380 0.575460 0.448260 -0.561095
O16   O     O_R   0.891380 0.424540 0.448260 -0.561095
I1    I     I_    0.238659 0.000002 0.414100 -0.366021
I2    I     I_    0.738659 0.500004 0.414099 -0.366001
I3    I     I_    0.347620 0.797056 0.709606 -0.482189
I4    I     I_    0.347598 0.202933 0.709577 -0.482209
I5    I     I_    0.847610 0.297062 0.709593 -0.482201
I6    I     I_    0.847589 0.702928 0.709567 -0.482220

loop_
_geom_bond_atom_site_label_1
_geom_bond_atom_site_label_2
_ccdc_geom_bond_type
C26   H2    S    
Cu1   O10   S    
C83   C87   A    
C48   N4    A    
C25   H1    S    
C64   H24   S    
C39   O13   A    
C2    O6    A    
C14   C18   A    
C27   H3    S    
C3    O3    A    
C48   C56   A    
Cu2   O12   S    
Cu4   N4    S    
C44   H12   S    
C32   C72   A    
C15   C19   A    
C16   H20   S    
C18   C86   A    
C2    C29   S    
C9    C61   A    
C71   H31   S    
C28   C68   A    
C35   I1    S    
C5    C11   A    
C19   C87   A    
C14   H18   S    
C4    O4    A    
Cu3   O14   S    
C5    C83   A    
C41   O11   A    
C77   C83   A    
C21   H25   S    
C6    C22   A    
C73   I3    S    
C49   C57   A    
C40   O14   A    
C7    C9    A    
C25   C63   A    
C45   C47   A    
C23   C67   A    
C29   C69   A    
C9    C13   A    
C56   H16   S    
C13   H17   S    
C27   C61   A    
C6    C84   A    
Cu3   N3    S    
C11   C15   A    
Cu3   O5    S    
C22   C66   A    
C12   C16   A    
C52   C54   A    
Cu1   O1    S    
C50   C52   A    
C76   C80   A    
Cu4   O15   S    
C58   H10   S    
C45   C49   A    
C30   C86   A    
C60   N2    A    
C29   C85   A    
C1    O1    A    
C4    C31   S    
C63   H23   S    
C31   C71   A    
C33   C59   A    
C72   H32   S    
C34   C60   A    
C10   C62   A    
C20   H40   S    
Cu2   O11   S    
C6    C12   A    
C21   C65   A    
C30   C70   A    
C44   C46   A    
C38   C44   A    
C41   C68   S    
C46   C48   A    
C53   C55   A    
C19   H39   S    
Cu2   Cu4   S    
C54   C56   A    
C24   H28   S    
C31   C87   A    
C74   I4    S    
C17   H37   S    
C26   C66   A    
C15   H19   S    
C25   C65   A    
C72   C74   A    
C10   C14   A    
C79   C81   A    
C40   O10   A    
C80   H36   S    
C49   C51   A    
C82   C86   A    
Cu4   O8    S    
C59   H41   S    
C55   H15   S    
C33   H7    S    
C50   C58   A    
C38   H14   S    
C37   H13   S    
C1    O5    A    
Cu2   N2    S    
C70   H30   S    
C34   H8    S    
C69   H29   S    
C16   C20   A    
Cu1   O2    S    
C4    O8    A    
C47   N3    A    
C43   C45   A    
Cu2   O4    S    
Cu1   N1    S    
C80   C82   A    
C7    C81   A    
C3    O7    A    
C40   C65   S    
C61   H21   S    
C42   C67   S    
C39   C66   S    
C17   C85   A    
C37   C43   A    
C18   H38   S    
Cu1   Cu3   S    
C70   C76   A    
C39   O9    A    
C78   H34   S    
C60   H42   S    
C77   H33   S    
C36   I2    S    
C47   C55   A    
Cu3   O6    S    
C75   I5    S    
Cu1   O9    S    
C12   C64   A    
C22   H26   S    
C76   I6    S    
C41   O15   A    
C42   O16   A    
Cu4   O7    S    
C57   N1    A    
C84   C88   A    
C62   H22   S    
C26   C64   A    
C33   C51   A    
C57   H9    S    
C46   C50   A    
C34   C52   A    
C13   C17   A    
C28   H4    S    
C53   H5    S    
C36   C38   A    
C79   H35   S    
C35   C37   A    
C35   N3    A    
Cu3   O13   S    
C58   N2    A    
C75   C79   A    
C7    C23   A    
C20   C88   A    
C59   N1    A    
C1    C30   S    
C8    C24   A    
C69   C75   A    
C3    C32   S    
C42   O12   A    
C43   H11   S    
Cu2   O3    S    
C27   C67   A    
C24   C68   A    
C78   C84   A    
C8    C82   A    
C5    C21   A    
C8    C10   A    
C74   C78   A    
C71   C73   A    
C73   C77   A    
C54   H6    S    
C23   H27   S    
Cu4   O16   S    
C2    O2    A    
C51   C53   A    
C11   C63   A    
C36   N4    A    
C81   C85   A    
C28   C62   A    
C32   C88   A    
