data_mof_unit_57655.cif
_audit_creation_date              2012-12-10T20:36:41-0500
_audit_creation_method            fapswitch 2.2
_symmetry_space_group_name_H-M    P1
_symmetry_Int_Tables_number       1
_space_group_crystal_system       triclinic
_cell_length_a                    10.500112
_cell_length_b                    10.690843
_cell_length_c                    9.964747
_cell_angle_alpha                 89.059917
_cell_angle_beta                  91.456496
_cell_angle_gamma                 91.361279
_cell_volume                      1117.77639446

loop_
_atom_site_label
_atom_site_type_symbol
_atom_type_description
_atom_site_fract_x
_atom_site_fract_y
_atom_site_fract_z
_atom_type_partial_charge
C1    C     C_R   0.505091 0.260140 0.500673 0.927860
C2    C     C_R   0.538875 0.933778 0.620068 0.138092
C3    C     C_3   0.456366 0.920202 0.739466 -0.479690
C4    C     C_R   0.257812 0.506025 0.498945 0.968116
C5    C     C_3   0.451960 0.061079 0.738571 -0.488628
C6    C     C_R   0.467274 0.393904 0.070319 0.027027
C7    C     C_R   0.548664 0.598969 0.071435 -0.117198
C8    C     C_R   0.550703 0.597958 0.928003 -0.128274
C9    C     C_R   0.459627 0.398682 0.929859 -0.029419
C10   C     C_3   0.337048 0.325769 0.920195 0.312596
C11   C     C_3   0.357272 0.298220 0.070573 0.197867
C12   C     C_3   0.956128 0.624502 0.485608 -0.201789
C13   C     C_R   0.506021 0.739717 0.499173 0.842090
C14   C     C_R   0.742243 0.500609 0.501607 0.873038
C15   C     C_3   0.040568 0.393561 0.519269 0.622770
C16   C     C_3   0.953942 0.434842 0.401334 -0.181305
C17   C     C_3   0.877136 0.503889 0.504672 -0.097643
C18   C     C_3   0.962786 0.460878 0.622811 -0.217436
C19   C     C_3   0.045503 0.580960 0.602024 -0.232626
C20   C     C_3   0.224796 0.521768 0.910913 -0.088640
C21   C     C_3   0.997203 0.182816 0.544898 -0.270655
C22   C     C_3   0.035805 0.555952 0.382917 -0.131759
C23   C     C_3   0.122378 0.511288 0.499053 -0.061830
C24   C     C_R   0.536845 0.061640 0.620948 0.122083
C25   C     C_R   0.527859 0.128863 0.500588 -0.113275
C26   C     C_R   0.545592 0.067591 0.378847 -0.237815
C27   C     C_R   0.546361 0.938055 0.377827 -0.232026
C28   C     C_R   0.530121 0.871324 0.498658 -0.088385
H1    H     H_    0.913149 0.374837 0.320327 0.177763
H2    H     H_    0.086147 0.643057 0.681063 0.143055
H3    H     H_    0.915867 0.719152 0.472422 0.146011
H4    H     H_    0.066144 0.602791 0.288552 0.186180
H5    H     H_    0.548991 0.118179 0.283887 0.171141
H6    H     H_    0.549612 0.891203 0.282447 0.165626
H7    H     H_    0.362365 0.874232 0.716312 0.202002
H8    H     H_    0.264879 0.577227 0.827118 0.148567
H9    H     H_    0.277992 0.548140 0.003668 0.158840
H10   H     H_    0.125027 0.551054 0.921912 0.160386
H11   H     H_    0.263780 0.159347 0.311565 0.343509
H12   H     H_    0.508471 0.881706 0.828698 0.193059
H13   H     H_    0.944819 0.175880 0.446812 0.163133
H14   H     H_    0.930134 0.200229 0.626857 0.144863
H15   H     H_    0.041082 0.091001 0.566135 0.188338
H16   H     H_    0.355495 0.095242 0.710682 0.224423
H17   H     H_    0.500289 0.102921 0.828269 0.188157
H18   H     H_    0.585664 0.680094 0.124327 0.135916
H19   H     H_    0.590829 0.677560 0.874383 0.142055
H20   H     H_    0.343338 0.241300 0.860583 0.078568
H21   H     H_    0.397171 0.203350 0.086375 0.001154
H22   H     H_    0.929227 0.421557 0.719841 0.176010
N1    N     N_R   0.499140 0.499140 0.142800 -0.086100
N2    N     N_R   0.499140 0.499180 0.857150 -0.096323
O1    O     O_R   0.500020 0.316790 0.614690 -0.618334
O2    O     O_2   0.171589 0.437221 0.176514 -0.315794
O3    O     O_2   0.113688 0.226792 0.105190 -0.295373
O4    O     O_3   0.248922 0.249548 0.323764 -0.500535
O5    O     O_3   0.094916 0.275190 0.539915 -0.563055
O6    O     O_R   0.500000 0.316760 0.385350 -0.598752
O7    O     O_R   0.313960 0.499990 0.614650 -0.617185
O8    O     O_R   0.313940 0.499950 0.385310 -0.533508
O9    O     O_R   0.500000 0.683240 0.614650 -0.637741
O10   O     O_R   0.499980 0.683210 0.385310 -0.640286
O11   O     O_R   0.686060 0.500050 0.614690 -0.620812
O12   O     O_R   0.686040 0.500010 0.385350 -0.624544
O13   O     O_3   0.223459 0.391666 0.883918 -0.532840
S1    S     S_3+6 0.217618 0.306574 0.168898 0.055899
Zn1   Zn    Zn3+2 0.500010 0.500020 0.653130 0.955618
Zn2   Zn    Zn3+2 0.499990 0.499980 0.346870 0.997763

loop_
_geom_bond_atom_site_label_1
_geom_bond_atom_site_label_2
_ccdc_geom_bond_type
C12   C17   S    
C15   C18   S    
C19   C23   S    
C1    C25   S    
C13   C28   S    
C21   O5    S    
O2    S1    D    
C3    H7    S    
C6    N1    A    
C20   H10   S    
C9    C10   S    
O9    Zn1   S    
C26   H5    S    
H11   O4    S    
C11   S1    S    
O10   Zn2   S    
C14   O12   A    
C4    O8    A    
C6    C9    A    
C15   C23   S    
C2    C3    S    
C25   C26   A    
C8    H19   S    
C7    N1    A    
C7    C8    A    
C27   H6    S    
C1    O6    A    
C24   C25   A    
C10   H20   S    
C20   H9    S    
C15   O5    S    
C14   C17   S    
O8    Zn2   S    
C26   C27   A    
C9    N2    A    
C22   H4    S    
O4    S1    S    
C14   O11   A    
O12   Zn2   S    
C4    O7    A    
O6    Zn2   S    
C5    H16   S    
C12   C19   S    
C3    H12   S    
C17   C18   S    
O11   Zn1   S    
N1    Zn2   S    
C12   H3    S    
C2    C24   A    
O1    Zn1   S    
C21   H13   S    
C10   C11   S    
C16   C22   S    
C15   C16   S    
C20   H8    S    
C7    H18   S    
C12   C22   S    
C20   O13   S    
C6    C11   S    
O3    S1    D    
C13   O9    A    
C11   H21   S    
C18   H22   S    
C18   C19   S    
C10   O13   S    
C27   C28   A    
C4    C23   S    
C1    O1    A    
C22   C23   S    
C5    C24   S    
C2    C28   A    
O7    Zn1   S    
C16   H1    S    
C21   H15   S    
C19   H2    S    
C5    H17   S    
C13   O10   A    
C21   H14   S    
C8    N2    A    
N2    Zn1   S    
C16   C17   S    
C3    C5    S    
