data_mof_unit_50871.cif
_audit_creation_date              2013-03-05T16:03:25-0500
_audit_creation_method            fapswitch 2.2
_symmetry_space_group_name_H-M    P1
_symmetry_Int_Tables_number       1
_space_group_crystal_system       triclinic
_cell_length_a                    6.967107
_cell_length_b                    18.194162
_cell_length_c                    20.215456
_cell_angle_alpha                 68.539237
_cell_angle_beta                  90.33557
_cell_angle_gamma                 91.017724
_cell_volume                      2384.48392278

loop_
_atom_site_label
_atom_site_type_symbol
_atom_site_description
_atom_site_fract_x
_atom_site_fract_y
_atom_site_fract_z
_atom_type_partial_charge
O1    O     O_R   0.488960 0.443750 0.941980 -0.601784
O2    O     O_R   0.823890 0.406510 0.087590 -0.600154
O3    O     O_R   0.999680 0.556250 0.058020 -0.584771
C1    C     C_R   0.653825 0.383537 0.115054 0.920024
O4    O     O_R   0.818360 0.434410 0.944340 -0.594160
O5    O     O_R   0.994110 0.584350 0.913750 -0.583905
C2    C     C_R   0.649199 0.420242 0.924023 0.969236
O6    O     O_R   0.494530 0.415650 0.086250 -0.612197
O7    O     O_3   0.662590 0.549160 0.990130 -0.238187
V1    V     V_3+5 0.935320 0.490880 0.001830 1.188686
O8    O     O_R   0.324180 0.593490 0.912410 -0.570104
C3    C     C_R   0.155417 0.620407 0.887581 1.007713
O9    O     O_R   0.329720 0.565590 0.055660 -0.559629
C4    C     C_R   0.163012 0.574932 0.079948 1.057606
V2    V     V_3+5 0.435990 0.509120 0.998170 1.214525
O10   O     O_3   0.158850 0.450840 0.009870 -0.302099
C5    C     C_3   0.043621 0.697317 0.317676 0.140933
C6    C     C_3   0.233814 0.673210 0.292477 -0.354085
H1    H     H_    0.316830 0.619070 0.320379 0.148439
C7    C     C_1   0.159212 0.617651 0.128248 -0.195081
C8    C     C_1   0.108531 0.871005 0.381314 -0.159615
C9    C     C_3   0.958443 0.721458 0.241766 -0.058325
C10   C     C_3   0.149617 0.698850 0.216338 0.099570
C11   C     C_3   0.039087 0.806992 0.223901 -0.129154
C12   C     C_3   0.120868 0.782115 0.300049 0.000270
C13   C     C_3   0.230254 0.783909 0.197844 -0.237672
C14   C     C_3   0.307250 0.758645 0.274405 0.372904
C15   C     C_1   0.156541 0.653783 0.168306 0.061432
C16   C     C_1   0.112441 0.830642 0.345014 0.117947
H2    H     H_    0.308680 0.819071 0.148514 0.188157
H3    H     H_    0.961218 0.862339 0.195516 0.177220
H4    H     H_    0.813030 0.705360 0.228184 0.141306
H5    H     H_    0.083149 0.518234 0.697586 0.109558
C17   C     C_R   0.178245 0.793805 0.874279 0.200260
C18   C     C_R   0.181869 0.874461 0.866686 0.357044
C19   C     C_R   0.163372 0.932437 0.799649 -0.278843
C20   C     C_R   0.143713 0.912378 0.740425 -0.228280
C21   C     C_R   0.139889 0.832731 0.745688 0.123823
C22   C     C_R   0.156117 0.770790 0.813850 -0.082157
C23   C     C_R   0.117350 0.815576 0.683280 -0.250209
C24   C     C_R   0.107752 0.736350 0.687701 0.106657
C25   C     C_R   0.122476 0.673495 0.754879 0.117058
C26   C     C_R   0.146573 0.689650 0.818365 -0.271973
C27   C     C_R   0.084314 0.718323 0.625670 -0.150241
C28   C     C_R   0.075160 0.640341 0.629520 -0.092189
C29   C     C_R   0.089864 0.578787 0.694846 -0.114742
C30   C     C_R   0.113636 0.594754 0.756800 -0.173859
H6    H     H_    0.166112 0.994219 0.793030 0.177030
H7    H     H_    0.130149 0.960941 0.690093 0.147043
H8    H     H_    0.072650 0.764246 0.573567 0.083224
H9    H     H_    0.056881 0.627638 0.581524 0.112656
H10   H     H_    0.125484 0.544422 0.806001 0.111072
H11   H     H_    0.898108 0.344452 0.421482 0.111685
C31   C     C_R   0.534753 0.099427 0.243185 0.246824
C32   C     C_R   0.443215 0.095211 0.181489 0.016487
C33   C     C_R   0.377856 0.165732 0.128969 0.142581
C34   C     C_R   0.446698 0.237895 0.129601 -0.275108
C35   C     C_R   0.551073 0.243165 0.187520 0.079406
C36   C     C_R   0.568273 0.174252 0.249653 -0.042129
C37   C     C_R   0.639270 0.315384 0.184154 -0.264178
C38   C     C_R   0.715822 0.321729 0.246960 0.127449
C39   C     C_R   0.702777 0.256259 0.312667 0.114369
C40   C     C_R   0.627748 0.182340 0.314456 -0.278919
C41   C     C_R   0.797794 0.393701 0.246361 -0.188392
C42   C     C_R   0.864332 0.401187 0.308694 -0.116704
C43   C     C_R   0.848070 0.338000 0.373057 -0.104378
C44   C     C_R   0.767591 0.266407 0.375397 -0.169570
H12   H     H_    0.414216 0.289911 0.083976 0.158810
H13   H     H_    0.809202 0.445347 0.198056 0.112905
H14   H     H_    0.927125 0.456642 0.306978 0.103993
H15   H     H_    0.757592 0.219334 0.426922 0.097269
O11   O     O_R   0.770540 0.084530 0.414050 -0.566028
O12   O     O_R   0.445710 0.065660 0.555720 -0.602471
O13   O     O_R   0.270420 0.915650 0.586190 -0.592141
C45   C     C_R   0.614804 0.080246 0.575793 0.969776
O14   O     O_R   0.441140 0.093540 0.412470 -0.597179
O15   O     O_R   0.265820 0.943740 0.441930 -0.556666
C46   C     C_R   0.610932 0.114851 0.383953 1.016100
O16   O     O_R   0.775150 0.056440 0.558310 -0.604961
O17   O     O_3   0.602370 0.950960 0.510050 -0.253347
V3    V     V_3+5 0.329450 0.009140 0.498150 1.201011
O18   O     O_R   0.935790 0.934280 0.444060 -0.550963
C47   C     C_R   0.103402 0.919352 0.424522 1.005970
O19   O     O_R   0.940370 0.906390 0.587310 -0.597461
C48   C     C_R   0.108833 0.881686 0.613215 0.907638
V4    V     V_3+5 0.828810 0.990710 0.501460 1.229859
O20   O     O_3   0.105780 0.049100 0.489960 -0.287413
C49   C     C_3   0.766183 0.310636 0.724636 -0.242325
C50   C     C_3   0.585527 0.300015 0.683142 -0.144362
H16   H     H_    0.543781 0.339749 0.628934 0.119087
H17   H     H_    0.875174 0.358987 0.704916 0.129087
H18   H     H_    0.320456 0.307882 0.753311 0.132108
C51   C     C_1   0.622644 0.126864 0.620352 -0.312237
C52   C     C_1   0.641592 0.374679 0.878441 -0.297502
C53   C     C_3   0.806191 0.221317 0.746239 0.053487
C54   C     C_3   0.627372 0.211044 0.705605 0.174301
C55   C     C_3   0.682908 0.203510 0.812913 0.347986
C56   C     C_3   0.641446 0.291525 0.792260 0.087410
C57   C     C_3   0.503632 0.191675 0.773096 -0.292378
C58   C     C_3   0.461568 0.281403 0.751301 -0.217244
C59   C     C_1   0.624290 0.165290 0.658309 0.016461
C60   C     C_1   0.641178 0.336999 0.839807 0.062514
H19   H     H_    0.401418 0.140994 0.793915 0.166659
N1    N     N_R   0.624056 0.030333 0.292126 0.219992
O21   O     O_R   0.521925 0.968259 0.328275 -0.384651
O22   O     O_R   0.810279 0.027783 0.296850 -0.432854
C61   C     C_3   0.451477 0.019943 0.165016 -0.364677
C62   C     C_3   0.649739 0.013752 0.134046 -0.296105
C63   C     C_3   0.642915 0.963516 0.087776 -0.680186
H20   H     H_    0.589466 0.903002 0.118464 0.268025
H21   H     H_    0.547657 0.990449 0.041220 0.274845
H22   H     H_    0.789503 0.959706 0.068067 0.261118
H23   H     H_    0.705627 0.073432 0.100649 0.215028
H24   H     H_    0.753325 0.987767 0.178095 0.246404
H25   H     H_    0.421686 0.966884 0.213044 0.244222
H26   H     H_    0.338186 0.018048 0.127111 0.183312
C64   C     C_3   0.242608 0.167618 0.069369 -0.435461
C65   C     C_3   0.352948 0.176115 0.001660 -0.248158
C66   C     C_3   0.216800 0.181039 0.941043 -0.755493
H27   H     H_    0.127755 0.126191 0.955347 0.308519
H28   H     H_    0.123023 0.233114 0.928680 0.261043
H29   H     H_    0.301107 0.187518 0.892966 0.232536
H30   H     H_    0.444530 0.230463 0.985264 0.214427
H31   H     H_    0.446390 0.124542 0.011786 0.249064
H32   H     H_    0.145456 0.115025 0.085607 0.196030
H33   H     H_    0.145539 0.218748 0.057900 0.203193
C67   C     C_3   0.944283 0.648152 0.387386 -0.378427
C68   C     C_3   0.875287 0.567972 0.386923 -0.260491
C69   C     C_3   0.770834 0.520097 0.455775 -0.925393
H34   H     H_    0.867820 0.509379 0.502073 0.256787
H35   H     H_    0.642330 0.552022 0.462445 0.274108
H36   H     H_    0.723546 0.462220 0.454041 0.244758
H37   H     H_    0.775970 0.576746 0.341519 0.198039
H38   H     H_    0.000679 0.534076 0.380825 0.192119
H39   H     H_    0.047386 0.639170 0.431720 0.178281
H40   H     H_    0.821210 0.681291 0.395782 0.248039
N2    N     N_R   0.737089 0.149160 0.883294 0.221878
O23   O     O_R   0.759247 0.074741 0.894559 -0.372401
O24   O     O_R   0.761052 0.174274 0.935300 -0.477614
C70   C     C_3   0.997940 0.183916 0.743283 -0.374510
C71   C     C_3   0.078077 0.212237 0.666798 -0.290823
C72   C     C_3   0.142748 0.143314 0.647010 -0.848195
H41   H     H_    0.251567 0.108480 0.685361 0.252554
H42   H     H_    0.019078 0.103874 0.647687 0.261759
H43   H     H_    0.205394 0.166128 0.592755 0.254619
H44   H     H_    0.970522 0.245902 0.626928 0.203780
H45   H     H_    0.201251 0.253269 0.661458 0.200605
H46   H     H_    0.098877 0.199305 0.778814 0.171859
H47   H     H_    0.976203 0.118753 0.765425 0.226696
N3    N     N_R   0.493336 0.779303 0.296138 0.234300
O25   O     O_R   0.529229 0.761383 0.363339 -0.423514
O26   O     O_R   0.610822 0.825812 0.249251 -0.454072
N4    N     N_R   0.188997 0.736813 0.944222 0.210866
O27   O     O_R   0.358173 0.716520 0.971661 -0.359856
O28   O     O_R   0.042040 0.728434 0.985872 -0.399101
N5    N     N_R   0.201234 0.898543 0.926976 0.258564
O29   O     O_R   0.123933 0.963744 0.925493 -0.377905
O30   O     O_R   0.314033 0.861344 0.979671 -0.332628

loop_
_geom_bond_atom_site_label_1
_geom_bond_atom_site_label_2
_geom_bond_distance
_ccdc_geom_bond_type
C23   C48   1.487082 S    
C57   H19   1.109390 S    
C32   C33   1.413908 A    
C64   C65   1.530246 S    
C33   C64   1.516036 S    
O2    C1    1.306575 A    
C53   C54   1.534253 S    
C1    O6    1.295632 A    
C68   C69   1.525717 S    
C70   H46   1.105950 S    
N1    O22   1.300789 A    
C55   C56   1.532276 S    
C28   C29   1.388880 A    
C33   C34   1.394218 A    
N2    O24   1.299492 A    
H18   C58   1.109926 S    
C13   C14   1.540449 S    
C20   C21   1.413427 A    
C9    H4    1.110234 S    
C39   C44   1.416963 A    
C8    C47   1.449703 S    
C9    C11   1.558193 S    
C31   N1    1.434138 S    
C19   C20   1.378904 A    
O14   C46   1.307746 A    
C6    H1    1.110336 S    
C3    C26   1.503550 S    
C63   H21   1.110456 S    
O5    C3    1.303876 A    
C21   C22   1.431062 A    
C17   N4    1.417291 S    
O15   C47   1.301141 A    
C35   C37   1.419551 A    
C42   H14   1.081433 S    
C54   C57   1.542757 S    
C62   C63   1.528423 S    
C17   C18   1.418292 A    
C24   C25   1.424331 A    
C10   C13   1.548734 S    
C55   N2    1.456758 S    
C65   C66   1.522648 S    
O17   V4    1.706723 S    
C31   C32   1.423777 A    
O8    V2    2.012003 S    
O19   C48   1.301209 A    
C18   C19   1.386565 A    
O11   C46   1.295897 A    
C61   C62   1.542710 S    
O1    V2    1.962166 S    
N4    O28   1.300425 A    
C64   H33   1.113206 S    
C65   H30   1.111304 S    
C69   H36   1.110484 S    
C43   C44   1.393776 A    
C49   C53   1.550702 S    
N4    O27   1.300467 A    
C54   C59   1.479554 S    
H5    C29   1.082854 S    
O12   C45   1.298109 A    
C72   H43   1.109863 S    
C68   H37   1.111775 S    
O12   V3    1.975627 S    
N1    O21   1.299798 A    
C55   C57   1.536173 S    
C31   C36   1.429549 A    
C66   H28   1.110773 S    
C12   C16   1.482903 S    
C50   C58   1.556022 S    
C6    C10   1.550660 S    
C4    C7    1.454120 S    
C11   C12   1.545383 S    
C63   H22   1.110894 S    
C51   C59   1.212377 T    
O4    C2    1.298133 A    
V4    O20   2.158245 S    
C5    C67   1.527118 S    
C22   C26   1.445711 A    
C7    C15   1.215921 T    
C35   C36   1.419607 A    
O18   V4    1.965997 S    
C8    C16   1.213996 T    
C17   C22   1.435704 A    
C32   C61   1.525220 S    
C37   C38   1.416661 A    
C62   H23   1.112701 S    
C38   C41   1.415252 A    
C62   H24   1.110788 S    
C39   C40   1.422307 A    
C68   H38   1.111205 S    
C20   H7    1.081154 S    
C57   C58   1.560227 S    
C49   H17   1.110237 S    
O15   V3    1.966963 S    
C66   H27   1.110531 S    
C1    C37   1.492955 S    
C5    C6    1.549117 S    
C53   C70   1.521297 S    
C65   H31   1.107143 S    
C41   H13   1.081505 S    
C67   H40   1.105682 S    
H11   C43   1.082720 S    
C61   H25   1.107734 S    
V3    O20   1.712760 S    
O3    C4    1.302913 A    
C71   H44   1.110999 S    
C23   C24   1.411593 A    
C13   H2    1.108802 S    
C14   N3    1.453261 S    
C56   C58   1.543156 S    
O9    V2    1.966034 S    
C12   C14   1.525400 S    
C24   C27   1.415409 A    
N3    O26   1.296937 A    
C10   C15   1.483921 S    
C25   C26   1.425996 A    
C34   H12   1.078898 S    
C67   C68   1.531110 S    
O2    V1    1.997702 S    
C72   H42   1.108377 S    
C27   C28   1.392553 A    
C45   C51   1.445901 S    
C69   H34   1.110998 S    
O7    V1    2.161856 S    
C66   H29   1.106294 S    
C27   H8    1.082392 S    
C2    C52   1.447739 S    
C29   C30   1.393739 A    
N5    O29   1.301805 A    
O1    C2    1.302453 A    
C6    C14   1.539435 S    
C11   C13   1.554895 S    
C67   H39   1.111486 S    
O17   V3    2.161884 S    
O14   V3    1.997682 S    
O5    V1    1.999593 S    
O11   V4    2.002523 S    
O8    C3    1.306877 A    
C53   C55   1.530862 S    
C30   H10   1.081636 S    
O6    V2    2.007307 S    
N2    O23   1.300135 A    
C36   C40   1.428991 A    
C5    C9    1.550918 S    
N3    O25   1.299680 A    
C5    C12   1.538637 S    
C41   C42   1.392051 A    
C50   C54   1.545608 S    
N5    O30   1.300750 A    
O7    V2    1.710284 S    
C11   H3    1.109313 S    
O4    V1    1.975650 S    
O3    V1    1.967117 S    
C56   C60   1.480000 S    
C71   C72   1.524724 S    
C21   C23   1.413448 A    
C34   C35   1.406625 A    
C45   O16   1.301670 A    
C70   C71   1.544275 S    
C19   H6    1.082135 S    
C44   H15   1.081325 S    
C25   C30   1.419121 A    
C42   C43   1.389235 A    
O13   C48   1.297377 A    
C38   C39   1.425236 A    
C61   H26   1.105731 S    
C71   H45   1.106707 S    
C18   N5    1.443034 S    
C49   C50   1.556529 S    
C52   C60   1.213101 T    
O18   C47   1.299475 A    
C63   H20   1.106390 S    
C72   H41   1.108231 S    
C28   H9    1.082870 S    
C9    C10   1.545855 S    
O19   V4    2.011959 S    
V1    O10   1.712654 S    
O13   V3    1.999640 S    
C50   H16   1.110015 S    
O9    C4    1.301442 A    
C64   H32   1.109623 S    
C70   H47   1.111300 S    
O16   V4    1.979221 S    
C49   C56   1.549306 S    
V2    O10   2.158157 S    
C69   H35   1.111000 S    
C40   C46   1.493242 S    
