data_mof_unit_68492.cif
_audit_creation_date              2012-12-11T15:08:39-0500
_audit_creation_method            fapswitch 2.2
_symmetry_space_group_name_H-M    P1
_symmetry_Int_Tables_number       1
_space_group_crystal_system       triclinic
_cell_length_a                    26.984539
_cell_length_b                    7.214557
_cell_length_c                    11.726772
_cell_angle_alpha                 90.178681
_cell_angle_beta                  103.414976
_cell_angle_gamma                 90.497033
_cell_volume                      2220.58040486

loop_
_atom_site_label
_atom_site_type_symbol
_atom_type_description
_atom_site_fract_x
_atom_site_fract_y
_atom_site_fract_z
_atom_type_partial_charge
O1    O     O_R   0.437360 0.505910 0.042120 -0.541595
O2    O     O_R   0.562640 0.005910 0.957880 -0.542295
O3    O     O_R   0.542480 0.176660 0.157100 -0.518307
O4    O     O_R   0.457520 0.676660 0.842900 -0.519813
C1    C     C_R   0.555933 0.344986 0.199798 0.786258
C2    C     C_R   0.444323 0.843917 0.799930 0.782287
O5    O     O_R   0.436520 0.176250 0.054800 -0.539965
O6    O     O_R   0.563480 0.676250 0.945200 -0.541107
O7    O     O_R   0.455920 0.005040 0.854840 -0.546208
O8    O     O_R   0.544080 0.505040 0.145160 -0.546378
C3    C     C_R   0.418175 0.344194 0.065480 0.706198
C4    C     C_R   0.581354 0.845707 0.933083 0.704290
O9    O     O_3   0.506490 0.338900 0.934520 -0.380224
O10   O     O_3   0.493510 0.838900 0.065480 -0.378252
V1    V     V_3+5 0.498800 0.064400 0.012150 1.451467
V2    V     V_3+5 0.501200 0.564400 0.987850 1.447443
C5    C     C_R   0.674179 0.818471 0.737945 0.150543
C6    C     C_R   0.324143 0.296695 0.257353 0.146525
H1    H     H_    0.592458 0.797600 0.713719 0.156166
H2    H     H_    0.406080 0.291217 0.283571 0.157037
H3    H     H_    0.766458 0.794519 0.699733 0.147334
H4    H     H_    0.230575 0.269194 0.294499 0.147889
C7    C     C_R   0.628854 0.856236 0.892447 -0.113006
C8    C     C_R   0.370166 0.348786 0.104750 -0.113246
C9    C     C_R   0.864471 0.872361 0.201233 -0.043331
C10   C     C_R   0.134760 0.360926 0.795860 -0.039429
C11   C     C_R   0.818178 0.891476 0.232615 -0.187721
C12   C     C_R   0.180971 0.338568 0.764064 -0.188041
C13   C     C_R   0.772593 0.885531 0.150672 0.593350
C14   C     C_R   0.226519 0.336508 0.846374 0.585350
C15   C     C_R   0.770269 0.875806 0.028414 -0.067117
C16   C     C_R   0.228757 0.348880 0.967971 -0.061301
C17   C     C_R   0.817637 0.862708 0.991485 -0.054430
C18   C     C_R   0.181557 0.353925 0.005269 -0.063487
C19   C     C_R   0.722325 0.871113 0.942966 0.045269
C20   C     C_R   0.276550 0.347208 0.053051 0.051951
C21   C     C_R   0.721512 0.838855 0.823037 0.034520
C22   C     C_R   0.276985 0.313768 0.172363 0.027671
C23   C     C_R   0.767589 0.824625 0.789578 -0.057569
C24   C     C_R   0.230585 0.302912 0.205565 -0.041714
C25   C     C_R   0.815172 0.842600 0.867800 0.204318
C26   C     C_R   0.184023 0.344805 0.129069 0.222414
C27   C     C_R   0.674607 0.893882 0.972531 -0.186037
C28   C     C_R   0.324185 0.376345 0.023502 -0.183574
C29   C     C_R   0.628557 0.822751 0.775490 -0.201159
C30   C     C_R   0.370050 0.311240 0.221118 -0.202331
C31   C     C_R   0.864971 0.863888 0.081046 -0.112284
C32   C     C_R   0.134380 0.364002 0.916333 -0.113380
H5    H     H_    0.670517 0.943493 0.055960 0.226519
H6    H     H_    0.327411 0.426207 0.939236 0.219864
H7    H     H_    0.816000 0.903878 0.323152 0.173985
H8    H     H_    0.182951 0.321196 0.673689 0.172114
C33   C     C_R   0.096378 0.864382 0.312162 -0.317837
C34   C     C_R   0.904046 0.359215 0.687464 -0.316014
C35   C     C_R   0.412362 0.847700 0.678196 -0.187884
C36   C     C_R   0.588015 0.350876 0.321447 -0.192819
C37   C     C_R   0.112996 0.859438 0.526775 0.046745
C38   C     C_R   0.886686 0.368902 0.473392 0.048564
C39   C     C_R   0.079194 0.846986 0.414217 0.502804
C40   C     C_R   0.919980 0.394610 0.585323 0.505564
C41   C     C_R   0.148511 0.884447 0.319666 0.556697
C42   C     C_R   0.852916 0.315502 0.680413 0.558263
C43   C     C_R   0.185204 0.856853 0.427380 -0.074224
C44   C     C_R   0.815143 0.335247 0.573403 -0.081704
C45   C     C_R   0.167794 0.852789 0.535802 -0.206481
C46   C     C_R   0.832215 0.350914 0.465098 -0.208866
C47   C     C_R   0.238899 0.840236 0.430366 -0.116844
C48   C     C_R   0.761107 0.338776 0.570282 -0.114537
C49   C     C_R   0.274109 0.847824 0.539467 -0.169001
C50   C     C_R   0.726056 0.341744 0.460330 -0.173611
C51   C     C_R   0.256838 0.807138 0.639505 0.635727
C52   C     C_R   0.743423 0.305164 0.359670 0.654766
C53   C     C_R   0.206195 0.833015 0.645649 0.070342
C54   C     C_R   0.793927 0.340315 0.355004 0.063171
C55   C     C_R   0.259182 0.800286 0.330917 0.596734
C56   C     C_R   0.739939 0.344894 0.671122 0.605046
C57   C     C_R   0.312467 0.791990 0.338469 0.007983
C58   C     C_R   0.686794 0.318300 0.663243 0.000001
C59   C     C_R   0.346735 0.805508 0.451035 -0.088801
C60   C     C_R   0.653088 0.314586 0.549262 -0.081379
C61   C     C_R   0.327472 0.860563 0.547946 0.034049
C62   C     C_R   0.672915 0.362562 0.451681 0.019410
C63   C     C_R   0.398106 0.749166 0.474225 -0.199348
C64   C     C_R   0.601576 0.256205 0.525493 -0.193721
C65   C     C_R   0.429354 0.759531 0.587657 0.569767
C66   C     C_R   0.570568 0.263825 0.411816 0.567298
C67   C     C_R   0.362618 0.919444 0.653218 0.077433
C68   C     C_R   0.638338 0.421059 0.346349 0.087749
H9    H     H_    0.412958 0.675903 0.409680 0.180742
H10   H     H_    0.586093 0.184640 0.589547 0.179879
O11   O     O_R   0.955980 0.206520 0.854760 -0.538172
O12   O     O_R   0.044020 0.706520 0.145240 -0.541441
O13   O     O_R   0.063490 0.536770 0.945200 -0.542180
O14   O     O_R   0.936510 0.036770 0.054800 -0.533752
C69   C     C_R   0.083716 0.369778 0.943821 0.666919
C70   C     C_R   0.916040 0.868918 0.055032 0.671368
O15   O     O_R   0.957530 0.536190 0.842880 -0.541704
O16   O     O_R   0.042470 0.036190 0.157120 -0.546814
O17   O     O_R   0.937350 0.707210 0.042130 -0.545038
O18   O     O_R   0.062650 0.207210 0.957870 -0.537687
C71   C     C_R   0.941477 0.367578 0.803216 0.866309
C72   C     C_R   0.058925 0.869354 0.196311 0.875655
O19   O     O_3   0.993540 0.373870 0.065440 -0.387106
O20   O     O_3   0.006460 0.873870 0.934560 -0.387829
V3    V     V_3+5 0.001200 0.648440 0.987860 1.424519
V4    V     V_3+5 0.998800 0.148440 0.012140 1.430789
C73   C     C_3   0.347846 0.065148 0.733391 -0.269414
C74   C     C_3   0.376579 0.250181 0.732450 -0.657273
H11   H     H_    0.398475 0.253328 0.663072 0.218962
H12   H     H_    0.349561 0.367598 0.717899 0.262668
H13   H     H_    0.402946 0.277323 0.818342 0.229801
H14   H     H_    0.307111 0.097489 0.703053 0.230944
H15   H     H_    0.353754 0.011739 0.824278 0.193413
C75   C     C_3   0.653986 0.566876 0.267109 -0.275858
C76   C     C_3   0.625284 0.750289 0.267035 -0.658918
H16   H     H_    0.602713 0.752921 0.335107 0.217880
H17   H     H_    0.652338 0.869279 0.282688 0.269178
H18   H     H_    0.599542 0.775250 0.180373 0.228483
H19   H     H_    0.694930 0.602148 0.297707 0.212840
H20   H     H_    0.647848 0.512003 0.176232 0.191515
F1    F     F_    0.476799 0.686443 0.608415 -0.694826
F2    F     F_    0.522780 0.190350 0.390839 -0.693261
C77   C     C_3   0.327626 0.792226 0.220425 -0.293472
C78   C     C_3   0.382051 0.846882 0.215888 -0.705354
H21   H     H_    0.398274 0.953002 0.282883 0.241181
H22   H     H_    0.406813 0.723402 0.225236 0.222826
H23   H     H_    0.381786 0.905393 0.128286 0.227064
H24   H     H_    0.318080 0.657171 0.177125 0.214863
H25   H     H_    0.302754 0.894089 0.163531 0.205766
C79   C     C_3   0.670912 0.324438 0.780886 -0.292646
C80   C     C_3   0.615082 0.351283 0.783617 -0.704481
H26   H     H_    0.596244 0.452777 0.717127 0.243169
H27   H     H_    0.594275 0.216961 0.773862 0.222204
H28   H     H_    0.613229 0.405396 0.871223 0.227646
H29   H     H_    0.685151 0.199007 0.831234 0.202093
H30   H     H_    0.691244 0.443023 0.832595 0.222486
C81   C     C_3   0.090699 0.883308 0.634715 -0.347239
C82   C     C_3   0.033365 0.885621 0.622683 -0.632408
H31   H     H_    0.015313 0.997112 0.563288 0.253238
H32   H     H_    0.017368 0.747128 0.593839 0.292647
H33   H     H_    0.025266 0.913210 0.709786 0.196976
H34   H     H_    0.103021 0.769392 0.695326 0.185236
H35   H     H_    0.104332 0.017281 0.674893 0.183159
C83   C     C_3   0.909448 0.346862 0.365925 -0.345238
C84   C     C_3   0.966932 0.340535 0.380826 -0.628669
H36   H     H_    0.982969 0.481619 0.402067 0.279427
H37   H     H_    0.984336 0.237423 0.447361 0.256379
H38   H     H_    0.975815 0.299325 0.296453 0.198009
H39   H     H_    0.895208 0.214479 0.324266 0.184308
H40   H     H_    0.897898 0.461280 0.304958 0.182810
F3    F     F_    0.028390 0.822415 0.400535 -0.746552
F4    F     F_    0.969316 0.445738 0.597600 -0.747240
F5    F     F_    0.162128 0.947694 0.222464 -0.663475
F6    F     F_    0.841920 0.242400 0.777884 -0.652442
F7    F     F_    0.290136 0.723145 0.728747 -0.707478
F8    F     F_    0.709936 0.230881 0.265718 -0.695763
F9    F     F_    0.228452 0.742409 0.228228 -0.665904
F10   F     F_    0.768664 0.401456 0.776306 -0.666291
C85   C     C_3   0.670866 0.761344 0.611186 -0.370735
C86   C     C_3   0.688726 0.903855 0.534167 -0.735778
H41   H     H_    0.716171 0.002465 0.586422 0.224823
H42   H     H_    0.708548 0.833805 0.473123 0.233970
H43   H     H_    0.655534 0.975070 0.480151 0.243925
H44   H     H_    0.696021 0.644730 0.612618 0.184506
H45   H     H_    0.631900 0.712778 0.566917 0.199714
C87   C     C_3   0.326873 0.237149 0.382742 -0.372070
C88   C     C_3   0.311182 0.380174 0.462589 -0.727800
H46   H     H_    0.281605 0.472823 0.414223 0.226050
H47   H     H_    0.294597 0.308858 0.528967 0.235177
H48   H     H_    0.344979 0.458452 0.509993 0.242446
H49   H     H_    0.300164 0.122329 0.378642 0.177965
H50   H     H_    0.365376 0.185624 0.425642 0.200892
C89   C     C_3   0.913831 0.852347 0.295212 -0.273041
C90   C     C_3   0.907289 0.834206 0.421033 -0.743480
H51   H     H_    0.896865 0.968413 0.454852 0.215810
H52   H     H_    0.877968 0.728750 0.426761 0.221935
H53   H     H_    0.943070 0.787359 0.478195 0.278812
H54   H     H_    0.933816 0.727338 0.275043 0.208210
H55   H     H_    0.939839 0.970282 0.290686 0.211538
C91   C     C_3   0.085312 0.381406 0.702274 -0.275286
C92   C     C_3   0.091754 0.399137 0.576341 -0.753178
H56   H     H_    0.122327 0.499424 0.570939 0.224970
H57   H     H_    0.100220 0.263316 0.541066 0.219789
H58   H     H_    0.056653 0.453410 0.520230 0.270100
H59   H     H_    0.059198 0.263741 0.707072 0.199263
H60   H     H_    0.065479 0.506589 0.722467 0.214449
F11   F     F_    0.731614 0.872397 0.197765 -0.723706
F12   F     F_    0.267747 0.308950 0.802513 -0.743029
C93   C     C_3   0.862287 0.826076 0.816966 -0.267653
C94   C     C_3   0.855267 0.822237 0.683219 -0.783591
H61   H     H_    0.835391 0.694012 0.644865 0.220925
H62   H     H_    0.833645 0.943937 0.641790 0.244506
H63   H     H_    0.893290 0.824850 0.662025 0.226288
H64   H     H_    0.887690 0.946233 0.846128 0.222638
H65   H     H_    0.880794 0.695128 0.849669 0.197291
C95   C     C_3   0.138564 0.384064 0.182605 -0.266961
C96   C     C_3   0.148373 0.400681 0.316498 -0.780941
H66   H     H_    0.157154 0.263947 0.358862 0.228458
H67   H     H_    0.180090 0.498690 0.351215 0.244879
H68   H     H_    0.113546 0.452907 0.340469 0.218384
H69   H     H_    0.122794 0.519149 0.148206 0.203900
H70   H     H_    0.109950 0.272668 0.157421 0.210955
C97   C     C_3   0.196140 0.836576 0.770265 -0.337787
C98   C     C_3   0.241068 0.855884 0.877959 -0.611009
H71   H     H_    0.260810 0.722090 0.900256 0.263479
H72   H     H_    0.268309 0.964913 0.864853 0.251754
H73   H     H_    0.226484 0.896187 0.955666 0.214604
H74   H     H_    0.174228 0.960630 0.779391 0.175745
H75   H     H_    0.176032 0.708575 0.784930 0.189679
C99   C     C_3   0.803930 0.383167 0.233330 -0.357224
C100  C     C_3   0.759131 0.403986 0.126337 -0.612310
H76   H     H_    0.740768 0.268406 0.097135 0.267742
H77   H     H_    0.731055 0.504364 0.143711 0.239786
H78   H     H_    0.773735 0.458299 0.051664 0.217767
H79   H     H_    0.822531 0.520563 0.240361 0.183562
H80   H     H_    0.827441 0.274990 0.206284 0.188971

loop_
_geom_bond_atom_site_label_1
_geom_bond_atom_site_label_2
_ccdc_geom_bond_type
C58   C79   S    
C14   C16   A    
C97   C98   S    
C43   C45   A    
C87   H50   S    
C94   H61   S    
C52   F8    S    
C32   C69   S    
C11   C13   A    
C52   C54   A    
C73   H14   S    
C1    C36   S    
C79   H29   S    
O1    C3    A    
C2    C35   S    
C60   C64   A    
C80   H28   S    
O2    C4    A    
C2    O7    A    
O20   V4    S    
C84   H36   S    
C33   C39   A    
C45   C53   A    
C77   C78   S    
C23   C25   A    
C34   C40   A    
C92   H56   S    
O5    C3    A    
C53   C97   S    
C4    C7    S    
C56   F10   S    
C5    C85   S    
C54   C99   S    
C7    C29   A    
C44   C48   A    
C19   C21   A    
C64   C66   A    
C75   H20   S    
C58   C60   A    
C36   C68   A    
C89   H55   S    
C38   C40   A    
C99   H79   S    
C46   C54   A    
C70   O17   A    
C3    C8    S    
C7    C27   A    
C74   H11   S    
C49   C51   A    
C40   F4    S    
C96   H67   S    
C90   H51   S    
C73   H15   S    
C83   H40   S    
C34   C71   S    
C94   H63   S    
O13   V3    S    
C33   C41   A    
C93   H64   S    
C38   C46   A    
C85   C86   S    
C76   H17   S    
C18   C26   A    
C66   F2    S    
C42   C44   A    
C31   C70   S    
C15   C17   A    
C65   F1    S    
C10   C12   A    
C19   C27   A    
C9    C31   A    
C75   H19   S    
C62   C68   A    
O12   C72   A    
O15   V3    S    
C55   F9    S    
C24   C26   A    
C81   H35   S    
H4    C24   S    
C87   H49   S    
O13   C69   A    
C77   H25   S    
C68   C75   S    
O11   V4    S    
C96   H66   S    
C64   H10   S    
O11   C71   A    
C63   H9    S    
C6    C30   A    
O20   V3    S    
C84   H37   S    
C11   H7    S    
C75   C76   S    
C88   H48   S    
C92   H57   S    
C6    C87   S    
O17   V3    S    
C5    C29   A    
C43   C47   A    
C81   H34   S    
C14   F12   S    
C86   H43   S    
C49   C61   A    
C88   H47   S    
C82   H31   S    
C37   C45   A    
C88   H46   S    
C51   C53   A    
C69   O18   A    
C27   H5    S    
C34   C42   A    
O3    C1    A    
C89   C90   S    
C85   H45   S    
C47   C49   A    
C16   C18   A    
C35   C65   A    
C96   H68   S    
C26   C95   S    
C83   H39   S    
C57   C77   S    
C9    C89   S    
C39   F3    S    
C93   H65   S    
O15   C71   A    
C36   C66   A    
C100  H76   S    
H3    C23   S    
C98   H73   S    
C33   C72   S    
O6    C4    A    
C76   H18   S    
C51   F7    S    
C41   C43   A    
C57   C59   A    
C37   C81   S    
O19   V3    S    
O1    V2    S    
C5    C21   A    
C67   C73   S    
O14   C70   A    
O2    V1    S    
C55   C57   A    
C90   H53   S    
C61   C67   A    
C91   H60   S    
C78   H23   S    
C60   C62   A    
C63   C65   A    
C98   H72   S    
C10   C91   S    
C87   C88   S    
C8    C28   A    
C15   C19   A    
C20   C28   A    
O4    C2    A    
C47   C55   A    
O4    V2    S    
C73   C74   S    
C95   H70   S    
C80   H26   S    
C16   C20   A    
C84   H38   S    
O3    V1    S    
C91   C92   S    
C78   H22   S    
C97   H74   S    
C92   H58   S    
C28   H6    S    
C99   H80   S    
O14   V4    S    
C94   H62   S    
C100  H77   S    
O10   V1    S    
O18   V4    S    
C86   H42   S    
C79   H30   S    
C56   C58   A    
C95   C96   S    
C80   H27   S    
C82   H33   S    
C41   F5    S    
C50   C52   A    
H1    C29   S    
C82   H32   S    
C10   C32   A    
C48   C56   A    
C13   F11   S    
C81   C82   S    
C59   C61   A    
O16   V4    S    
C74   H13   S    
C25   C93   S    
C83   C84   S    
C8    C30   A    
C86   H41   S    
C12   C14   A    
C79   C80   S    
C6    C22   A    
C17   C25   A    
C1    O8    A    
C13   C15   A    
O16   C72   A    
C20   C22   A    
C22   C24   A    
C12   H8    S    
C77   H24   S    
O8    V2    S    
C89   H54   S    
C17   C31   A    
O5    V1    S    
C74   H12   S    
O19   V4    S    
C35   C67   A    
C93   C94   S    
C50   C62   A    
C90   H52   S    
C37   C39   A    
C91   H59   S    
C59   C63   A    
C38   C83   S    
O12   V3    S    
C21   C23   A    
C100  H78   S    
C18   C32   A    
C98   H71   S    
O6    V2    S    
C99   C100  S    
O9    V2    S    
C48   C50   A    
C85   H44   S    
C97   H75   S    
C42   F6    S    
C95   H69   S    
H2    C30   S    
C76   H16   S    
O7    V1    S    
C44   C46   A    
C78   H21   S    
C9    C11   A    
