data_mof_unit_10865.cif
_audit_creation_date              2012-10-26T18:32:00-0400
_audit_creation_method            fapswitch 2.2
_symmetry_space_group_name_H-M    P1
_symmetry_Int_Tables_number       1
_space_group_crystal_system       triclinic
_cell_length_a                    12.365983
_cell_length_b                    13.323399
_cell_length_c                    14.308762
_cell_angle_alpha                 93.265677
_cell_angle_beta                  108.168548
_cell_angle_gamma                 117.488684
_cell_volume                      1929.78510799

loop_
_atom_site_label
_atom_site_type_symbol
_atom_type_description
_atom_site_fract_x
_atom_site_fract_y
_atom_site_fract_z
_atom_type_partial_charge
C1    C     C_R   0.652260 0.714607 0.508899 0.561880
C2    C     C_R   0.190811 0.459892 0.997168 -0.128744
C3    C     C_R   0.177119 0.522922 0.071391 -0.012986
C4    C     C_R   0.621184 0.519860 0.687046 0.574465
C5    C     C_R   0.276742 0.416274 0.027473 -0.101799
C6    C     C_R   0.341944 0.427479 0.129507 0.318368
C7    C     C_R   0.232988 0.523221 0.174232 0.401554
C8    C     C_R   0.239989 0.967447 0.497364 0.308857
C9    C     C_R   0.284884 0.167768 0.511630 -0.035986
C10   C     C_R   0.728634 0.924834 0.564920 0.333031
C11   C     C_R   0.835898 0.037049 0.613182 0.298322
C12   C     C_R   0.909584 0.570387 0.913347 -0.051767
C13   C     C_R   0.960259 0.065671 0.613996 0.234078
C14   C     C_R   0.972852 0.988605 0.550527 -0.072959
C15   C     C_R   0.864323 0.874346 0.502673 -0.131237
C16   C     C_R   0.354757 0.287545 0.498169 0.555468
C17   C     C_R   0.089995 0.021268 0.532447 -0.069451
C18   C     C_R   0.113886 0.934878 0.497986 0.006284
C19   C     C_R   0.007695 0.820848 0.457086 0.386699
C20   C     C_R   0.881024 0.798748 0.441097 0.309559
C21   C     C_R   0.177368 0.136841 0.538660 -0.179095
C22   C     C_R   0.327409 0.086255 0.505090 0.267591
C23   C     C_R   0.925344 0.663188 0.980705 -0.095513
C24   C     C_R   0.745880 0.839284 0.520131 -0.051692
C25   C     C_R   0.262555 0.702073 0.651677 0.280425
C26   C     C_R   0.656002 0.357322 0.352243 0.499465
C27   C     C_R   0.736527 0.351739 0.304972 0.413085
C28   C     C_R   0.381280 0.483611 0.312748 0.583529
C29   C     C_R   0.873144 0.418326 0.353858 0.390101
C30   C     C_R   0.930624 0.482862 0.455142 -0.048601
C31   C     C_R   0.845200 0.499706 0.493606 0.038453
C32   C     C_R   0.069920 0.539007 0.516245 -0.068735
C33   C     C_R   0.124617 0.634478 0.598969 -0.014500
C34   C     C_R   0.008528 0.538490 0.938415 -0.034168
C35   C     C_R   0.040077 0.660288 0.628072 0.419731
C36   C     C_R   0.904065 0.591119 0.579237 0.046601
C37   C     C_R   0.156880 0.501837 0.501910 0.385906
C38   C     C_R   0.343495 0.666570 0.628337 0.483768
C39   C     C_R   0.707964 0.554422 0.794669 -0.048571
C40   C     C_R   0.317748 0.477760 0.204181 -0.001815
C41   C     C_R   0.832914 0.701025 0.952991 0.385276
C42   C     C_R   0.722748 0.644625 0.862379 0.223686
C43   C     C_R   0.793742 0.511002 0.824671 0.387802
C44   C     C_3   0.990701 0.766978 0.206928 -0.004334
C45   C     C_R   0.100200 0.576520 0.039732 -0.037054
C46   C     C_3   0.485233 0.110785 0.441299 0.002132
C47   C     C_3   0.281659 0.840902 0.417753 0.016465
C48   C     C_3   0.141370 0.140332 0.760814 -0.061732
C49   C     C_3   0.816507 0.105606 0.753192 0.032169
C50   C     C_3   0.715455 0.746061 0.287093 -0.099394
C51   C     C_3   0.374312 0.811815 0.815083 -0.016686
C52   C     C_3   0.032097 0.302628 0.465588 -0.051552
C53   C     C_3   0.179205 0.444429 0.756567 -0.042248
C54   C     C_3   0.541884 0.621929 0.886108 -0.052660
C55   C     C_R   0.118820 0.672681 0.103470 0.442511
C56   C     C_R   0.032365 0.715352 0.074788 0.317771
C57   C     C_R   0.026164 0.478116 0.864959 0.456971
C58   C     C_R   0.119697 0.442178 0.893850 0.276023
Cu1   Cu    Cu3+1 0.416420 0.526630 0.522910 1.152908
Cu2   Cu    Cu3+1 0.583580 0.473370 0.477090 1.140408
F1    F     F_    0.020989 0.734872 0.417059 -0.667187
F2    F     F_    0.849016 0.794532 0.011741 -0.582648
F3    F     F_    0.754966 0.404396 0.771471 -0.539156
F4    F     F_    0.229152 0.734787 0.188988 -0.603879
F5    F     F_    0.964330 0.464962 0.764662 -0.585528
F6    F     F_    0.609814 0.898382 0.567600 -0.573185
F7    F     F_    0.476229 0.733946 0.674841 -0.538396
F8    F     F_    0.194990 0.557093 0.243636 -0.529165
F9    F     F_    0.087574 0.749819 0.707610 -0.614563
F10   F     F_    0.523434 0.293116 0.302692 -0.536836
F11   F     F_    0.947270 0.424711 0.299259 -0.505394
F12   F     F_    0.681840 0.285112 0.209590 -0.529360
F13   F     F_    0.424173 0.383918 0.153963 -0.539616
H1    H     H_    0.293719 0.372570 0.972220 0.183650
H2    H     H_    0.258454 0.881704 0.354212 0.116086
H3    H     H_    0.209227 0.746237 0.394621 0.232710
H4    H     H_    0.378049 0.847575 0.430562 0.204237
H5    H     H_    0.191846 0.100236 0.735510 0.157179
H6    H     H_    0.079021 0.081951 0.798276 0.134007
H7    H     H_    0.219265 0.222083 0.818433 0.167702
H8    H     H_    0.911658 0.117487 0.805321 0.123014
H9    H     H_    0.733550 0.019167 0.748067 0.192926
H10   H     H_    0.801758 0.173102 0.786868 0.200655
H11   H     H_    0.787751 0.816883 0.263935 0.113699
H12   H     H_    0.159342 0.203731 0.559498 0.183713
H13   H     H_    0.656411 0.775831 0.312166 0.117272
H14   H     H_    0.646294 0.672893 0.219137 0.162913
H15   H     H_    0.306995 0.735570 0.836856 0.095656
H16   H     H_    0.393061 0.890902 0.863187 0.180884
H17   H     H_    0.471088 0.817625 0.831823 0.172761
H18   H     H_    0.023738 0.224237 0.425385 0.150935
H19   H     H_    0.929780 0.283900 0.444841 0.107835
H20   H     H_    0.074816 0.313343 0.548574 0.101348
H21   H     H_    0.237859 0.414603 0.731158 0.133605
H22   H     H_    0.244301 0.539009 0.792582 0.044162
H23   H     H_    0.848855 0.616904 0.608231 0.179263
H24   H     H_    0.095519 0.430262 0.688466 0.184106
H25   H     H_    0.486006 0.526097 0.853954 0.100917
H26   H     H_    0.469892 0.651887 0.871310 0.112102
H27   H     H_    0.592240 0.641975 0.969877 0.142276
H28   H     H_    0.023580 0.711275 0.247579 0.199001
H29   H     H_    0.881681 0.716383 0.166701 0.159989
H30   H     H_    0.015340 0.842437 0.263418 0.144738
H31   H     H_    0.578989 0.188408 0.449526 0.169778
H32   H     H_    0.407090 0.099459 0.369269 0.146231
H33   H     H_    0.503146 0.037035 0.436986 0.150835
N1    N     N_R   0.290690 0.566960 0.557640 -0.278859
N2    N     N_R   0.709100 0.433710 0.442970 -0.286963
O1    O     O_R   0.545970 0.684450 0.528810 -0.388776
O2    O     O_3   0.460265 0.126413 0.529112 -0.486910
O3    O     O_3   0.285825 0.889713 0.510045 -0.475530
O4    O     O_3   0.067880 0.167892 0.680049 -0.558962
O5    O     O_3   0.819209 0.121398 0.657159 -0.483766
O6    O     O_3   0.777676 0.705186 0.362574 -0.508434
O7    O     O_3   0.318047 0.811569 0.712906 -0.437658
O8    O     O_3   0.109588 0.399619 0.433333 -0.435284
O9    O     O_3   0.131475 0.377266 0.822370 -0.532058
O10   O     O_3   0.631347 0.680664 0.839784 -0.464094
O11   O     O_R   0.687130 0.639470 0.490120 -0.510833
O12   O     O_R   0.519670 0.535100 0.660030 -0.467511
O13   O     O_R   0.660830 0.490120 0.621340 -0.481061
O14   O     O_R   0.312870 0.360530 0.509880 -0.514518
O15   O     O_R   0.454030 0.315550 0.471190 -0.439192
O16   O     O_R   0.339170 0.509880 0.378660 -0.410218
O17   O     O_R   0.480330 0.464900 0.339970 -0.395856
O18   O     O_3   0.054746 0.809556 0.139989 -0.482852

loop_
_geom_bond_atom_site_label_1
_geom_bond_atom_site_label_2
_ccdc_geom_bond_type
C49   O5    S    
C55   C56   A    
C41   C42   A    
Cu1   O12   S    
C53   H22   S    
C31   N2    A    
C19   C20   A    
C9    C21   A    
C50   H11   S    
C23   C56   A    
C37   O8    S    
C12   C23   A    
C44   O18   S    
C26   C27   A    
C48   H6    S    
Cu2   O17   S    
C16   O15   A    
C47   H3    S    
C37   N1    A    
C13   O4    S    
C3    C7    A    
C25   O7    S    
C51   H17   S    
C30   C31   A    
C53   O9    S    
C9    C22   A    
C27   C29   A    
C28   C40   S    
C49   H8    S    
C46   H32   S    
C5    H1    S    
Cu2   O11   S    
C18   C19   A    
C1    O11   A    
C48   H5    S    
C38   N1    A    
C16   O14   A    
C1    O1    A    
C7    F8    S    
C35   C36   A    
C22   O2    S    
C34   C57   A    
C8    C22   A    
C7    C40   A    
C56   O18   S    
C30   C32   A    
Cu2   N2    S    
Cu1   O14   S    
C10   F6    S    
Cu1   Cu2   S    
C13   C14   A    
C14   C17   A    
C54   H27   S    
C41   F2    S    
C44   H30   S    
C39   C42   A    
C52   O8    S    
C15   C20   A    
C21   H12   S    
C43   F3    S    
C8    O3    S    
C26   N2    A    
C44   H29   S    
C42   O10   S    
C39   C43   A    
C10   C24   A    
C46   H31   S    
C3    C45   A    
C58   O9    S    
C51   O7    S    
Cu1   O1    S    
C50   O6    S    
C49   H9    S    
Cu2   O15   S    
C29   C30   A    
C25   C38   A    
C36   H23   S    
C4    C39   S    
C55   F4    S    
C28   O16   A    
C17   C18   A    
C52   H20   S    
C34   C45   A    
C32   C37   A    
C35   F9    S    
C50   H14   S    
C15   C24   A    
C48   O4    S    
C46   O2    S    
C26   F10   S    
C6    C40   A    
C54   H26   S    
C52   H19   S    
C2    C5    A    
C47   H4    S    
C12   C34   A    
C28   O17   A    
C6    F13   S    
Cu1   O16   S    
C53   H21   S    
C14   C15   A    
C9    C16   S    
C4    O12   A    
C57   F5    S    
C51   H15   S    
C44   H28   S    
C2    C58   A    
C12   C43   A    
C23   C41   A    
C53   H24   S    
C32   C33   A    
C49   H10   S    
C54   O10   S    
C2    C3    A    
C47   H2    S    
C51   H16   S    
C20   O6    S    
C11   C13   A    
C48   H7    S    
C57   C58   A    
C5    C6    A    
C19   F1    S    
C47   O3    S    
C46   H33   S    
C33   C35   A    
C4    O13   A    
C8    C18   A    
Cu2   O13   S    
C11   O5    S    
Cu1   N1    S    
C10   C11   A    
C50   H13   S    
C38   F7    S    
C45   C55   A    
C1    C24   S    
C31   C36   A    
C54   H25   S    
C52   H18   S    
C27   F12   S    
C25   C33   A    
C29   F11   S    
C17   C21   A    
