data_mof_unit_42513.cif
_audit_creation_date              2012-12-10T20:07:48-0500
_audit_creation_method            fapswitch 2.2
_symmetry_space_group_name_H-M    P1
_symmetry_Int_Tables_number       1
_space_group_crystal_system       triclinic
_cell_length_a                    13.04288
_cell_length_b                    18.503677
_cell_length_c                    19.067399
_cell_angle_alpha                 89.511231
_cell_angle_beta                  90.239045
_cell_angle_gamma                 69.492065
_cell_volume                      4309.82493601

loop_
_atom_site_label
_atom_site_type_symbol
_atom_type_description
_atom_site_fract_x
_atom_site_fract_y
_atom_site_fract_z
_atom_type_partial_charge
C1    C     C_R   0.500129 0.499725 0.634977 0.839313
C2    C     C_R   0.984994 0.462207 0.505208 0.062786
C3    C     C_R   0.882470 0.469513 0.534193 0.042665
C4    C     C_R   0.029252 0.520285 0.519178 0.079731
C5    C     C_R   0.977379 0.579514 0.567566 0.139149
C6    C     C_R   0.885055 0.578641 0.603497 -0.276749
C7    C     C_R   0.841476 0.520778 0.591110 0.141559
C8    C     C_R   0.124697 0.520704 0.486812 -0.244944
C9    C     C_R   0.125476 0.629162 0.556162 -0.217931
C10   C     C_R   0.824007 0.426407 0.503625 -0.120614
C11   C     C_R   0.624720 0.473637 0.267216 -0.190648
C12   C     C_R   0.704888 0.456800 0.501637 0.846122
C13   C     C_R   0.643845 0.467442 0.195862 -0.158523
C14   C     C_R   0.555681 0.485593 0.148738 0.047888
C15   C     C_R   0.446336 0.509725 0.173444 0.028363
C16   C     C_R   0.428896 0.514134 0.245677 -0.277402
C17   C     C_R   0.517595 0.496588 0.291644 -0.018688
C18   C     C_R   0.543483 0.423281 0.038247 -0.170497
C19   C     C_R   0.548054 0.420214 0.965949 -0.179047
C20   C     C_R   0.590762 0.468574 0.928782 0.099793
C21   C     C_R   0.637412 0.515337 0.964689 -0.244836
C22   C     C_R   0.632046 0.519850 0.037736 0.010521
C23   C     C_R   0.499991 0.500321 0.365781 0.871746
C24   C     C_R   0.579495 0.475713 0.074090 0.045516
C25   C     C_R   0.528264 0.551290 0.823519 -0.218788
C26   C     C_R   0.498676 0.561161 0.752747 -0.004990
C27   C     C_R   0.515910 0.494886 0.711075 -0.086371
C28   C     C_R   0.560964 0.420993 0.741579 -0.202494
C29   C     C_R   0.589699 0.412255 0.811855 -0.195454
C30   C     C_R   0.573221 0.477223 0.853127 0.104898
C31   C     C_R   0.423349 0.291955 0.462976 0.036524
C32   C     C_R   0.422821 0.216175 0.464120 -0.282677
C33   C     C_R   0.502189 0.158232 0.503462 0.122088
C34   C     C_R   0.295051 0.542947 0.500048 0.878720
C35   C     C_R   0.580534 0.179296 0.540838 -0.281410
C36   C     C_R   0.577767 0.255820 0.538523 0.016121
C37   C     C_R   0.602042 0.013221 0.506626 -0.187563
C38   C     C_R   0.602413 0.937121 0.507416 -0.186234
C39   C     C_R   0.503721 0.922117 0.507280 0.129926
C40   C     C_R   0.404781 0.985743 0.507463 -0.192125
C41   C     C_R   0.404416 0.061703 0.506476 -0.183836
C42   C     C_R   0.502979 0.076777 0.505611 0.124428
C43   C     C_R   0.423165 0.823805 0.466317 -0.315889
C44   C     C_R   0.422709 0.747969 0.464026 0.132188
C45   C     C_R   0.023815 0.635458 0.583515 -0.202955
C46   C     C_R   0.579297 0.704693 0.537648 0.042032
C47   C     C_R   0.582673 0.779703 0.540686 -0.289827
C48   C     C_R   0.503309 0.840973 0.505071 0.104418
C49   C     C_R   0.177573 0.569406 0.510013 -0.043588
C50   C     C_R   0.878071 0.362331 0.462131 -0.195984
C51   C     C_R   0.987035 0.345708 0.444997 -0.155729
C52   C     C_R   0.039421 0.396441 0.464019 -0.172946
H1    H     H_    0.166462 0.667076 0.574783 0.140393
H2    H     H_    0.727405 0.448025 0.177221 0.144253
H3    H     H_    0.346436 0.531888 0.266230 0.130825
H4    H     H_    0.505788 0.387943 0.066201 0.144153
H5    H     H_    0.511560 0.383794 0.939010 0.136682
H6    H     H_    0.672790 0.551289 0.935507 0.137098
H7    H     H_    0.512282 0.601669 0.856220 0.136813
H8    H     H_    0.576861 0.369379 0.710703 0.160169
H9    H     H_    0.850275 0.620671 0.644109 0.143735
H10   H     H_    0.624602 0.354672 0.834124 0.133890
H11   H     H_    0.362291 0.335968 0.432425 0.113559
H12   H     H_    0.361551 0.202944 0.433649 0.129914
H13   H     H_    0.642448 0.137328 0.572653 0.131507
H14   H     H_    0.637692 0.271676 0.567901 0.117019
H15   H     H_    0.679669 0.022212 0.505158 0.128513
H16   H     H_    0.680265 0.890003 0.506348 0.128913
H17   H     H_    0.327025 0.976940 0.508970 0.126612
H18   H     H_    0.326500 0.108788 0.507251 0.130822
H19   H     H_    0.362000 0.868813 0.436590 0.140289
H20   H     H_    0.985572 0.680451 0.620983 0.128995
H21   H     H_    0.640208 0.658716 0.565878 0.126836
H22   H     H_    0.645831 0.789709 0.571885 0.128837
H23   H     H_    0.164972 0.479645 0.447005 0.128801
H24   H     H_    0.834543 0.327551 0.439945 0.152076
H25   H     H_    0.122817 0.381755 0.446864 0.121222
H26   H     H_    0.029010 0.296054 0.413159 0.134928
H27   H     H_    0.693309 0.459557 0.303503 0.131480
N1    N     N_R   0.499990 0.310560 0.500020 -0.086259
N2    N     N_R   0.500140 0.689420 0.500040 -0.101255
O1    O     O_R   0.500000 0.439160 0.601820 -0.613831
O2    O     O_R   0.500040 0.560780 0.601820 -0.613017
O3    O     O_R   0.653580 0.409000 0.499980 -0.619043
O4    O     O_R   0.653630 0.530610 0.499980 -0.613170
O5    O     O_R   0.499960 0.439220 0.398180 -0.614176
O6    O     O_R   0.500000 0.560840 0.398180 -0.608452
O7    O     O_R   0.346370 0.469390 0.500020 -0.616601
O8    O     O_R   0.346420 0.591000 0.500020 -0.602945
Zn1   Zn    Zn3+2 0.499970 0.418800 0.500000 0.935616
Zn2   Zn    Zn3+2 0.500030 0.581200 0.500000 0.948894
C53   C     C_R   0.349518 0.529889 0.125784 0.105713
C54   C     C_R   0.270274 0.495234 0.135693 -0.166579
C55   C     C_R   0.179002 0.513764 0.091208 -0.145161
C56   C     C_R   0.165762 0.567110 0.036578 -0.120682
C57   C     C_R   0.243587 0.602220 0.026487 -0.126094
C58   C     C_R   0.334813 0.584050 0.070960 -0.137590
H28   H     H_    0.279708 0.453287 0.177442 0.126344
H29   H     H_    0.118616 0.486621 0.099018 0.125388
H30   H     H_    0.095134 0.581311 0.002130 0.118860
H31   H     H_    0.233131 0.643695 0.984248 0.126542
H32   H     H_    0.393486 0.612390 0.062501 0.118113
C59   C     C_R   0.678715 0.572429 0.073617 0.107445
C60   C     C_R   0.614263 0.631625 0.117411 -0.136186
C61   C     C_R   0.660134 0.679924 0.151253 -0.133268
C62   C     C_R   0.770223 0.670130 0.141257 -0.106204
C63   C     C_R   0.834605 0.612114 0.097249 -0.143666
C64   C     C_R   0.789159 0.563550 0.063416 -0.175022
H33   H     H_    0.528769 0.640555 0.125602 0.117138
H34   H     H_    0.610218 0.725042 0.185196 0.125261
H35   H     H_    0.805586 0.707586 0.167500 0.122292
H36   H     H_    0.919808 0.604688 0.089452 0.127347
H37   H     H_    0.840338 0.518501 0.029831 0.127126
C65   C     C_R   0.449613 0.641014 0.724788 0.141872
C66   C     C_R   0.509235 0.691168 0.727188 -0.185080
C67   C     C_R   0.464404 0.765906 0.699341 -0.132972
C68   C     C_R   0.359927 0.791111 0.668998 -0.094522
C69   C     C_R   0.299527 0.741926 0.667212 -0.147374
C70   C     C_R   0.343830 0.667185 0.695225 -0.106682
H38   H     H_    0.590938 0.671962 0.749652 0.124608
H39   H     H_    0.511087 0.804068 0.700691 0.128631
H40   H     H_    0.325785 0.848760 0.646902 0.122566
H41   H     H_    0.218361 0.761806 0.644121 0.107242
H42   H     H_    0.296407 0.629480 0.693300 0.106554
C71   C     C_R   0.337842 0.733496 0.421519 0.149706
C72   C     C_R   0.232827 0.748648 0.448987 -0.143275
C73   C     C_R   0.150656 0.737889 0.407601 -0.141926
C74   C     C_R   0.172293 0.713649 0.338239 -0.128813
C75   C     C_R   0.275681 0.701144 0.309885 -0.168557
C76   C     C_R   0.358103 0.711605 0.351201 -0.116493
H43   H     H_    0.215075 0.768111 0.502461 0.109626
H44   H     H_    0.070196 0.748458 0.429264 0.137517
H45   H     H_    0.108662 0.705324 0.306263 0.130051
H46   H     H_    0.291816 0.683678 0.255813 0.139087
H47   H     H_    0.437632 0.702470 0.328521 0.129163
C77   C     C_3   0.763238 0.509017 0.645195 -0.373229
C78   C     C_3   0.817145 0.489788 0.717664 -0.884663
H48   H     H_    0.836316 0.539331 0.738825 0.250518
H49   H     H_    0.760487 0.476497 0.754596 0.263976
H50   H     H_    0.893596 0.438597 0.714766 0.267472
H51   H     H_    0.689801 0.561970 0.648968 0.212662
H52   H     H_    0.736406 0.460318 0.631785 0.193368

loop_
_geom_bond_atom_site_label_1
_geom_bond_atom_site_label_2
_ccdc_geom_bond_type
C57   H31   S    
C61   H34   S    
C9    C45   A    
C72   C73   A    
O6    Zn2   S    
C56   C57   A    
C41   C42   A    
C19   C20   A    
C4    C8    A    
C74   C75   A    
C65   C66   A    
O4    Zn2   S    
C31   N1    A    
C20   C30   S    
C70   H42   S    
C19   H5    S    
C78   H49   S    
C26   C27   A    
C17   C23   S    
C52   H25   S    
C12   O4    A    
C18   C24   A    
C33   C42   S    
C72   H43   S    
C6    H9    S    
C28   C29   A    
C13   H2    S    
C3    C7    A    
C5    C6    A    
C36   H14   S    
C62   C63   A    
C35   H13   S    
C15   C16   A    
C67   C68   A    
C12   O3    A    
C18   C19   A    
C63   H36   S    
C14   C24   S    
C37   C42   A    
C73   H44   S    
C77   H52   S    
C15   C53   S    
C69   C70   A    
C71   C76   A    
C35   C36   A    
C16   C17   A    
C23   O5    A    
C63   C64   A    
C59   C64   A    
C11   H27   S    
O8    Zn2   S    
C29   C30   A    
C43   C48   A    
C58   H32   S    
C18   H4    S    
C23   O6    A    
C21   C22   A    
C45   H20   S    
O3    Zn1   S    
C60   C61   A    
C53   C58   A    
C62   H35   S    
C28   H8    S    
C78   H50   S    
C44   C71   S    
C40   H17   S    
C51   C52   A    
C31   H11   S    
C9    C49   A    
C32   H12   S    
C44   N2    A    
C36   N1    A    
C39   C40   A    
C56   H30   S    
C77   C78   S    
C1    O1    A    
C5    C45   A    
C8    H23   S    
C22   C59   S    
C64   H37   S    
C2    C4    A    
C68   H40   S    
C26   C65   S    
C74   H45   S    
C37   C38   A    
C2    C52   A    
C50   H24   S    
C46   N2    A    
C47   C48   A    
C57   C58   A    
C50   C51   A    
C54   C55   A    
C34   O7    A    
C10   C12   S    
C40   C41   A    
C76   H47   S    
O7    Zn1   S    
C43   C44   A    
O5    Zn1   S    
C71   C72   A    
C22   C24   A    
C9    H1    S    
C73   C74   A    
C10   C50   A    
C59   C60   A    
C75   C76   A    
C61   C62   A    
C25   C30   A    
C29   H10   S    
C11   C17   A    
C34   C49   S    
C43   H19   S    
C14   C15   A    
C31   C32   A    
C65   C70   A    
C47   H22   S    
C38   H16   S    
C4    C5    A    
C6    C7    A    
C1    O2    A    
O2    Zn2   S    
C78   H48   S    
O1    Zn1   S    
C32   C33   A    
C54   H28   S    
C34   O8    A    
C2    C3    A    
C25   C26   A    
C51   H26   S    
C21   H6    S    
C3    C10   A    
C68   C69   A    
C11   C13   A    
C38   C39   A    
C55   H29   S    
C37   H15   S    
C53   C54   A    
C33   C35   A    
C77   H51   S    
C69   H41   S    
N1    Zn1   S    
C55   C56   A    
C16   H3    S    
C46   C47   A    
C75   H46   S    
N2    Zn2   S    
C7    C77   S    
C20   C21   A    
C66   H38   S    
C27   C28   A    
C1    C27   S    
C60   H33   S    
C39   C48   S    
C67   H39   S    
C25   H7    S    
C13   C14   A    
C8    C49   A    
C46   H21   S    
C66   C67   A    
C41   H18   S    
