data_mof_unit_23231.cif
_audit_creation_date              2012-12-10T18:15:19-0500
_audit_creation_method            fapswitch 2.2
_symmetry_space_group_name_H-M    P1
_symmetry_Int_Tables_number       1
_space_group_crystal_system       triclinic
_cell_length_a                    12.654891
_cell_length_b                    13.116854
_cell_length_c                    23.384344
_cell_angle_alpha                 91.039722
_cell_angle_beta                  103.318282
_cell_angle_gamma                 82.473485
_cell_volume                      3744.39344543

loop_
_atom_site_label
_atom_site_type_symbol
_atom_type_description
_atom_site_fract_x
_atom_site_fract_y
_atom_site_fract_z
_atom_type_partial_charge
C1    C     C_R   0.438757 0.691092 0.491385 0.859702
C2    C     C_R   0.571521 0.680587 0.039892 -0.174093
C3    C     C_R   0.573900 0.678698 0.980629 -0.171908
C4    C     C_R   0.533414 0.598958 0.944772 -0.008804
C5    C     C_R   0.489542 0.520835 0.968757 -0.027812
C6    C     C_R   0.449384 0.440031 0.933258 -0.014090
C7    C     C_R   0.405126 0.362983 0.957439 -0.167959
C8    C     C_R   0.401249 0.365741 0.016466 -0.167109
C9    C     C_R   0.535450 0.595002 0.885281 0.482859
C10   C     C_R   0.454900 0.438505 0.874293 0.486960
C11   C     C_R   0.594706 0.468250 0.773818 0.119263
C12   C     C_R   0.501128 0.500803 0.610351 0.897496
C13   C     C_R   0.594559 0.464716 0.714116 -0.275753
C14   C     C_R   0.501640 0.505364 0.672383 -0.068262
C15   C     C_R   0.407651 0.549981 0.689614 -0.248775
C16   C     C_R   0.405031 0.554471 0.748828 0.125988
C17   C     C_R   0.499194 0.513193 0.791101 0.277014
C18   C     C_R   0.584537 0.496594 0.246824 -0.116293
C19   C     C_R   0.588977 0.487876 0.306310 -0.229392
C20   C     C_R   0.492701 0.506694 0.326709 -0.046907
C21   C     C_R   0.391937 0.535843 0.287244 -0.266192
C22   C     C_R   0.386793 0.546712 0.227285 0.054412
C23   C     C_R   0.560773 0.308722 0.505593 0.854655
C24   C     C_R   0.484322 0.525545 0.207243 0.279805
C25   C     C_R   0.692956 0.064778 0.453019 -0.200666
C26   C     C_R   0.595059 0.199973 0.499431 -0.044159
C27   C     C_R   0.303279 0.836969 0.504389 -0.189307
C28   C     C_R   0.275077 0.941742 0.510436 -0.148955
C29   C     C_R   0.345633 0.009865 0.501856 -0.201898
C30   C     C_R   0.443792 0.973768 0.484201 0.079003
C31   C     C_R   0.462101 0.869895 0.468684 0.075525
C32   C     C_R   0.525230 0.036755 0.482255 0.074152
C33   C     C_R   0.613394 0.001002 0.455835 0.167407
C34   C     C_R   0.498172 0.500662 0.389433 0.850959
C35   C     C_R   0.619905 0.902776 0.432097 -0.268093
C36   C     C_R   0.545191 0.837594 0.438523 -0.213915
C37   C     C_R   0.522720 0.133658 0.507376 -0.268976
C38   C     C_R   0.682708 0.165032 0.473869 -0.202702
C39   C     C_R   0.398617 0.800436 0.485434 -0.103838
C40   C     C_R   0.083515 0.344641 0.420204 -0.314723
C41   C     C_R   0.804177 0.632226 0.569548 0.074045
C42   C     C_R   0.908233 0.666023 0.579201 0.043489
C43   C     C_R   0.984997 0.616212 0.551122 -0.256599
C44   C     C_R   0.961377 0.532896 0.514316 0.000745
C45   C     C_R   0.440991 0.448595 0.111954 0.519084
C46   C     C_R   0.853569 0.504684 0.503021 0.208255
C47   C     C_R   0.040883 0.477904 0.487515 0.008051
C48   C     C_R   0.009216 0.398251 0.448377 0.164983
C49   C     C_R   0.903154 0.372551 0.437093 -0.295405
C50   C     C_R   0.826734 0.424870 0.464258 -0.199226
C51   C     C_R   0.151254 0.497671 0.498376 -0.091383
C52   C     C_R   0.189263 0.370158 0.429456 0.248269
C53   C     C_R   0.525734 0.602731 0.123660 0.473903
C54   C     C_R   0.528054 0.603078 0.064208 -0.008639
C55   C     C_R   0.486260 0.523250 0.028451 -0.023429
C56   C     C_R   0.442029 0.445334 0.052353 -0.014298
H1    H     H_    0.603891 0.742786 0.066537 0.190019
H2    H     H_    0.667424 0.465318 0.336255 0.160190
H3    H     H_    0.317939 0.553394 0.303332 0.157673
H4    H     H_    0.739330 0.216266 0.467217 0.144991
H5    H     H_    0.684694 0.875180 0.410196 0.159428
H6    H     H_    0.760268 0.038541 0.432675 0.136689
H7    H     H_    0.461878 0.161594 0.531515 0.151522
H8    H     H_    0.252424 0.784373 0.516335 0.146017
H9    H     H_    0.320294 0.090265 0.508115 0.134415
H10   H     H_    0.200819 0.969904 0.524412 0.143363
H11   H     H_    0.607969 0.739513 0.963117 0.188730
H12   H     H_    0.553729 0.761365 0.420262 0.177709
H13   H     H_    0.878997 0.311317 0.407067 0.148199
H14   H     H_    0.058850 0.283197 0.390410 0.145348
H15   H     H_    0.183833 0.553588 0.529409 0.130102
H16   H     H_    0.062832 0.645100 0.558974 0.138636
H17   H     H_    0.747158 0.401172 0.453996 0.205366
H18   H     H_    0.373485 0.300369 0.930898 0.189225
H19   H     H_    0.366811 0.305114 0.033911 0.189489
H20   H     H_    0.666520 0.429138 0.700092 0.154091
H21   H     H_    0.336454 0.582594 0.656788 0.146516
H22   H     H_    0.658990 0.479662 0.231138 0.142349
N1    N     N_R   0.482165 0.526580 0.145996 -0.355492
N2    N     N_R   0.496992 0.515421 0.851783 -0.358755
N3    N     N_R   0.222200 0.444670 0.469780 -0.114838
N4    N     N_R   0.776960 0.554790 0.529910 -0.155224
O1    O     O_R   0.366740 0.627150 0.485570 -0.616362
O2    O     O_2   0.566126 0.677858 0.158963 -0.572148
O3    O     O_2   0.574932 0.669904 0.860862 -0.593182
O4    O     O_2   0.418775 0.361031 0.839572 -0.577260
O5    O     O_R   0.544830 0.662520 0.504870 -0.610972
O6    O     O_R   0.410930 0.482340 0.574190 -0.617832
O7    O     O_R   0.589010 0.517710 0.593490 -0.607061
O8    O     O_R   0.455170 0.337480 0.495130 -0.635432
O9    O     O_R   0.633260 0.372850 0.514430 -0.634030
O10   O     O_R   0.410990 0.482290 0.406510 -0.628764
O11   O     O_R   0.589070 0.517660 0.425810 -0.637174
O12   O     O_2   0.400496 0.373964 0.136040 -0.571940
Zn1   Zn    Zn3+2 0.381090 0.476380 0.487110 0.927587
Zn2   Zn    Zn3+2 0.618910 0.523620 0.512890 0.931437
C57   C     C_R   0.279904 0.580611 0.186466 0.121586
C58   C     C_R   0.267424 0.665793 0.148740 -0.162392
C59   C     C_R   0.166911 0.696565 0.109821 -0.134683
C60   C     C_R   0.077814 0.643241 0.108545 -0.100686
C61   C     C_R   0.088980 0.559338 0.146396 -0.131111
C62   C     C_R   0.189407 0.528263 0.185320 -0.119200
H23   H     H_    0.334966 0.709081 0.149825 0.162041
H24   H     H_    0.158003 0.762026 0.080787 0.138863
H25   H     H_    0.000042 0.667156 0.078395 0.131855
H26   H     H_    0.019844 0.518233 0.145515 0.133968
H27   H     H_    0.196817 0.462822 0.214035 0.133612
C63   C     C_3   0.262653 0.310092 0.394299 -0.385366
C64   C     C_3   0.221726 0.331519 0.327998 -0.410577
C65   C     C_3   0.301276 0.275698 0.294015 -0.819253
H28   H     H_    0.381829 0.305008 0.306633 0.268754
H29   H     H_    0.312937 0.191679 0.303223 0.262715
H30   H     H_    0.268081 0.288570 0.246114 0.261148
H31   H     H_    0.140323 0.305239 0.311591 0.222607
H32   H     H_    0.213250 0.415505 0.319332 0.229800
H33   H     H_    0.346551 0.326734 0.406379 0.270574
H34   H     H_    0.265940 0.226568 0.403232 0.178989
C66   C     C_R   0.727692 0.680928 0.604301 0.192502
C67   C     C_R   0.731946 0.641302 0.660325 -0.158576
C68   C     C_R   0.671088 0.694496 0.697043 -0.136384
C69   C     C_R   0.607630 0.788500 0.678723 -0.111833
C70   C     C_R   0.607835 0.831219 0.624513 -0.162992
C71   C     C_R   0.669871 0.778892 0.588224 -0.125747
H35   H     H_    0.782764 0.569599 0.675511 0.116028
H36   H     H_    0.673598 0.663374 0.739892 0.163063
H37   H     H_    0.560340 0.829291 0.707109 0.149403
H38   H     H_    0.561660 0.905697 0.611089 0.149312
H39   H     H_    0.674197 0.814996 0.547917 0.143878
C72   C     C_3   0.941027 0.755592 0.618582 -0.430327
C73   C     C_3   0.935265 0.852497 0.581596 -0.335161
C74   C     C_3   0.962531 0.944513 0.620452 -0.870784
H40   H     H_    0.902799 0.961676 0.648590 0.266993
H41   H     H_    0.046528 0.928559 0.648739 0.258873
H42   H     H_    0.958357 0.013039 0.592424 0.250897
H43   H     H_    0.994229 0.838890 0.552751 0.216714
H44   H     H_    0.851698 0.871184 0.553167 0.225267
H45   H     H_    0.889488 0.772266 0.650922 0.213491
H46   H     H_    0.026109 0.735196 0.645040 0.200928
C75   C     C_3   0.696591 0.421830 0.817738 -0.396109
C76   C     C_3   0.789663 0.488022 0.822896 -0.358062
C77   C     C_3   0.891948 0.442412 0.867730 -0.857983
H47   H     H_    0.874106 0.438737 0.911939 0.264551
H48   H     H_    0.921226 0.363881 0.854580 0.263038
H49   H     H_    0.957888 0.491560 0.870084 0.252514
H50   H     H_    0.810989 0.493603 0.779647 0.210619
H51   H     H_    0.762996 0.566825 0.836768 0.258523
H52   H     H_    0.680211 0.412959 0.861888 0.208699
H53   H     H_    0.722866 0.343254 0.803268 0.202684
C78   C     C_3   0.301717 0.604961 0.765543 -0.413386
C79   C     C_3   0.207179 0.540400 0.745869 -0.323652
C80   C     C_3   0.105397 0.587396 0.766272 -0.891767
H54   H     H_    0.122670 0.588360 0.815045 0.267412
H55   H     H_    0.078905 0.667191 0.748940 0.257719
H56   H     H_    0.037578 0.540841 0.749883 0.251227
H57   H     H_    0.185823 0.535381 0.697141 0.215472
H58   H     H_    0.232438 0.461222 0.764454 0.264579
H59   H     H_    0.315241 0.617054 0.813639 0.210866
H60   H     H_    0.278232 0.682440 0.744410 0.195180

loop_
_geom_bond_atom_site_label_1
_geom_bond_atom_site_label_2
_ccdc_geom_bond_type
C1    O5    A    
C55   C56   A    
C43   H16   S    
C23   O9    A    
C41   C42   A    
C35   C36   A    
C34   O11   A    
C74   H42   S    
C8    C56   A    
C57   C58   A    
C2    H1    S    
C7    C8    A    
C15   H21   S    
C53   C54   A    
C75   H52   S    
C60   H25   S    
C61   C62   A    
C40   H14   S    
C53   O2    S    
C18   C24   A    
C28   C29   A    
C53   N1    A    
C21   H3    S    
C77   H48   S    
C5    C6    A    
N3    Zn1   S    
C80   H56   S    
C15   C16   A    
C63   C64   S    
C18   C19   A    
C23   C26   S    
C70   H38   S    
C11   C75   S    
C66   C67   A    
C9    O3    S    
O9    Zn2   S    
C65   H28   S    
C77   H47   S    
C10   O4    S    
C72   H46   S    
C73   H43   S    
C45   C56   A    
C27   C39   A    
C16   C17   A    
C80   H54   S    
C16   C78   S    
C41   C66   S    
C78   H60   S    
C51   N3    A    
C31   C36   A    
C57   C62   A    
C44   C47   A    
C66   C71   A    
C20   C34   S    
C59   H24   S    
O6    Zn1   S    
C22   C57   S    
C49   H13   S    
C13   C14   A    
C17   N2    S    
C51   H15   S    
C45   O12   S    
C37   H7    S    
C44   C46   A    
C7    H18   S    
C65   H29   S    
C19   H2    S    
C73   H44   S    
C75   H53   S    
N4    Zn2   S    
C12   O6    A    
C46   N4    A    
C12   O7    A    
O8    Zn1   S    
C76   C77   S    
C45   N1    A    
C2    C54   A    
C77   H49   S    
C76   H51   S    
C10   N2    A    
C68   H36   S    
C26   C38   A    
C47   C51   A    
C67   H35   S    
C8    H19   S    
C3    C4    A    
C9    N2    A    
C28   H10   S    
C43   C44   A    
C29   C30   A    
C25   C38   A    
C24   N1    S    
C47   C48   A    
C13   H20   S    
C18   H22   S    
O1    Zn1   S    
O5    Zn2   S    
C23   O8    A    
C62   H27   S    
C35   H5    S    
C32   C37   A    
C67   C68   A    
C65   H30   S    
C69   C70   A    
C64   H31   S    
C38   H4    S    
C48   C49   A    
C12   C14   S    
C49   C50   A    
O11   Zn2   S    
C79   H57   S    
C29   H9    S    
C50   H17   S    
C1    C39   S    
C42   C43   A    
O10   Zn1   S    
C74   H40   S    
C68   C69   A    
C72   C73   S    
C61   H26   S    
C40   C48   A    
C54   C55   A    
C11   C17   A    
C79   C80   S    
C63   H34   S    
C5    C55   A    
C3    H11   S    
C4    C5    A    
C74   H41   S    
C76   H50   S    
C6    C10   A    
C75   C76   S    
C36   H12   S    
C26   C37   A    
C6    C7    A    
C1    O1    A    
C46   C50   A    
C59   C60   A    
C32   C33   A    
C63   H33   S    
C19   C20   A    
C73   C74   S    
C70   C71   A    
C69   H37   S    
C40   C52   A    
C78   C79   S    
C30   C32   A    
C11   C13   A    
C71   H39   S    
C30   C31   A    
O7    Zn2   S    
C41   N4    A    
C60   C61   A    
C33   C35   A    
C31   C39   A    
C2    C3    A    
C42   C72   S    
C22   C24   A    
C25   H6    S    
C80   H55   S    
C52   N3    A    
C34   O10   A    
C27   H8    S    
C64   H32   S    
C72   H45   S    
C20   C21   A    
C52   C63   S    
C58   C59   A    
C64   C65   S    
C27   C28   A    
C14   C15   A    
C79   H58   S    
C4    C9    A    
C21   C22   A    
C78   H59   S    
C58   H23   S    
C25   C33   A    
