data_mof_unit_16289.cif
_audit_creation_date              2012-12-10T18:07:22-0500
_audit_creation_method            fapswitch 2.2
_symmetry_space_group_name_H-M    P1
_symmetry_Int_Tables_number       1
_space_group_crystal_system       triclinic
_cell_length_a                    18.468875
_cell_length_b                    18.480202
_cell_length_c                    42.889191
_cell_angle_alpha                 90.06533
_cell_angle_beta                  89.977658
_cell_angle_gamma                 90.160076
_cell_volume                      14638.379451

loop_
_atom_site_label
_atom_site_type_symbol
_atom_type_description
_atom_site_fract_x
_atom_site_fract_y
_atom_site_fract_z
_atom_type_partial_charge
C1    C     C_R   0.436836 0.011389 0.115080 -0.156097
C2    C     C_R   0.064997 0.508498 0.384643 -0.147708
C3    C     C_R   0.311950 0.740238 0.731475 0.221109
C4    C     C_R   0.247822 0.300896 0.274698 0.213989
C5    C     C_R   0.757255 0.703599 0.723858 0.217482
C6    C     C_R   0.315189 0.737868 0.266636 0.223505
C7    C     C_R   0.690991 0.257284 0.729706 0.224805
C8    C     C_R   0.196889 0.695951 0.249801 -0.079643
C9    C     C_R   0.803227 0.304526 0.750491 -0.087716
C10   C     C_R   0.302974 0.195431 0.250420 -0.075437
C11   C     C_R   0.697258 0.804411 0.749734 -0.072184
C12   C     C_R   0.802784 0.304376 0.249541 -0.081154
C13   C     C_R   0.498281 0.935153 0.614969 -0.154167
C14   C     C_R   0.198129 0.694316 0.751296 -0.087065
C15   C     C_R   0.696027 0.803661 0.249900 -0.076087
C16   C     C_R   0.304932 0.197839 0.750477 -0.070816
C17   C     C_R   0.196726 0.304449 0.750140 -0.075890
C18   C     C_R   0.803326 0.696137 0.249784 -0.070276
C19   C     C_R   0.306251 0.800948 0.751567 -0.079758
C20   C     C_R   0.696179 0.196243 0.249888 -0.086472
C21   C     C_R   0.805638 0.698025 0.749451 -0.079774
C22   C     C_R   0.196000 0.303249 0.250134 -0.069082
C23   C     C_R   0.696249 0.196779 0.750010 -0.081584
C24   C     C_R   0.487594 0.063994 0.384827 -0.158683
C25   C     C_R   0.304445 0.803205 0.249787 -0.084224
C26   C     C_R   0.500230 0.990371 0.066366 0.065173
C27   C     C_R   0.498852 0.987035 0.934076 0.064611
C28   C     C_R   0.996692 0.500454 0.065995 0.054485
C29   C     C_R   0.997847 0.501159 0.933605 0.064319
C30   C     C_R   0.000075 0.501608 0.566379 0.066704
C31   C     C_R   0.000303 0.499075 0.433942 0.049406
C32   C     C_R   0.508481 0.000464 0.565917 0.062383
C33   C     C_R   0.505652 0.000503 0.433620 0.068549
C34   C     C_3   0.210973 0.935886 0.237253 0.058584
C35   C     C_R   0.062666 0.482084 0.615348 -0.151950
C36   C     C_3   0.131009 0.943582 0.245147 -0.285427
C37   C     C_3   0.120251 0.004808 0.268624 -0.497560
C38   C     C_3   0.716054 0.148550 0.818213 0.039627
C39   C     C_3   0.750115 0.198792 0.842503 -0.274687
C40   C     C_3   0.700578 0.205227 0.870975 -0.496078
C41   C     C_3   0.084711 0.226112 0.204257 0.065367
C42   C     C_3   0.076397 0.149979 0.190739 -0.287771
C43   C     C_3   0.996472 0.128517 0.189344 -0.475774
C44   C     C_3   0.840029 0.694327 0.820284 0.052331
C45   C     C_3   0.793043 0.719912 0.847431 -0.273533
C46   C     C_R   0.935210 0.490604 0.384710 -0.147034
C47   C     C_3   0.789600 0.661978 0.872834 -0.493619
C48   C     C_3   0.786478 0.062618 0.236301 0.057238
C49   C     C_3   0.865126 0.039127 0.238704 -0.282010
C50   C     C_3   0.870648 0.971417 0.259018 -0.500342
C51   C     C_3   0.295165 0.849807 0.819237 0.037368
C52   C     C_3   0.264822 0.810502 0.847687 -0.283938
C53   C     C_3   0.322232 0.806724 0.873380 -0.487732
C54   C     C_3   0.912856 0.772819 0.203454 0.067664
C55   C     C_3   0.921242 0.846712 0.187864 -0.286663
C56   C     C_3   0.000275 0.870955 0.189200 -0.479026
C57   C     C_R   0.510065 0.065490 0.615282 -0.153753
C58   C     C_3   0.162727 0.313483 0.820477 0.052892
C59   C     C_3   0.210148 0.291915 0.848034 -0.274253
C60   C     C_3   0.211116 0.352004 0.872637 -0.494803
C61   C     C_3   0.226444 0.088774 0.796259 0.067802
C62   C     C_3   0.155382 0.080350 0.813950 -0.287099
C63   C     C_3   0.129951 0.002009 0.811708 -0.488173
C64   C     C_3   0.684901 0.835258 0.179573 0.052630
C65   C     C_3   0.704922 0.786050 0.152322 -0.277172
C66   C     C_3   0.643014 0.782658 0.128680 -0.495345
C67   C     C_3   0.066314 0.786700 0.764817 0.057563
C68   C     C_R   0.517746 0.936561 0.384548 -0.156270
C69   C     C_3   0.049080 0.866418 0.761296 -0.283691
C70   C     C_3   0.983878 0.875791 0.739683 -0.503019
C71   C     C_3   0.851699 0.290204 0.181771 0.042552
C72   C     C_3   0.814573 0.256656 0.153447 -0.281640
C73   C     C_3   0.806486 0.313167 0.127631 -0.491332
C74   C     C_3   0.775485 0.918055 0.793969 0.067640
C75   C     C_3   0.849984 0.928457 0.808781 -0.289005
C76   C     C_3   0.869376 0.008757 0.810541 -0.472628
C77   C     C_3   0.308443 0.161512 0.179908 0.055217
C78   C     C_3   0.278540 0.191317 0.149424 -0.280152
C79   C     C_R   0.435527 0.008020 0.082253 0.227103
C80   C     C_3   0.339021 0.201724 0.125533 -0.496145
C81   C     C_3   0.938015 0.214218 0.762677 0.057193
C82   C     C_3   0.961852 0.135837 0.759826 -0.283642
C83   C     C_3   0.032751 0.131574 0.741456 -0.499050
C84   C     C_3   0.140518 0.718475 0.182552 0.044145
C85   C     C_3   0.177550 0.755552 0.154993 -0.283538
C86   C     C_3   0.166588 0.710898 0.125275 -0.485561
C87   C     C_3   0.716660 0.440154 0.742329 0.052826
C88   C     C_3   0.641130 0.469210 0.747834 -0.286554
C89   C     C_3   0.645160 0.535729 0.769048 -0.499268
C90   C     C_R   0.565389 0.982833 0.917688 0.227253
C91   C     C_3   0.220090 0.642044 0.317428 0.042595
C92   C     C_3   0.258958 0.679723 0.344452 -0.280402
C93   C     C_3   0.212584 0.675909 0.373965 -0.488201
C94   C     C_3   0.585788 0.724770 0.705981 0.064957
C95   C     C_3   0.579010 0.647195 0.694327 -0.290552
C96   C     C_3   0.499636 0.623752 0.694876 -0.474557
C97   C     C_3   0.336990 0.185746 0.320215 0.053781
C98   C     C_3   0.293077 0.206443 0.348968 -0.279755
C99   C     C_3   0.286083 0.141570 0.370903 -0.497714
C100  C     C_3   0.285077 0.558703 0.740124 0.057939
C101  C     C_R   0.992180 0.433494 0.082263 0.231604
C102  C     C_3   0.362939 0.537108 0.746424 -0.283856
C103  C     C_3   0.364104 0.470667 0.767648 -0.499254
C104  C     C_3   0.780269 0.357876 0.317353 0.042439
C105  C     C_3   0.741248 0.320916 0.344429 -0.280862
C106  C     C_3   0.787207 0.325558 0.374024 -0.486346
C107  C     C_3   0.419230 0.276683 0.708472 0.065182
C108  C     C_3   0.429427 0.353786 0.696921 -0.288604
C109  C     C_3   0.506263 0.380341 0.704272 -0.463294
C110  C     C_3   0.664574 0.814854 0.320182 0.053081
C111  C     C_3   0.710703 0.793896 0.348241 -0.277787
C112  C     C_R   0.564328 0.986745 0.884880 -0.149735
C113  C     C_R   0.983739 0.565979 0.917236 0.225356
C114  C     C_3   0.715812 0.857065 0.371231 -0.495009
C115  C     C_3   0.726443 0.586321 0.295665 0.066632
C116  C     C_3   0.651652 0.578807 0.310344 -0.286860
C117  C     C_3   0.627229 0.499762 0.309319 -0.476920
C118  C     C_3   0.189017 0.336848 0.679846 0.053033
C119  C     C_3   0.210050 0.285073 0.653652 -0.275767
C120  C     C_3   0.148023 0.277882 0.630221 -0.496330
C121  C     C_3   0.561858 0.285629 0.262778 0.058278
C122  C     C_3   0.540141 0.364282 0.259138 -0.282992
C123  C     C_3   0.472728 0.369011 0.238586 -0.501385
C124  C     C_R   0.564787 0.975662 0.082843 0.224803
C125  C     C_3   0.355793 0.773976 0.683193 0.039844
C126  C     C_3   0.307063 0.734617 0.659790 -0.273756
C127  C     C_3   0.298543 0.779814 0.630236 -0.496687
C128  C     C_3   0.274116 0.414569 0.295186 0.066624
C129  C     C_3   0.348920 0.422546 0.309813 -0.287150
C130  C     C_3   0.373818 0.501467 0.308098 -0.475674
C131  C     C_3   0.824576 0.669578 0.680394 0.050968
C132  C     C_3   0.810502 0.716574 0.651856 -0.278639
C133  C     C_3   0.880707 0.727890 0.633507 -0.496681
C134  C     C_3   0.438787 0.714459 0.262755 0.058212
C135  C     C_R   0.432002 0.993466 0.917944 0.229042
C136  C     C_3   0.460343 0.635871 0.258781 -0.283381
C137  C     C_3   0.527367 0.631171 0.237983 -0.500965
C138  C     C_3   0.647161 0.214159 0.682519 0.039352
C139  C     C_3   0.687266 0.248024 0.655028 -0.282109
C140  C     C_3   0.696004 0.192124 0.628922 -0.484595
C141  C     C_3   0.307156 0.015470 0.078477 0.019601
C142  C     C_3   0.292588 0.934787 0.084920 -0.267886
C143  C     C_3   0.214347 0.922728 0.095326 -0.483919
C144  C     C_3   0.693893 0.989661 0.921396 0.022056
C145  C     C_3   0.733843 0.924981 0.907063 -0.260932
C146  C     C_R   0.002412 0.566708 0.082656 0.228142
C147  C     C_3   0.810200 0.945566 0.896510 -0.488738
C148  C     C_3   0.003037 0.304048 0.080138 0.019056
C149  C     C_3   0.083872 0.297940 0.088050 -0.268054
C150  C     C_3   0.101284 0.223601 0.101456 -0.485272
C151  C     C_3   0.987593 0.694064 0.921272 0.019082
C152  C     C_3   0.070498 0.699687 0.918081 -0.266273
C153  C     C_3   0.093619 0.776091 0.908661 -0.483481
C154  C     C_3   0.692872 0.973822 0.078563 0.018730
C155  C     C_3   0.702020 0.056556 0.080619 -0.267095
C156  C     C_3   0.779464 0.077223 0.089458 -0.484643
C157  C     C_R   0.013167 0.435987 0.917587 0.226923
C158  C     C_3   0.302263 0.005697 0.920361 0.020029
C159  C     C_3   0.290872 0.086316 0.913391 -0.263916
C160  C     C_3   0.210821 0.102857 0.908178 -0.481832
C161  C     C_3   0.966299 0.688796 0.078140 0.016586
C162  C     C_3   0.884774 0.671029 0.078459 -0.269008
C163  C     C_3   0.840121 0.738356 0.085882 -0.479554
C164  C     C_3   0.015146 0.307498 0.921539 0.020525
C165  C     C_3   0.933243 0.296939 0.916291 -0.267251
C166  C     C_3   0.916248 0.219285 0.906280 -0.486006
C167  C     C_3   0.810997 0.556786 0.580980 0.018217
C168  C     C_R   0.935764 0.520287 0.582525 0.229871
C169  C     C_3   0.770445 0.488229 0.591769 -0.264152
C170  C     C_3   0.697773 0.507123 0.606999 -0.481956
C171  C     C_3   0.190643 0.470632 0.420941 0.018168
C172  C     C_3   0.175006 0.388838 0.417978 -0.267886
C173  C     C_3   0.242995 0.347224 0.408353 -0.482268
C174  C     C_3   0.511563 0.803901 0.580778 0.020928
C175  C     C_3   0.588321 0.792076 0.593728 -0.267817
C176  C     C_3   0.595909 0.716246 0.607467 -0.480730
C177  C     C_3   0.472233 0.193875 0.420192 0.018963
C178  C     C_3   0.548296 0.219461 0.410564 -0.266279
C179  C     C_R   0.066874 0.504471 0.417399 0.230067
C180  C     C_3   0.545827 0.295480 0.396684 -0.482318
C181  C     C_3   0.192845 0.472629 0.579313 0.020240
C182  C     C_3   0.209689 0.553092 0.585414 -0.268446
C183  C     C_3   0.287325 0.563367 0.596952 -0.485067
C184  C     C_3   0.809917 0.526525 0.421735 0.018523
C185  C     C_3   0.824940 0.608475 0.420211 -0.269126
C186  C     C_3   0.756234 0.650374 0.412058 -0.481647
C187  C     C_3   0.501119 0.196084 0.579683 0.019207
C188  C     C_3   0.418913 0.201225 0.584480 -0.268948
C189  C     C_3   0.397900 0.276224 0.596342 -0.481295
C190  C     C_R   0.503852 0.933619 0.582089 0.233257
C191  C     C_3   0.525065 0.806523 0.420796 0.019453
C192  C     C_3   0.443590 0.792436 0.416031 -0.266652
C193  C     C_3   0.429333 0.714729 0.405385 -0.483884
C194  C     C_R   0.489983 0.065620 0.417707 0.228614
C195  C     C_R   0.064395 0.483585 0.582553 0.228038
C196  C     C_R   0.991453 0.434965 0.115194 -0.157693
C197  C     C_R   0.933640 0.493667 0.417451 0.229402
C198  C     C_R   0.512074 0.067096 0.582428 0.228230
C199  C     C_R   0.519105 0.935284 0.417369 0.226411
C200  C     C_R   0.500154 0.996578 0.131599 -0.046442
C201  C     C_R   0.499334 0.995821 0.868670 -0.047318
C202  C     C_R   0.999320 0.499930 0.131517 -0.048912
C203  C     C_R   0.999318 0.500365 0.868381 -0.047371
C204  C     C_R   0.999964 0.500694 0.631598 -0.046183
C205  C     C_R   0.000026 0.499772 0.368446 -0.051055
C206  C     C_R   0.502115 0.000295 0.631410 -0.047371
C207  C     C_R   0.982661 0.563919 0.884465 -0.151378
C208  C     C_R   0.501537 0.000137 0.368445 -0.046117
C209  C     C_R   0.000354 0.499380 0.468685 0.361798
C210  C     C_R   0.000167 0.500857 0.531990 0.387784
C211  C     C_R   0.507046 0.000417 0.467948 0.394987
C212  C     C_R   0.508486 0.000483 0.531210 0.380192
C213  C     C_R   0.499719 0.986179 0.968716 0.388395
C214  C     C_R   0.500469 0.988017 0.032003 0.395088
C215  C     C_R   0.996705 0.501468 0.967965 0.389308
C216  C     C_R   0.995980 0.501184 0.031249 0.369602
C217  C     C_R   0.500180 0.000039 0.334203 0.500269
C218  C     C_R   0.563326 0.977972 0.115629 -0.153769
C219  C     C_R   0.500142 0.000037 0.665748 0.508772
C220  C     C_R   0.999993 0.499988 0.334207 0.509552
C221  C     C_R   0.999994 0.500059 0.665813 0.499376
C222  C     C_R   0.999893 0.500065 0.834180 0.500393
C223  C     C_R   0.000042 0.499966 0.165783 0.508930
C224  C     C_R   0.499872 0.999394 0.834279 0.507771
C225  C     C_R   0.500033 0.999435 0.165796 0.499868
C226  C     C_R   0.359818 0.140021 0.250047 0.500072
C227  C     C_R   0.640290 0.859906 0.749972 0.533473
C228  C     C_R   0.859629 0.360063 0.249888 0.511465
C229  C     C_R   0.433598 0.998272 0.885017 -0.156918
C230  C     C_R   0.140392 0.639736 0.750225 0.500157
C231  C     C_R   0.640079 0.859932 0.249994 0.497430
C232  C     C_R   0.360154 0.140546 0.750170 0.534652
C233  C     C_R   0.140239 0.640062 0.249981 0.513345
C234  C     C_R   0.859912 0.360061 0.750065 0.499225
C235  C     C_R   0.360468 0.859216 0.750361 0.510756
C236  C     C_R   0.640184 0.139935 0.250051 0.502617
C237  C     C_R   0.860170 0.640342 0.749963 0.495458
C238  C     C_R   0.140152 0.359807 0.249988 0.536250
C239  C     C_R   0.640156 0.140184 0.749968 0.508467
C240  C     C_R   0.006531 0.564938 0.115319 -0.144039
C241  C     C_R   0.360180 0.859761 0.249914 0.501125
C242  C     C_R   0.140159 0.360038 0.750015 0.497122
C243  C     C_R   0.859729 0.640083 0.249928 0.536816
C244  C     C_R   0.239287 0.813814 0.232818 0.224355
C245  C     C_R   0.755950 0.191734 0.770661 0.223748
C246  C     C_R   0.197826 0.250586 0.225871 0.215371
C247  C     C_R   0.801570 0.748371 0.774453 0.215852
C248  C     C_R   0.761236 0.186181 0.232563 0.224837
C249  C     C_R   0.247709 0.804867 0.772953 0.226645
C250  C     C_R   0.800098 0.747260 0.224990 0.213481
C251  C     C_R   0.015342 0.437196 0.884778 -0.154735
C252  C     C_R   0.201644 0.255474 0.775485 0.213540
C253  C     C_R   0.253242 0.200791 0.774990 0.212425
C254  C     C_R   0.744684 0.798184 0.224374 0.214363
C255  C     C_R   0.188762 0.758844 0.768890 0.225950
C256  C     C_R   0.807439 0.245004 0.228553 0.223736
C257  C     C_R   0.750384 0.803502 0.773768 0.214133
C258  C     C_R   0.252546 0.198951 0.225525 0.217649
C259  C     C_R   0.814348 0.238524 0.766873 0.221318
C260  C     C_R   0.191480 0.756126 0.229335 0.219025
C261  C     C_R   0.736646 0.316277 0.734572 0.227545
C262  C     C_R   0.937183 0.519713 0.615431 -0.159543
C263  C     C_R   0.257336 0.690282 0.270134 0.222726
C264  C     C_R   0.700155 0.752537 0.725174 0.214615
C265  C     C_R   0.298610 0.245384 0.275552 0.213566
C266  C     C_R   0.264247 0.682463 0.735128 0.218555
C267  C     C_R   0.742884 0.309486 0.270166 0.222745
C268  C     C_R   0.303173 0.250337 0.726216 0.212409
C269  C     C_R   0.701276 0.754766 0.275319 0.214500
C270  C     C_R   0.752053 0.699280 0.274530 0.213325
C271  C     C_R   0.246995 0.300358 0.725141 0.212762
C272  C     C_R   0.685258 0.261676 0.266746 0.223528
H1    H     H_    0.389342 0.026031 0.128223 0.123385
H2    H     H_    0.114177 0.518198 0.371691 0.127898
H3    H     H_    0.860278 0.334274 0.120526 0.149839
H4    H     H_    0.737915 0.957395 0.805088 0.191267
H5    H     H_    0.778457 0.932097 0.768651 0.125186
H6    H     H_    0.851012 0.904857 0.832478 0.182545
H7    H     H_    0.890923 0.900747 0.794313 0.177902
H8    H     H_    0.860887 0.034678 0.787591 0.194472
H9    H     H_    0.926791 0.016296 0.817712 0.134062
H10   H     H_    0.834502 0.036434 0.827967 0.170469
H11   H     H_    0.334043 0.108522 0.174595 0.179680
H12   H     H_    0.352055 0.197946 0.188918 0.101507
H13   H     H_    0.492238 0.886195 0.628392 0.126278
H14   H     H_    0.237848 0.152680 0.139959 0.158160
H15   H     H_    0.252068 0.244194 0.153828 0.206481
H16   H     H_    0.381423 0.238498 0.134900 0.148144
H17   H     H_    0.316548 0.225285 0.103814 0.159142
H18   H     H_    0.364466 0.149119 0.119795 0.155245
H19   H     H_    0.983896 0.244532 0.773262 0.211443
H20   H     H_    0.929363 0.236274 0.738755 0.103182
H21   H     H_    0.970696 0.112981 0.783482 0.173818
H22   H     H_    0.919187 0.104475 0.747553 0.158133
H23   H     H_    0.026891 0.157363 0.718174 0.140088
H24   H     H_    0.474848 0.111588 0.371437 0.123138
H25   H     H_    0.048427 0.074181 0.738304 0.143554
H26   H     H_    0.076810 0.160207 0.754159 0.167938
H27   H     H_    0.084579 0.703246 0.175389 0.159633
H28   H     H_    0.169528 0.666934 0.187608 0.121172
H29   H     H_    0.154915 0.810627 0.151575 0.183516
H30   H     H_    0.236334 0.760746 0.159942 0.169766
H31   H     H_    0.178457 0.652683 0.129439 0.153827
H32   H     H_    0.202814 0.730898 0.106489 0.157365
H33   H     H_    0.109664 0.715732 0.117255 0.150707
H34   H     H_    0.748022 0.485396 0.731831 0.212835
H35   H     H_    0.109262 0.465539 0.628653 0.121480
H36   H     H_    0.740928 0.427471 0.765460 0.101096
H37   H     H_    0.617222 0.484920 0.725126 0.172131
H38   H     H_    0.607618 0.426682 0.759042 0.159414
H39   H     H_    0.673998 0.522670 0.791096 0.139908
H40   H     H_    0.589736 0.554411 0.774706 0.146387
H41   H     H_    0.674786 0.580429 0.757282 0.153383
H42   H     H_    0.203925 0.586873 0.325222 0.157025
H43   H     H_    0.168925 0.671534 0.312322 0.120443
H44   H     H_    0.312036 0.653540 0.348836 0.178520
H45   H     H_    0.268859 0.737214 0.338259 0.175976
H46   H     H_    0.885992 0.481094 0.371754 0.127033
H47   H     H_    0.156755 0.695666 0.369420 0.151421
H48   H     H_    0.237001 0.709601 0.392664 0.155379
H49   H     H_    0.209206 0.619335 0.382412 0.152053
H50   H     H_    0.545082 0.758230 0.693479 0.184684
H51   H     H_    0.571098 0.725797 0.731228 0.130207
H52   H     H_    0.600588 0.642021 0.670279 0.185355
H53   H     H_    0.610594 0.611710 0.709932 0.175119
H54   H     H_    0.475216 0.636117 0.717969 0.189696
H55   H     H_    0.495118 0.564900 0.690401 0.133398
H56   H     H_    0.468800 0.652752 0.676578 0.173346
H57   H     H_    0.514825 0.114391 0.628798 0.124939
H58   H     H_    0.391367 0.167802 0.328137 0.173511
H59   H     H_    0.310772 0.138380 0.308660 0.110126
H60   H     H_    0.320361 0.251739 0.361363 0.166764
H61   H     H_    0.238212 0.224149 0.341709 0.193398
H62   H     H_    0.261002 0.094939 0.358561 0.145398
H63   H     H_    0.251883 0.155835 0.391251 0.154739
H64   H     H_    0.340158 0.124729 0.379445 0.151776
H65   H     H_    0.257978 0.512064 0.728586 0.209403
H66   H     H_    0.257756 0.567088 0.763006 0.107023
H67   H     H_    0.390277 0.524209 0.724045 0.169983
H68   H     H_    0.530142 0.888894 0.371108 0.123361
H69   H     H_    0.391391 0.582747 0.758008 0.162870
H70   H     H_    0.336196 0.482449 0.790063 0.139922
H71   H     H_    0.420866 0.455069 0.772538 0.147260
H72   H     H_    0.335959 0.424295 0.756388 0.156042
H73   H     H_    0.796742 0.413080 0.325020 0.157999
H74   H     H_    0.831212 0.327871 0.312229 0.119664
H75   H     H_    0.688252 0.347424 0.348593 0.177582
H76   H     H_    0.731410 0.263259 0.338454 0.175792
H77   H     H_    0.842986 0.305343 0.369688 0.151900
H78   H     H_    0.762199 0.292761 0.392852 0.160065
H79   H     H_    0.229061 0.986192 0.225371 0.197234
H80   H     H_    0.790757 0.382462 0.382099 0.151146
H81   H     H_    0.460307 0.242454 0.696564 0.188295
H82   H     H_    0.431233 0.275024 0.733979 0.126245
H83   H     H_    0.419787 0.356726 0.671385 0.166234
H84   H     H_    0.389557 0.388723 0.708904 0.192365
H85   H     H_    0.526809 0.355720 0.726377 0.180150
H86   H     H_    0.505914 0.440301 0.707177 0.124293
H87   H     H_    0.544367 0.366343 0.684973 0.193843
H88   H     H_    0.610694 0.832472 0.328848 0.171845
H89   H     H_    0.689715 0.862466 0.308413 0.108872
H90   H     H_    0.241867 0.932581 0.259501 0.114572
H91   H     H_    0.686265 0.746359 0.360115 0.172653
H92   H     H_    0.765924 0.779362 0.340183 0.189916
H93   H     H_    0.734621 0.907003 0.359226 0.144658
H94   H     H_    0.754539 0.843893 0.390149 0.156230
H95   H     H_    0.662043 0.867842 0.381807 0.161264
H96   H     H_    0.762602 0.546378 0.307185 0.183891
H97   H     H_    0.723164 0.570946 0.270509 0.128447
H98   H     H_    0.652605 0.597688 0.334945 0.172941
H99   H     H_    0.612856 0.612246 0.297076 0.187667
H100  H     H_    0.637258 0.476422 0.285826 0.185218
H101  H     H_    0.100340 0.956400 0.223602 0.167284
H102  H     H_    0.568648 0.495719 0.314668 0.131552
H103  H     H_    0.657591 0.467635 0.326719 0.171954
H104  H     H_    0.174535 0.389872 0.669351 0.165754
H105  H     H_    0.139360 0.315806 0.691519 0.114147
H106  H     H_    0.259148 0.305733 0.641621 0.177913
H107  H     H_    0.222106 0.231025 0.663663 0.185365
H108  H     H_    0.097157 0.261567 0.642241 0.144411
H109  H     H_    0.161513 0.236308 0.612466 0.158737
H110  H     H_    0.138683 0.330241 0.618208 0.157193
H111  H     H_    0.515226 0.256968 0.273624 0.208287
H112  H     H_    0.613693 0.980961 0.871597 0.131452
H113  H     H_    0.110792 0.892038 0.255232 0.170732
H114  H     H_    0.569770 0.262095 0.239069 0.105871
H115  H     H_    0.528182 0.387651 0.282454 0.171743
H116  H     H_    0.585238 0.394598 0.248071 0.164537
H117  H     H_    0.483949 0.346026 0.215101 0.140910
H118  H     H_    0.456232 0.426317 0.236068 0.146826
H119  H     H_    0.427243 0.337922 0.249062 0.159925
H120  H     H_    0.409249 0.784167 0.672010 0.144234
H121  H     H_    0.332295 0.828105 0.688367 0.129532
H122  H     H_    0.330715 0.681147 0.653896 0.181729
H123  H     H_    0.252796 0.725715 0.670274 0.178377
H124  H     H_    0.156340 0.997524 0.289206 0.140555
H125  H     H_    0.279498 0.835296 0.635969 0.149240
H126  H     H_    0.258555 0.754002 0.614407 0.153881
H127  H     H_    0.351051 0.783998 0.617834 0.141275
H128  H     H_    0.238094 0.455023 0.306483 0.184764
H129  H     H_    0.277369 0.428945 0.269920 0.127692
H130  H     H_    0.347803 0.404855 0.334549 0.171819
H131  H     H_    0.387548 0.388157 0.296854 0.188872
H132  H     H_    0.362073 0.524336 0.284702 0.185598
H133  H     H_    0.432827 0.505257 0.312520 0.130359
H134  H     H_    0.345240 0.534453 0.325802 0.174029
H135  H     H_    0.063262 0.005148 0.276777 0.147059
H136  H     H_    0.843460 0.615782 0.672149 0.173152
H137  H     H_    0.869879 0.694104 0.693968 0.108377
H138  H     H_    0.769910 0.689746 0.636643 0.156678
H139  H     H_    0.789164 0.769915 0.659413 0.189319
H140  H     H_    0.922226 0.754397 0.648432 0.143063
H141  H     H_    0.870393 0.762644 0.612902 0.158671
H142  H     H_    0.902598 0.675180 0.625389 0.147705
H143  H     H_    0.485365 0.742890 0.273784 0.208504
H144  H     H_    0.431130 0.738418 0.239150 0.105724
H145  H     H_    0.472676 0.612302 0.281982 0.171289
H146  H     H_    0.132669 0.057897 0.257716 0.150002
H147  H     H_    0.414962 0.605835 0.247767 0.165014
H148  H     H_    0.516512 0.656320 0.214902 0.140582
H149  H     H_    0.542289 0.573674 0.234505 0.146721
H150  H     H_    0.573698 0.660171 0.248855 0.159010
H151  H     H_    0.592549 0.197214 0.674296 0.159808
H152  H     H_    0.676090 0.163884 0.689556 0.122521
H153  H     H_    0.656287 0.295158 0.646199 0.166966
H154  H     H_    0.741625 0.266728 0.662747 0.179488
H155  H     H_    0.726820 0.144239 0.637297 0.147545
H156  H     H_    0.725349 0.216444 0.608894 0.161942
H157  H     H_    0.705580 0.095082 0.829304 0.149183
H158  H     H_    0.642230 0.173188 0.620675 0.151841
H159  H     H_    0.265857 0.034382 0.061547 0.162852
H160  H     H_    0.298621 0.049568 0.099423 0.109101
H161  H     H_    0.303061 0.902899 0.063367 0.189824
H162  H     H_    0.328987 0.914682 0.103537 0.159446
H163  H     H_    0.203085 0.953415 0.117129 0.155240
H164  H     H_    0.205193 0.864261 0.099838 0.150465
H165  H     H_    0.176299 0.940409 0.076840 0.145020
H166  H     H_    0.727735 0.011520 0.940686 0.163023
H167  H     H_    0.688031 0.035137 0.904680 0.098565
H168  H     H_    0.662213 0.170679 0.811404 0.127796
H169  H     H_    0.737886 0.881170 0.924740 0.184870
H170  H     H_    0.703152 0.903297 0.886805 0.164215
H171  H     H_    0.807554 0.986516 0.877614 0.142508
H172  H     H_    0.838255 0.896663 0.887552 0.139089
H173  H     H_    0.842332 0.967834 0.916257 0.145065
H174  H     H_    0.989817 0.259702 0.063564 0.161542
H175  H     H_    0.967591 0.293658 0.100460 0.103070
H176  H     H_    0.116394 0.306451 0.066550 0.181609
H177  H     H_    0.099752 0.339649 0.105353 0.164250
H178  H     H_    0.071404 0.215478 0.123641 0.148245
H179  H     H_    0.803538 0.177138 0.849802 0.181117
H180  H     H_    0.160147 0.219879 0.106145 0.149034
H181  H     H_    0.086111 0.180066 0.084800 0.140620
H182  H     H_    0.969851 0.737142 0.937628 0.162538
H183  H     H_    0.959585 0.706476 0.899078 0.106239
H184  H     H_    0.096285 0.685577 0.940682 0.191804
H185  H     H_    0.090189 0.661385 0.900066 0.158829
H186  H     H_    0.069011 0.791056 0.885927 0.157122
H187  H     H_    0.153507 0.778399 0.906299 0.148652
H188  H     H_    0.076817 0.815889 0.926649 0.144926
H189  H     H_    0.734943 0.952971 0.062395 0.162157
H190  H     H_    0.758146 0.253349 0.832162 0.171842
H191  H     H_    0.704175 0.946776 0.101075 0.107452
H192  H     H_    0.688477 0.081166 0.057717 0.190188
H193  H     H_    0.664956 0.079191 0.098471 0.158904
H194  H     H_    0.793948 0.053628 0.112436 0.156374
H195  H     H_    0.784200 0.137076 0.091067 0.148153
H196  H     H_    0.818052 0.057593 0.071514 0.143924
H197  H     H_    0.258909 0.987916 0.936663 0.166225
H198  H     H_    0.294786 0.970904 0.899570 0.098025
H199  H     H_    0.310674 0.119237 0.933387 0.191111
H200  H     H_    0.321956 0.102291 0.892319 0.153564
H201  H     H_    0.644969 0.221246 0.863812 0.148493
H202  H     H_    0.188256 0.066941 0.889718 0.138345
H203  H     H_    0.204727 0.160295 0.901016 0.144689
H204  H     H_    0.179726 0.094263 0.930143 0.147347
H205  H     H_    0.974728 0.735642 0.062317 0.162732
H206  H     H_    0.984895 0.707727 0.101313 0.102559
H207  H     H_    0.868239 0.649246 0.055347 0.184481
H208  H     H_    0.873066 0.629447 0.096437 0.156746
H209  H     H_    0.857747 0.762417 0.108424 0.146177
H210  H     H_    0.781890 0.723634 0.087691 0.154015
H211  H     H_    0.846400 0.779246 0.067146 0.147966
H212  H     H_    0.722099 0.246747 0.887285 0.152482
H213  H     H_    0.033121 0.265516 0.938338 0.162303
H214  H     H_    0.047120 0.296807 0.900130 0.105765
H215  H     H_    0.903637 0.309332 0.938256 0.188805
H216  H     H_    0.913598 0.334036 0.897848 0.158693
H217  H     H_    0.944233 0.206275 0.884002 0.155918
H218  H     H_    0.856905 0.213091 0.902808 0.147196
H219  H     H_    0.933754 0.180534 0.924517 0.144035
H220  H     H_    0.775200 0.585661 0.564333 0.159480
H221  H     H_    0.820260 0.596449 0.600003 0.108234
H222  H     H_    0.760452 0.452398 0.571291 0.183068
H223  H     H_    0.985716 0.386009 0.128606 0.123188
H224  H     H_    0.697482 0.152583 0.883375 0.138006
H225  H     H_    0.803459 0.457351 0.608713 0.164830
H226  H     H_    0.706276 0.542631 0.627695 0.161774
H227  H     H_    0.670188 0.456545 0.614747 0.150941
H228  H     H_    0.661918 0.535191 0.590121 0.139373
H229  H     H_    0.236926 0.477276 0.437244 0.161979
H230  H     H_    0.210077 0.493982 0.398670 0.102600
H231  H     H_    0.154972 0.367570 0.440632 0.181942
H232  H     H_    0.132503 0.379118 0.400190 0.159674
H233  H     H_    0.263819 0.367728 0.385670 0.152743
H234  H     H_    0.230117 0.288688 0.405743 0.150388
H235  H     H_    0.046228 0.262240 0.191817 0.184391
H236  H     H_    0.286143 0.352739 0.426210 0.142274
H237  H     H_    0.500494 0.760033 0.563711 0.162907
H238  H     H_    0.468669 0.797646 0.598683 0.100794
H239  H     H_    0.628566 0.799150 0.574687 0.179336
H240  H     H_    0.600938 0.832245 0.612180 0.165934
H241  H     H_    0.554488 0.707354 0.625896 0.144887
H242  H     H_    0.650476 0.710030 0.617972 0.157274
H243  H     H_    0.589214 0.674639 0.589009 0.137880
H244  H     H_    0.450531 0.233937 0.437069 0.160000
H245  H     H_    0.433061 0.194507 0.400652 0.107843
H246  H     H_    0.068098 0.224974 0.229289 0.130253
H247  H     H_    0.584180 0.219751 0.431359 0.186195
H248  H     H_    0.572132 0.182338 0.393051 0.162765
H249  H     H_    0.511812 0.295989 0.375309 0.158492
H250  H     H_    0.601464 0.313110 0.390396 0.148560
H251  H     H_    0.523405 0.334436 0.413854 0.141566
H252  H     H_    0.233997 0.452189 0.562624 0.161856
H253  H     H_    0.199981 0.438734 0.600390 0.106613
H254  H     H_    0.202194 0.584260 0.563496 0.187727
H255  H     H_    0.172442 0.575357 0.603265 0.159145
H256  H     H_    0.295573 0.533999 0.619270 0.157363
H257  H     H_    0.099722 0.146932 0.166962 0.177821
H258  H     H_    0.298040 0.621831 0.600948 0.147437
H259  H     H_    0.326556 0.543213 0.579378 0.144332
H260  H     H_    0.763568 0.517964 0.437859 0.163623
H261  H     H_    0.791036 0.505310 0.398992 0.101731
H262  H     H_    0.845892 0.627529 0.443088 0.183681
H263  H     H_    0.866369 0.620095 0.402151 0.158513
H264  H     H_    0.734249 0.631842 0.389278 0.148743
H265  H     H_    0.768716 0.709112 0.410374 0.152408
H266  H     H_    0.714399 0.642629 0.430340 0.145398
H267  H     H_    0.517306 0.240310 0.563570 0.164041
H268  H     H_    0.105490 0.111372 0.205978 0.180031
H269  H     H_    0.531858 0.207247 0.601288 0.102526
H270  H     H_    0.391105 0.190646 0.561935 0.182304
H271  H     H_    0.400392 0.160287 0.601636 0.161903
H272  H     H_    0.422170 0.286206 0.619662 0.150980
H273  H     H_    0.338086 0.279700 0.598280 0.146958
H274  H     H_    0.416736 0.318635 0.579890 0.141147
H275  H     H_    0.545519 0.764926 0.437215 0.161935
H276  H     H_    0.557036 0.798042 0.399223 0.107116
H277  H     H_    0.414430 0.802251 0.438313 0.189801
H278  H     H_    0.421423 0.829686 0.398206 0.159250
H279  H     H_    0.969180 0.143053 0.211510 0.192613
H280  H     H_    0.456967 0.703936 0.382833 0.155835
H281  H     H_    0.370239 0.706341 0.402125 0.149087
H282  H     H_    0.448752 0.675577 0.423099 0.144762
H283  H     H_    0.990692 0.069394 0.185424 0.132146
H284  H     H_    0.968780 0.157101 0.169998 0.167148
H285  H     H_    0.893807 0.678478 0.829655 0.168308
H286  H     H_    0.815421 0.644730 0.809869 0.110958
H287  H     H_    0.968077 0.611104 0.871150 0.123639
H288  H     H_    0.815668 0.770715 0.857395 0.177260
H289  H     H_    0.737438 0.730669 0.838814 0.189471
H290  H     H_    0.773411 0.608816 0.862805 0.143988
H291  H     H_    0.749519 0.677656 0.890884 0.161528
H292  H     H_    0.843299 0.656045 0.884134 0.161101
H293  H     H_    0.756246 0.016573 0.225821 0.209370
H294  H     H_    0.764941 0.070947 0.260364 0.103313
H295  H     H_    0.886329 0.026531 0.215040 0.170754
H296  H     H_    0.897543 0.083316 0.249308 0.162521
H297  H     H_    0.848837 0.982258 0.282762 0.140354
H298  H     H_    0.610544 0.964287 0.129101 0.122322
H299  H     H_    0.928051 0.954629 0.261002 0.145181
H300  H     H_    0.838905 0.926145 0.248706 0.162443
H301  H     H_    0.312212 0.904936 0.826742 0.163054
H302  H     H_    0.345072 0.821327 0.811265 0.119420
H303  H     H_    0.216581 0.839823 0.856585 0.170298
H304  H     H_    0.248485 0.754749 0.840940 0.177490
H305  H     H_    0.371804 0.779077 0.864758 0.149952
H306  H     H_    0.300831 0.776448 0.893744 0.156440
H307  H     H_    0.337579 0.861966 0.881138 0.153011
H308  H     H_    0.952704 0.735743 0.192372 0.183211
H309  H     H_    0.384475 0.003638 0.871622 0.124344
H310  H     H_    0.927989 0.777533 0.228611 0.127662
H311  H     H_    0.903803 0.844208 0.163092 0.169802
H312  H     H_    0.887548 0.886849 0.200347 0.189481
H313  H     H_    0.022841 0.860104 0.212724 0.183942
H314  H     H_    0.004770 0.929709 0.184176 0.132683
H315  H     H_    0.032825 0.840893 0.171762 0.170804
H316  H     H_    0.108606 0.329280 0.829549 0.171183
H317  H     H_    0.186455 0.362360 0.809125 0.109863
H318  H     H_    0.188848 0.241264 0.858600 0.177110
H319  H     H_    0.266190 0.282178 0.839637 0.185868
H320  H     H_    0.015988 0.614186 0.128251 0.128102
H321  H     H_    0.224581 0.405113 0.861815 0.144173
H322  H     H_    0.252101 0.339711 0.890773 0.159247
H323  H     H_    0.157328 0.356209 0.884059 0.159307
H324  H     H_    0.264590 0.048152 0.805966 0.187017
H325  H     H_    0.218185 0.074861 0.771132 0.124870
H326  H     H_    0.163062 0.095252 0.838734 0.168885
H327  H     H_    0.113574 0.116166 0.803838 0.195404
H328  H     H_    0.174266 0.964371 0.818394 0.201639
H329  H     H_    0.112996 0.991044 0.787316 0.152592
H330  H     H_    0.083782 0.991988 0.827679 0.139038
H331  H     H_    0.029983 0.389729 0.871617 0.122834
H332  H     H_    0.669172 0.888910 0.170093 0.169077
H333  H     H_    0.636241 0.812684 0.191517 0.110271
H334  H     H_    0.754434 0.806970 0.140688 0.177434
H335  H     H_    0.715864 0.730777 0.161243 0.186115
H336  H     H_    0.590933 0.769754 0.140466 0.144031
H337  H     H_    0.654083 0.740257 0.110993 0.155756
H338  H     H_    0.637565 0.835397 0.116581 0.166538
H339  H     H_    0.018085 0.760220 0.775412 0.207158
H340  H     H_    0.073391 0.763173 0.741083 0.106263
H341  H     H_    0.036263 0.889425 0.784593 0.173262
H342  H     H_    0.890279 0.533853 0.629085 0.122793
H343  H     H_    0.096897 0.894380 0.751171 0.168146
H344  H     H_    0.996182 0.854124 0.716043 0.140885
H345  H     H_    0.970252 0.934018 0.737724 0.145426
H346  H     H_    0.935987 0.846149 0.748950 0.161089
H347  H     H_    0.906408 0.308892 0.174352 0.162325
H348  H     H_    0.821020 0.339408 0.188998 0.118343
H349  H     H_    0.847376 0.210643 0.144644 0.165922
H350  H     H_    0.760152 0.236432 0.160237 0.183529
H351  H     H_    0.773284 0.359463 0.135884 0.148103
H352  H     H_    0.779919 0.288643 0.106942 0.156434
N1    N     N_R   0.557118 0.015516 0.015634 -0.194402
N2    N     N_R   0.943079 0.472859 0.485007 -0.165264
N3    N     N_R   0.541385 0.054249 0.514840 -0.164127
N4    N     N_R   0.474142 0.946572 0.484104 -0.192405
N5    N     N_R   0.942878 0.473631 0.515983 -0.177160
N6    N     N_R   0.057547 0.526580 0.484858 -0.167853
N7    N     N_R   0.474626 0.946830 0.515118 -0.172224
N8    N     N_R   0.540521 0.054388 0.483904 -0.182553
N9    N     N_R   0.443344 0.958305 0.985212 -0.165533
N10   N     N_R   0.025019 0.557490 0.015147 -0.167789
N11   N     N_R   0.967427 0.445219 0.983903 -0.190073
N12   N     N_R   0.443590 0.959337 0.016152 -0.186881
N13   N     N_R   0.556634 0.014777 0.984650 -0.186938
N14   N     N_R   0.966932 0.445252 0.014880 -0.167495
N15   N     N_R   0.025252 0.557781 0.984152 -0.191848
N16   N     N_R   0.057607 0.527205 0.515821 -0.190297
O1    O     O_3   0.500000 0.000000 0.250000 -0.441250
O2    O     O_R   0.500000 0.939250 0.680570 -0.556107
O3    O     O_3   0.539233 0.874653 0.434832 -0.554688
O4    O     O_R   0.939250 0.500000 0.319430 -0.559452
O5    O     O_R   0.060750 0.500000 0.680570 -0.553369
O6    O     O_R   1.000000 0.439250 0.819430 -0.554933
O7    O     O_R   1.000000 0.560750 0.180570 -0.560534
O8    O     O_R   0.560750 0.000000 0.819430 -0.558063
O9    O     O_R   0.439250 1.000000 0.180570 -0.556237
O10   O     O_R   1.000000 0.560750 0.819430 -0.553635
O11   O     O_R   1.000000 0.439250 0.180570 -0.560981
O12   O     O_R   0.439250 0.000000 0.819430 -0.562094
O13   O     O_3   0.500000 0.000000 0.750000 -0.437575
O14   O     O_R   0.560750 1.000000 0.180570 -0.553397
O15   O     O_R   0.414500 0.146140 0.268270 -0.545070
O16   O     O_R   0.585500 0.853860 0.731730 -0.539039
O17   O     O_R   0.853860 0.414500 0.268270 -0.536372
O18   O     O_R   0.146140 0.585500 0.731730 -0.531339
O19   O     O_R   0.585500 0.853860 0.268270 -0.542908
O20   O     O_R   0.414500 0.146140 0.731730 -0.538640
O21   O     O_R   0.146140 0.585500 0.268270 -0.536517
O22   O     O_R   0.853860 0.414500 0.731730 -0.534673
O23   O     O_R   0.414500 0.853860 0.731730 -0.532834
O24   O     O_3   1.000000 0.500000 0.250000 -0.437018
O25   O     O_R   0.585500 0.146140 0.268270 -0.531678
O26   O     O_R   0.853860 0.585500 0.731730 -0.545265
O27   O     O_R   0.146140 0.414500 0.268270 -0.539008
O28   O     O_R   0.585500 0.146140 0.731730 -0.540591
O29   O     O_R   0.414500 0.853860 0.268270 -0.533319
O30   O     O_R   0.146140 0.414500 0.731730 -0.542064
O31   O     O_R   0.853860 0.585500 0.268270 -0.539309
O32   O     O_R   0.914500 0.646140 0.768270 -0.539331
O33   O     O_R   0.085500 0.353860 0.231730 -0.539892
O34   O     O_R   0.353860 0.914500 0.768270 -0.537054
O35   O     O_3   0.000000 0.500000 0.750000 -0.440929
O36   O     O_R   0.646140 0.085500 0.231730 -0.533219
O37   O     O_R   0.085500 0.353860 0.768270 -0.541704
O38   O     O_R   0.914500 0.646140 0.231730 -0.540734
O39   O     O_R   0.646140 0.085500 0.768270 -0.532836
O40   O     O_R   0.353860 0.914500 0.231730 -0.523931
O41   O     O_R   0.914500 0.353860 0.231730 -0.537809
O42   O     O_R   0.085500 0.646140 0.768270 -0.531375
O43   O     O_R   0.353860 0.085500 0.231730 -0.538148
O44   O     O_R   0.646140 0.914500 0.768270 -0.539570
O45   O     O_R   0.085500 0.646140 0.231730 -0.537737
O46   O     O_R   0.500000 0.939250 0.319430 -0.554405
O47   O     O_R   0.914500 0.353860 0.768270 -0.533583
O48   O     O_R   0.646140 0.914500 0.231730 -0.542006
O49   O     O_R   0.353860 0.085500 0.768270 -0.540834
O50   O     O_3   0.224003 0.877105 0.216567 -0.519836
O51   O     O_3   0.762805 0.136542 0.792390 -0.539782
O52   O     O_3   0.154892 0.255491 0.199326 -0.545677
O53   O     O_3   0.852330 0.750433 0.798383 -0.541717
O54   O     O_3   0.777658 0.123127 0.216164 -0.520309
O55   O     O_3   0.241919 0.858489 0.795571 -0.538575
O56   O     O_3   0.843297 0.742022 0.198497 -0.541154
O57   O     O_R   0.500000 0.060750 0.680570 -0.558724
O58   O     O_3   0.151695 0.254576 0.799769 -0.546381
O59   O     O_3   0.258437 0.157536 0.801347 -0.542648
O60   O     O_3   0.744647 0.847028 0.199719 -0.542346
O61   O     O_3   0.125739 0.775067 0.785288 -0.518433
O62   O     O_3   0.861492 0.238844 0.206098 -0.536544
O63   O     O_3   0.746505 0.848152 0.799878 -0.544909
O64   O     O_3   0.251591 0.148490 0.201446 -0.541644
O65   O     O_3   0.877660 0.222005 0.782999 -0.524522
O66   O     O_3   0.134112 0.765300 0.208747 -0.540624
O67   O     O_3   0.717290 0.381707 0.720651 -0.519877
O68   O     O_R   0.060750 0.500000 0.319430 -0.559146
O69   O     O_3   0.265914 0.633449 0.291044 -0.539338
O70   O     O_3   0.654640 0.755411 0.699377 -0.533946
O71   O     O_3   0.347702 0.245850 0.300181 -0.543275
O72   O     O_3   0.280476 0.618517 0.719409 -0.526394
O73   O     O_3   0.734270 0.366356 0.291062 -0.538565
O74   O     O_3   0.349967 0.248374 0.700751 -0.537079
O75   O     O_3   0.652620 0.754984 0.300103 -0.542439
O76   O     O_3   0.757166 0.655746 0.300895 -0.540533
O77   O     O_3   0.247473 0.349559 0.700607 -0.539195
O78   O     O_3   0.622044 0.277350 0.283115 -0.523097
O79   O     O_R   0.939250 0.500000 0.680570 -0.554439
O80   O     O_3   0.368455 0.732050 0.710385 -0.539335
O81   O     O_3   0.243318 0.345354 0.300860 -0.540005
O82   O     O_3   0.760397 0.658013 0.697989 -0.532903
O83   O     O_3   0.378365 0.722336 0.283029 -0.523416
O84   O     O_3   0.636957 0.264289 0.707332 -0.538745
O85   O     O_3   0.375555 0.027801 0.064365 -0.553640
O86   O     O_3   0.627740 0.965953 0.934736 -0.548174
O87   O     O_3   0.986520 0.369737 0.064708 -0.547070
O88   O     O_3   0.964478 0.627330 0.934354 -0.556520
O89   O     O_3   0.625106 0.952882 0.065845 -0.555320
O90   O     O_R   0.500000 0.060750 0.319430 -0.556059
O91   O     O_3   0.368606 0.994169 0.935976 -0.550997
O92   O     O_3   0.009402 0.631483 0.066282 -0.548628
O93   O     O_3   0.032218 0.375438 0.935254 -0.554158
O94   O     O_3   0.875314 0.539275 0.564480 -0.551266
O95   O     O_3   0.131917 0.510459 0.433803 -0.547281
O96   O     O_3   0.506072 0.870000 0.564289 -0.547388
O97   O     O_3   0.473942 0.126542 0.435890 -0.553927
O98   O     O_3   0.124392 0.461791 0.564992 -0.554155
O99   O     O_3   0.868897 0.486282 0.433982 -0.546576
O100  O     O_3   0.521565 0.130541 0.565038 -0.548446
Zn1   Zn    Zn3+2 0.413200 1.000000 0.224130 0.908181
Zn2   Zn    Zn3+2 0.086800 0.500000 0.275870 0.909239
Zn3   Zn    Zn3+2 0.500000 0.913200 0.724130 0.912002
Zn4   Zn    Zn3+2 0.500000 0.086800 0.275870 0.903248
Zn5   Zn    Zn3+2 0.086800 0.500000 0.724130 0.904745
Zn6   Zn    Zn3+2 0.913200 0.500000 0.275870 0.908626
Zn7   Zn    Zn3+2 0.500000 0.086800 0.724130 0.908079
Zn8   Zn    Zn3+2 0.500000 0.913200 0.275870 0.903455
Zn9   Zn    Zn3+2 0.586800 0.000000 0.775870 0.908860
Zn10  Zn    Zn3+2 1.000000 0.413200 0.224130 0.907486
Zn11  Zn    Zn3+2 0.000000 0.586800 0.775870 0.904810
Zn12  Zn    Zn3+2 0.586800 1.000000 0.224130 0.904618
Zn13  Zn    Zn3+2 0.413200 0.000000 0.775870 0.906469
Zn14  Zn    Zn3+2 1.000000 0.586800 0.224130 0.907095
Zn15  Zn    Zn3+2 1.000000 0.413200 0.775870 0.902473
Zn16  Zn    Zn3+2 0.913200 0.500000 0.724130 0.904479

loop_
_geom_bond_atom_site_label_1
_geom_bond_atom_site_label_2
_ccdc_geom_bond_type
C209  N2    A    
C224  O12   A    
C46   C205  A    
C85   H29   S    
O42   Zn11  S    
C92   H44   S    
C74   H5    S    
C28   C216  S    
C126  C127  S    
C12   C256  A    
C10   C265  A    
C200  C218  A    
C51   H301  S    
C55   C56   S    
C254  O60   S    
C21   C247  A    
C255  O61   S    
C252  O58   S    
C62   H326  S    
O1    Zn4   S    
C139  H154  S    
C3    O80   S    
C125  H120  S    
C76   H10   S    
C231  O48   A    
C186  H265  S    
C256  O62   S    
N3    N8    A    
C104  H73   S    
C6    C25   A    
C33   C199  A    
C199  O3    S    
C122  H115  S    
C108  C109  S    
C27   C90   A    
O12   Zn13  S    
C110  C111  S    
C192  H278  S    
O40   Zn1   S    
C72   H349  S    
C237  O32   A    
C60   H322  S    
C18   C250  A    
C84   O66   S    
C20   C236  S    
C180  H250  S    
O25   Zn4   S    
C3    C19   A    
C134  O83   S    
C226  O15   A    
C133  H141  S    
C61   C62   S    
C8    C233  S    
O22   Zn16  S    
C231  O19   A    
C59   C60   S    
C224  O8    A    
C219  O2    A    
O8    Zn9   S    
C96   H54   S    
C210  N16   A    
C142  H162  S    
C89   H39   S    
C59   H318  S    
C104  C105  S    
C247  C257  A    
C66   H337  S    
C45   C47   S    
C214  N12   A    
C48   H293  S    
C72   H350  S    
C154  H189  S    
C112  H112  S    
C76   H8    S    
O1    Zn8   S    
C51   C52   S    
C167  H221  S    
C82   H22   S    
C141  O85   S    
C72   C73   S    
C127  H127  S    
C218  H298  S    
C4    C265  A    
C143  H164  S    
C109  H85   S    
C211  N4    A    
C265  O71   S    
C105  H75   S    
C196  H223  S    
C79   O85   S    
C48   H294  S    
C75   C76   S    
O35   Zn5   S    
C108  H83   S    
C40   H201  S    
C156  H196  S    
C239  O28   A    
C178  C180  S    
C175  C176  S    
C31   C209  S    
C99   H64   S    
C114  H94   S    
C135  O91   S    
C137  H149  S    
O5    Zn5   S    
C162  H207  S    
O34   Zn13  S    
C53   H306  S    
C154  C155  S    
C64   O60   S    
C123  H117  S    
C100  O72   S    
C13   H13   S    
C65   H334  S    
O57   Zn7   S    
O68   Zn2   S    
C33   C194  A    
C249  C255  A    
C86   H32   S    
O41   Zn10  S    
C93   H47   S    
C52   H304  S    
C158  C159  S    
C1    C79   A    
C1    C200  A    
C24   C194  A    
C172  H232  S    
C49   H296  S    
C39   H190  S    
C91   C92   S    
C73   H352  S    
C141  H159  S    
C105  C106  S    
C25   C244  A    
C208  C217  S    
C177  H245  S    
C91   H43   S    
C227  O44   A    
O27   Zn2   S    
C169  H225  S    
C202  C223  S    
C144  C145  S    
C37   H124  S    
C165  H216  S    
C47   H291  S    
C139  C140  S    
C67   O61   S    
C206  C219  S    
C163  H210  S    
C17   C252  A    
C193  H282  S    
C50   H300  S    
C66   H338  S    
C223  O7    A    
C144  H167  S    
C140  H156  S    
C64   C65   S    
C237  O26   A    
C151  H182  S    
C80   H18   S    
C214  N1    A    
C226  O43   A    
C63   H330  S    
C98   H60   S    
C136  H145  S    
C77   H12   S    
C69   C70   S    
C81   H20   S    
C14   C230  S    
C177  O97   S    
C83   H26   S    
C131  H137  S    
O24   Zn10  S    
C88   C89   S    
C240  H320  S    
C98   C99   S    
C75   H7    S    
C155  C156  S    
C96   H56   S    
C13   C206  A    
C110  O75   S    
C82   C83   S    
C89   H41   S    
C93   H49   S    
C252  C253  A    
C127  H126  S    
C263  O69   S    
C21   C237  S    
C98   H61   S    
C213  N9    A    
C187  O100  S    
C71   H347  S    
C204  C221  S    
C58   O58   S    
C52   H303  S    
O16   Zn3   S    
C183  H259  S    
C244  C260  A    
C17   C271  A    
C128  C129  S    
C130  H133  S    
C97   C98   S    
C116  H99   S    
C153  H187  S    
C167  C169  S    
C85   C86   S    
C230  O18   A    
O47   Zn15  S    
C109  H87   S    
C193  H280  S    
C129  H130  S    
C271  O77   S    
C189  H273  S    
C11   C257  A    
C100  H66   S    
C36   C37   S    
C162  H208  S    
C51   O55   S    
C61   H324  S    
C202  C240  A    
C38   C39   S    
C70   H344  S    
C225  O14   A    
C29   C215  S    
C99   H62   S    
C115  C116  S    
C117  H100  S    
O1    Zn1   S    
C61   O59   S    
C184  C185  S    
C153  H186  S    
C119  H106  S    
C166  H219  S    
C43   H283  S    
C174  C175  S    
C126  H122  S    
N9    N12   A    
C183  H256  S    
C241  O29   A    
C182  C183  S    
C209  N6    A    
O23   Zn3   S    
C158  O91   S    
C246  O52   S    
O45   Zn14  S    
C267  C272  A    
C107  C108  S    
C110  H89   S    
C175  H239  S    
C234  O22   A    
C244  O50   S    
C173  H234  S    
C2    H2    S    
C102  H69   S    
C101  O87   S    
C101  C196  A    
C249  O55   S    
C95   H53   S    
C146  O92   S    
O44   Zn9   S    
C241  O40   A    
C201  C229  A    
C111  H92   S    
C3    C266  A    
C115  H96   S    
N6    N16   A    
C245  C259  A    
C157  C251  A    
C221  O79   A    
C137  H150  S    
C24   H24   S    
C44   H286  S    
C221  O5    A    
C37   H146  S    
C143  H163  S    
C80   H16   S    
C106  H77   S    
C175  H240  S    
C118  O77   S    
C140  H158  S    
C70   H346  S    
C59   H319  S    
C39   C40   S    
C22   C246  A    
C87   H36   S    
C94   H50   S    
C130  H132  S    
C57   C206  A    
C13   C190  A    
C120  H108  S    
C203  C222  S    
C136  H147  S    
C8    C260  A    
C68   C208  A    
C43   H279  S    
C128  O81   S    
C4    C22   A    
C264  O70   S    
C54   H310  S    
C45   H289  S    
O13   Zn7   S    
C185  H262  S    
C32   C190  A    
O35   Zn16  S    
C11   C264  A    
C158  H197  S    
C259  O65   S    
C67   H340  S    
C97   H59   S    
C203  C251  A    
C143  H165  S    
C225  O9    A    
C41   H246  S    
C238  O33   A    
C177  C178  S    
C272  O78   S    
C178  H247  S    
C117  H103  S    
O1    Zn12  S    
C147  H172  S    
C128  H129  S    
C34   O50   S    
C64   H332  S    
C227  O16   A    
C90   O86   S    
C132  H139  S    
C53   H305  S    
C52   C53   S    
C192  H277  S    
C164  H214  S    
C129  C130  S    
C267  O73   S    
C45   H288  S    
C170  H228  S    
C54   C55   S    
C56   H313  S    
C210  N5    A    
C15   C231  S    
C103  H72   S    
C43   H284  S    
C243  O31   A    
C136  C137  S    
C270  O76   S    
C171  O95   S    
C95   H52   S    
C69   H341  S    
C181  O98   S    
C62   H327  S    
C28   C146  A    
C232  O49   A    
C172  H231  S    
N4    N7    A    
C31   C179  A    
C228  O17   A    
O20   Zn7   S    
C27   C135  A    
C166  H217  S    
C134  H143  S    
C71   C72   S    
O79   Zn16  S    
C243  O38   A    
C144  O86   S    
C104  H74   S    
C110  H88   S    
C37   H135  S    
C163  H211  S    
C122  H116  S    
C186  H264  S    
C7    C261  A    
C34   C36   S    
C173  H236  S    
C102  C103  S    
C222  O10   A    
C144  H166  S    
O6    Zn15  S    
C239  O39   A    
C171  H230  S    
C81   O65   S    
C34   H90   S    
C107  H82   S    
C151  H183  S    
C155  H193  S    
C152  C153  S    
C50   H297  S    
C40   H224  S    
C49   C50   S    
C161  O92   S    
C120  H109  S    
C138  H151  S    
C38   H157  S    
C216  N14   A    
C184  O99   S    
C22   C238  S    
C115  H97   S    
C44   O53   S    
C118  H105  S    
C36   H113  S    
C166  H218  S    
C250  C254  A    
C87   C88   S    
O43   Zn1   S    
O32   Zn11  S    
C233  O21   A    
C41   C42   S    
C174  H237  S    
C111  H91   S    
C188  H271  S    
C18   C270  A    
C253  O59   S    
C176  H242  S    
C161  H206  S    
C161  C162  S    
C58   H316  S    
C160  H204  S    
C77   C78   S    
C172  C173  S    
C87   H34   S    
O14   Zn12  S    
C36   H101  S    
C128  H128  S    
C150  H180  S    
C88   H37   S    
C68   C199  A    
O21   Zn2   S    
C113  C207  A    
C194  O97   S    
C66   H336  S    
C164  C165  S    
C182  H254  S    
C64   H333  S    
C133  H142  S    
O30   Zn5   S    
C35   H35   S    
C57   C198  A    
C120  H110  S    
C116  H98   S    
C35   C204  A    
C12   C228  S    
C54   H308  S    
O28   Zn7   S    
C32   C198  A    
C159  H200  S    
C108  H84   S    
C58   H317  S    
C248  O54   S    
C28   C101  A    
C170  H226  S    
C99   H63   S    
C114  H95   S    
C230  O42   A    
C137  H148  S    
C42   H268  S    
C151  C152  S    
C73   H351  S    
C38   O51   S    
C119  H107  S    
O15   Zn4   S    
C212  N3    A    
C168  C262  A    
C232  O20   A    
O24   Zn6   S    
C55   H312  S    
C35   C195  A    
C145  H170  S    
C84   H27   S    
C85   H30   S    
O18   Zn5   S    
C56   H315  S    
O17   Zn6   S    
O11   Zn10  S    
C157  O93   S    
C187  H269  S    
C103  H70   S    
C51   H302  S    
C26   C124  A    
C112  C201  A    
C145  C147  S    
C91   H42   S    
C139  H153  S    
C47   H290  S    
O26   Zn16  S    
C69   H343  S    
C177  H244  S    
C118  H104  S    
C75   H6    S    
C76   H9    S    
C174  O96   S    
C84   C85   S    
O9    Zn1   S    
C168  O94   S    
C165  H215  S    
C19   C249  A    
C46   C197  A    
C29   C157  A    
C6    O83   S    
C58   C59   S    
C49   H295  S    
C24   C208  A    
C106  H80   S    
C4    O81   S    
C191  C192  S    
O46   Zn8   S    
C5    C21   A    
C23   C245  A    
C167  O94   S    
C62   C63   S    
C191  O3    S    
C23   C239  S    
C60   H321  S    
C159  C160  S    
C235  O23   A    
C63   H329  S    
C180  H249  S    
C78   C80   S    
C77   H11   S    
C8    C263  A    
C215  N11   A    
C81   H19   S    
C121  C122  S    
C47   H292  S    
C217  O46   A    
C46   H46   S    
C80   H17   S    
C83   H25   S    
C48   C49   S    
O48   Zn12  S    
C258  O64   S    
C17   C242  S    
C25   C241  S    
C9    C259  A    
C125  C126  S    
O38   Zn14  S    
O31   Zn6   S    
C229  H309  S    
C176  H241  S    
C160  H203  S    
C42   C43   S    
C131  C132  S    
C89   H40   S    
C31   C197  A    
O35   Zn11  S    
C44   C45   S    
C152  H184  S    
C138  H152  S    
C162  C163  S    
C127  H125  S    
C124  O89   S    
C150  H178  S    
C195  O98   S    
C149  H177  S    
C9    C234  S    
C42   H257  S    
C213  N13   A    
C242  O30   A    
N11   N14   A    
C82   H21   S    
C19   C235  S    
C130  H134  S    
C132  H138  S    
C119  C120  S    
C235  O34   A    
O29   Zn8   S    
O33   Zn10  S    
O13   Zn3   S    
C109  H86   S    
C125  O80   S    
C26   C79   A    
C26   C214  S    
C105  H76   S    
C104  O73   S    
C153  H188  S    
C217  O90   A    
C30   C168  A    
C187  C188  S    
C163  H209  S    
C149  C150  S    
C156  H195  S    
C48   O54   S    
C185  C186  S    
C148  H175  S    
C114  H93   S    
C154  O89   S    
C92   C93   S    
C182  H255  S    
C111  C114  S    
C181  H253  S    
C167  H220  S    
C148  H174  S    
C94   C95   S    
C53   H307  S    
O13   Zn13  S    
C126  H123  S    
C138  C139  S    
C123  H118  S    
C74   O63   S    
C91   O69   S    
C207  H287  S    
C65   H335  S    
C92   H45   S    
C86   H31   S    
C135  C229  A    
C93   H48   S    
C29   C113  A    
C27   C213  S    
C187  H267  S    
C142  C143  S    
C113  O88   S    
C94   O70   S    
C228  O41   A    
C39   H179  S    
C269  O75   S    
C220  O68   A    
O49   Zn13  S    
C171  C172  S    
C165  C166  S    
C63   H328  S    
C181  H252  S    
C169  C170  S    
C97   O71   S    
C41   O52   S    
C95   C96   S    
C90   C112  A    
C234  O47   A    
C41   H235  S    
C81   C82   S    
C5    O82   S    
O24   Zn14  S    
C106  H78   S    
C50   H299  S    
C257  O63   S    
O7    Zn14  S    
C268  O74   S    
C222  O6    A    
C188  H270  S    
C140  H155  S    
C169  H222  S    
C18   C243  S    
C32   C212  S    
C60   H323  S    
C7    C23   A    
C152  H185  S    
N1    N13   A    
C94   H51   S    
C181  C182  S    
C117  H102  S    
N10   N15   A    
C180  H251  S    
C269  C270  A    
C116  C117  S    
C216  N10   A    
C16   C253  A    
C74   H4    S    
C118  C119  S    
C83   H23   S    
C164  O93   S    
C86   H33   S    
C14   C255  A    
C245  O51   S    
C132  C133  S    
C149  H176  S    
C266  O72   S    
C211  N8    A    
O36   Zn12  S    
C96   H55   S    
C10   C258  A    
C176  H243  S    
O35   Zn15  S    
C6    C263  A    
O37   Zn15  S    
C158  H198  S    
C20   C272  A    
C1    H1    S    
C179  O95   S    
C97   H58   S    
O19   Zn8   S    
C178  H248  S    
C71   H348  S    
C236  O36   A    
C191  H276  S    
C134  H144  S    
C121  O78   S    
C147  H173  S    
C220  O4    A    
O24   Zn2   S    
C262  H342  S    
C102  H67   S    
C124  C218  A    
C129  H131  S    
C56   H314  S    
C74   C75   S    
C189  H274  S    
C103  H71   S    
C100  H65   S    
C148  C149  S    
C107  O74   S    
C189  H272  S    
C204  C262  A    
C134  C136  S    
C238  O27   A    
C203  C207  A    
C16   C232  S    
C7    O84   S    
C236  O25   A    
C223  O11   A    
C9    C261  A    
C188  C189  S    
C67   C69   S    
C68   H68   S    
C184  H260  S    
C260  O66   S    
C193  H281  S    
C246  C258  A    
C190  O96   S    
C5    C264  A    
C133  H140  S    
C268  C271  A    
O39   Zn9   S    
C121  H114  S    
C115  O76   S    
C131  O82   S    
C100  C102  S    
C219  O57   A    
O10   Zn11  S    
C2    C205  A    
C233  O45   A    
C191  H275  S    
O90   Zn4   S    
C16   C268  A    
C61   H325  S    
C171  H229  S    
C212  N7    A    
C107  H81   S    
C11   C227  S    
C198  O100  S    
C65   C66   S    
C173  H233  S    
C151  O88   S    
C54   O56   S    
C2    C179  A    
C196  C202  A    
C197  O99   S    
C78   H15   S    
C38   H168  S    
C44   H285  S    
C57   H57   S    
C148  O87   S    
C251  H331  S    
O13   Zn9   S    
C186  H266  S    
C77   O64   S    
C174  H238  S    
C160  H202  S    
C146  C240  A    
C70   H345  S    
C161  H205  S    
C30   C210  S    
C141  H160  S    
C248  C256  A    
C121  H111  S    
C67   H339  S    
C150  H181  S    
C88   H38   S    
C154  H191  S    
C261  O67   S    
C125  H121  S    
C192  C193  S    
C215  N15   A    
C250  O56   S    
C122  C123  S    
C12   C267  A    
C87   O67   S    
C40   H212  S    
C30   C195  A    
C141  C142  S    
C33   C211  S    
C131  H136  S    
O2    Zn3   S    
C73   H3    S    
C185  H263  S    
C138  O84   S    
C78   H14   S    
C200  C225  S    
C71   O62   S    
N2    N5    A    
C159  H199  S    
C156  H194  S    
C142  H161  S    
C170  H227  S    
C20   C248  A    
C34   H79   S    
C242  O37   A    
C155  H192  S    
C123  H119  S    
C10   C226  S    
C183  H258  S    
C201  C224  S    
C147  H171  S    
C184  H261  S    
C15   C269  A    
O4    Zn6   S    
C247  O53   S    
C55   H311  S    
C14   C266  A    
C205  C220  S    
C145  H169  S    
C164  H213  S    
C84   H28   S    
C15   C254  A    
