data_mof_unit_66114.cif
_audit_creation_date              2012-12-10T21:15:17-0500
_audit_creation_method            fapswitch 2.2
_symmetry_space_group_name_H-M    P1
_symmetry_Int_Tables_number       1
_space_group_crystal_system       triclinic
_cell_length_a                    17.647292
_cell_length_b                    16.755058
_cell_length_c                    14.172775
_cell_angle_alpha                 90.000061
_cell_angle_beta                  90.019869
_cell_angle_gamma                 90.0
_cell_volume                      4190.62571612

loop_
_atom_site_label
_atom_site_type_symbol
_atom_type_description
_atom_site_fract_x
_atom_site_fract_y
_atom_site_fract_z
_atom_type_partial_charge
C1    C     C_R   0.353286 0.500014 0.499900 0.896058
C2    C     C_R   0.646714 0.500014 0.500100 0.896057
C3    C     C_1   0.966405 0.500399 0.500167 -0.024130
C4    C     C_1   0.033595 0.500399 0.499841 -0.024129
C5    C     C_R   0.434286 0.832181 0.476238 0.078540
C6    C     C_R   0.540886 0.168003 0.568396 0.078561
C7    C     C_R   0.565714 0.832181 0.523762 0.078540
C8    C     C_R   0.459114 0.168003 0.431604 0.078560
C9    C     C_R   0.435892 0.748074 0.476229 -0.032674
C10   C     C_R   0.540180 0.252116 0.566644 -0.034467
C11   C     C_R   0.564108 0.748074 0.523771 -0.032676
C12   C     C_R   0.459820 0.252116 0.433356 -0.034466
C13   C     C_R   0.500000 0.875709 0.500000 0.018677
C14   C     C_R   0.500000 0.124485 0.500000 0.013033
C15   C     C_1   0.500000 0.963568 0.500000 0.106166
C16   C     C_1   0.500000 0.036624 0.500000 0.104740
C17   C     C_R   0.499977 0.499996 0.328755 0.903870
C18   C     C_R   0.500022 0.499996 0.671244 0.903870
C19   C     C_1   0.499969 0.499977 0.227425 -0.192325
C20   C     C_1   0.500031 0.499977 0.772575 -0.192325
C21   C     C_1   0.499973 0.499954 0.142298 0.009830
C22   C     C_1   0.500027 0.499954 0.857702 0.009830
C23   C     C_1   0.499991 0.499936 0.042562 0.027448
C24   C     C_1   0.500009 0.499937 0.957438 0.027448
C25   C     C_R   0.847138 0.573507 0.499247 0.174651
C26   C     C_R   0.152700 0.427015 0.498154 0.175792
C27   C     C_R   0.152862 0.573507 0.500738 0.174651
C28   C     C_R   0.847299 0.427015 0.501872 0.175792
C29   C     C_R   0.768340 0.572668 0.499180 -0.188177
C30   C     C_R   0.231508 0.427638 0.498230 -0.189106
C31   C     C_R   0.231660 0.572669 0.500803 -0.188175
C32   C     C_R   0.768491 0.427638 0.501793 -0.189105
C33   C     C_R   0.729029 0.500098 0.500351 -0.138471
C34   C     C_R   0.270970 0.500098 0.499651 -0.138471
C35   C     C_R   0.886236 0.500312 0.500494 0.113712
C36   C     C_R   0.113764 0.500312 0.499513 0.113709
H1    H     H_    0.737706 0.628714 0.498099 0.169684
H2    H     H_    0.262046 0.371524 0.497188 0.175361
H3    H     H_    0.262294 0.628715 0.501867 0.169682
H4    H     H_    0.737953 0.371525 0.502850 0.175360
H5    H     H_    0.385375 0.715407 0.457123 0.154006
H6    H     H_    0.571861 0.285188 0.619003 0.157198
H7    H     H_    0.614625 0.715407 0.542877 0.154009
H8    H     H_    0.428139 0.285188 0.380997 0.157199
N1    N     N_R   0.500000 0.707230 0.500000 -0.109095
N2    N     N_R   0.500000 0.292770 0.500000 -0.111857
O1    O     O_R   0.389110 0.566570 0.500000 -0.626424
O2    O     O_R   0.610890 0.433430 0.500000 -0.614655
O3    O     O_R   0.610890 0.566570 0.500000 -0.626424
O4    O     O_R   0.389110 0.433430 0.500000 -0.614656
O5    O     O_R   0.500000 0.566560 0.373710 -0.587814
O6    O     O_R   0.500000 0.433440 0.626290 -0.599600
O7    O     O_R   0.500000 0.566560 0.626290 -0.587812
O8    O     O_R   0.500000 0.433440 0.373710 -0.599598
Zn1   Zn    Zn3+2 0.500000 0.588860 0.500000 0.959212
Zn2   Zn    Zn3+2 0.500000 0.411140 0.500000 0.955845
C37   C     C_3   0.888564 0.652283 0.497929 -0.867546
H9    H     H_    0.848832 0.703708 0.497125 0.253078
H10   H     H_    0.924781 0.657482 0.561703 0.245759
H11   H     H_    0.924695 0.655988 0.433963 0.244581
C38   C     C_3   0.111082 0.348357 0.496666 -0.873623
H12   H     H_    0.150683 0.296830 0.495643 0.249377
H13   H     H_    0.074945 0.343120 0.560474 0.245407
H14   H     H_    0.074859 0.344886 0.432731 0.245795
C39   C     C_3   0.111436 0.652284 0.502036 -0.867542
H15   H     H_    0.151168 0.703710 0.502824 0.253079
H16   H     H_    0.075218 0.657470 0.438260 0.245757
H17   H     H_    0.075306 0.656002 0.566001 0.244583
C40   C     C_3   0.888918 0.348359 0.503383 -0.873627
H18   H     H_    0.849316 0.296832 0.504420 0.249378
H19   H     H_    0.925056 0.343108 0.439578 0.245408
H20   H     H_    0.925138 0.344901 0.567320 0.245795
I1    I     I_    0.331081 0.889325 0.440398 -0.308324
I2    I     I_    0.604205 0.110754 0.675925 -0.289739
I3    I     I_    0.668919 0.889325 0.559602 -0.308321
I4    I     I_    0.395795 0.110754 0.324075 -0.289737

loop_
_geom_bond_atom_site_label_1
_geom_bond_atom_site_label_2
_ccdc_geom_bond_type
C10   N2    A    
C40   H20   S    
C7    I3    S    
C23   C24   T    
C4    C36   S    
C9    N1    A    
C27   C39   S    
C2    O3    A    
C3    C35   S    
C27   C36   A    
C10   H6    S    
C1    O4    A    
C9    H5    S    
C28   C40   S    
C18   O7    A    
C13   C15   S    
C28   C32   A    
C8    C12   A    
C39   H17   S    
C32   C33   A    
C17   O5    A    
C32   H4    S    
C2    C33   S    
C31   C34   A    
C18   O6    A    
C6    C14   A    
C12   H8    S    
C39   H16   S    
C38   H14   S    
C7    C11   A    
C5    C9    A    
C30   H2    S    
C37   H9    S    
C40   H18   S    
C25   C37   S    
C25   C35   A    
O6    Zn2   S    
C22   C24   S    
C12   N2    A    
C17   C19   S    
C26   C38   S    
C20   C22   T    
C1    C34   S    
C26   C30   A    
C14   C16   S    
O7    Zn1   S    
C21   C23   S    
C5    I1    S    
C38   H12   S    
O8    Zn2   S    
C11   H7    S    
C11   N1    A    
C37   H10   S    
C6    C10   A    
C30   C34   A    
C27   C31   A    
C15   C16   T    
C29   C33   A    
C8    I4    S    
N1    Zn1   S    
C18   C20   S    
O2    Zn2   S    
C39   H15   S    
C29   H1    S    
C40   H19   S    
O1    Zn1   S    
C1    O1    A    
C37   H11   S    
C8    C14   A    
C7    C13   A    
O5    Zn1   S    
C2    O2    A    
O3    Zn1   S    
C6    I2    S    
C5    C13   A    
C17   O8    A    
C38   H13   S    
O4    Zn2   S    
C3    C4    T    
C26   C36   A    
C28   C35   A    
C31   H3    S    
C25   C29   A    
C19   C21   T    
N2    Zn2   S    
