data_mof_unit_44559.cif
_audit_creation_date              2012-10-26T19:04:44-0400
_audit_creation_method            fapswitch 2.2
_symmetry_space_group_name_H-M    P1
_symmetry_Int_Tables_number       1
_space_group_crystal_system       triclinic
_cell_length_a                    9.685326
_cell_length_b                    10.791956
_cell_length_c                    13.375279
_cell_angle_alpha                 94.694596
_cell_angle_beta                  72.917899
_cell_angle_gamma                 89.520937
_cell_volume                      1331.1041128

loop_
_atom_site_label
_atom_site_type_symbol
_atom_type_description
_atom_site_fract_x
_atom_site_fract_y
_atom_site_fract_z
_atom_type_partial_charge
Br1   Br    Br    0.257885 0.772035 0.348810 -0.387260
Br2   Br    Br    0.782919 0.123201 0.543720 -0.460630
Br3   Br    Br    0.787331 0.720794 0.643318 -0.217471
Br4   Br    Br    0.779453 0.266226 0.293937 -0.456998
Br5   Br    Br    0.820614 0.855236 0.391957 -0.425875
C1    C     C_R   0.503910 0.735620 0.486857 0.598066
C2    C     C_R   0.373252 0.485863 0.813844 0.032657
C3    C     C_R   0.248750 0.889248 0.467417 0.231314
C4    C     C_R   0.421421 0.500407 0.700128 0.615080
C5    C     C_R   0.113681 0.943382 0.522290 -0.046769
C6    C     C_R   0.103995 0.051656 0.588202 -0.048248
C7    C     C_R   0.228172 0.115364 0.587949 0.394508
C8    C     C_R   0.365580 0.063069 0.530410 -0.016085
C9    C     C_R   0.374373 0.938692 0.487180 -0.036099
C10   C     C_R   0.505936 0.869367 0.469424 -0.005530
C11   C     C_R   0.633444 0.933055 0.463426 0.191126
C12   C     C_R   0.435228 0.489444 0.978624 -0.024346
C13   C     C_R   0.625550 0.058842 0.498009 0.193259
C14   C     C_R   0.494292 0.127629 0.520265 0.021011
C15   C     C_R   0.925319 0.306110 0.362838 0.169893
C16   C     C_R   0.496415 0.263372 0.510700 0.609850
C17   C     C_R   0.029473 0.210720 0.317079 -0.034517
C18   C     C_R   0.168381 0.220821 0.318999 0.307319
C19   C     C_R   0.205954 0.323552 0.370356 -0.062407
C20   C     C_R   0.103428 0.411606 0.435434 0.021649
C21   C     C_R   0.953903 0.408314 0.433846 0.107019
C22   C     C_R   0.904005 0.585944 0.559580 0.289897
C23   C     C_R   0.446193 0.540821 0.882413 -0.032757
C24   C     C_R   0.049815 0.583943 0.560752 0.524502
C25   C     C_R   0.576953 0.505238 0.301092 0.558650
C26   C     C_R   0.717067 0.672126 0.060697 -0.062920
C27   C     C_R   0.616129 0.529580 0.190890 0.038400
C28   C     C_R   0.265664 0.400845 0.851131 -0.098382
C29   C     C_R   0.242302 0.359871 0.950281 -0.098466
C30   C     C_R   0.329141 0.399785 0.012199 -0.067181
C31   C     C_R   0.528675 0.531911 0.037822 -0.027839
C32   C     C_R   0.621946 0.631209 0.004163 -0.006286
C33   C     C_R   0.613093 0.692720 0.918092 0.444593
C34   C     C_R   0.523214 0.649683 0.859514 0.430144
C35   C     C_R   0.530168 0.480977 0.130836 -0.065375
C36   C     C_R   0.714021 0.621526 0.153768 -0.116227
Cu1   Cu    Cu3+1 0.359340 0.500010 0.500010 1.127379
Cu2   Cu    Cu3+1 0.640660 0.499990 0.499990 1.132680
F1    F     F_    0.213644 0.221339 0.652153 -0.644736
F2    F     F_    0.270290 0.133236 0.265020 -0.593972
F3    F     F_    0.687704 0.797438 0.892904 -0.541146
F4    F     F_    0.093439 0.669850 0.623927 -0.577036
F5    F     F_    0.499155 0.721391 0.787149 -0.553286
H1    H     H_    0.779949 0.660706 0.200523 0.172148
H2    H     H_    0.159907 0.293066 0.977789 0.164737
H3    H     H_    0.016507 0.901870 0.513608 0.227001
H4    H     H_    0.000203 0.089417 0.636774 0.208928
H5    H     H_    0.007761 0.129402 0.271315 0.221573
H6    H     H_    0.318671 0.327971 0.356387 0.208594
H7    H     H_    0.789307 0.747165 0.035658 0.205523
H8    H     H_    0.460736 0.407009 0.161798 0.131313
H9    H     H_    0.202541 0.362762 0.802319 0.217827
H10   H     H_    0.307230 0.361284 0.086850 0.138617
N1    N     N_R   0.852480 0.498790 0.499000 -0.263946
N2    N     N_R   0.148360 0.498710 0.498970 -0.238730
O1    O     O_R   0.381190 0.680360 0.500010 -0.435216
O2    O     O_R   0.618760 0.680340 0.500000 -0.434487
O3    O     O_R   0.323240 0.499990 0.650990 -0.437525
O4    O     O_R   0.560820 0.499960 0.650980 -0.467817
O5    O     O_R   0.381240 0.319660 0.500000 -0.493333
O6    O     O_R   0.618810 0.319640 0.499990 -0.450290
O7    O     O_R   0.439180 0.500040 0.349020 -0.535509
O8    O     O_R   0.676760 0.500010 0.349010 -0.470557

loop_
_geom_bond_atom_site_label_1
_geom_bond_atom_site_label_2
_ccdc_geom_bond_type
Cu1   O5    S    
C28   H9    S    
C6    C7    A    
C32   C33   A    
C18   F2    S    
C20   N2    A    
C16   O6    A    
Br2   C13   S    
C4    O4    A    
C22   C24   A    
C21   N1    A    
C25   O7    A    
C24   N2    A    
Cu2   N1    S    
C18   C19   A    
C16   O5    A    
C1    O2    A    
Br3   C22   S    
C28   C29   A    
C1    C10   S    
C7    F1    S    
C26   C36   A    
C22   N1    A    
C8    C9    A    
C19   C20   A    
C25   C27   S    
C2    C28   A    
Cu1   O1    S    
C33   C34   A    
C15   C21   A    
C24   F4    S    
Cu2   O6    S    
C5    H3    S    
C1    O1    A    
C11   C13   A    
C31   C32   A    
C14   C16   S    
C15   C17   A    
Cu2   O4    S    
C29   C30   A    
C17   H5    S    
Br1   C3    S    
C27   C35   A    
C12   C31   A    
Cu1   O7    S    
C29   H2    S    
C33   F3    S    
C5    C6    A    
C8    C14   A    
C27   C36   A    
C19   H6    S    
C10   C11   A    
Br4   C15   S    
C30   H10   S    
C31   C35   A    
C7    C8    A    
C3    C5    A    
C13   C14   A    
Cu1   Cu2   S    
Cu1   N2    S    
C2    C4    S    
C9    C10   A    
C34   F5    S    
Br5   C11   S    
C3    C9    A    
C6    H4    S    
C12   C30   A    
C23   C34   A    
C26   H7    S    
C20   C21   A    
C4    O3    A    
C12   C23   A    
Cu1   O3    S    
C36   H1    S    
C17   C18   A    
C25   O8    A    
C2    C23   A    
C26   C32   A    
Cu2   O2    S    
Cu2   O8    S    
C35   H8    S    
