data_mof_unit_54812.cif
_audit_creation_date              2012-12-10T18:07:33-0500
_audit_creation_method            fapswitch 2.2
_symmetry_space_group_name_H-M    P1
_symmetry_Int_Tables_number       1
_space_group_crystal_system       triclinic
_cell_length_a                    11.505067
_cell_length_b                    12.774889
_cell_length_c                    13.118035
_cell_angle_alpha                 82.070917
_cell_angle_beta                  93.255528
_cell_angle_gamma                 102.065306
_cell_volume                      1866.64175361

loop_
_atom_site_label
_atom_site_type_symbol
_atom_type_description
_atom_site_fract_x
_atom_site_fract_y
_atom_site_fract_z
_atom_type_partial_charge
C1    C     C_R   0.482643 0.439273 0.690982 0.885034
C2    C     C_R   0.391125 0.643933 0.889560 -0.188002
C3    C     C_R   0.388374 0.563897 0.827191 -0.113089
C4    C     C_R   0.717438 0.500727 0.501204 0.867468
C5    C     C_R   0.499126 0.514512 0.134725 -0.284588
C6    C     C_R   0.493241 0.698998 0.153424 0.484553
C7    C     C_R   0.461639 0.400050 0.800341 -0.269034
C8    C     C_R   0.370778 0.105913 0.319453 -0.285905
C9    C     C_R   0.638836 0.799461 0.634366 0.524082
C10   C     C_R   0.669822 0.902727 0.662155 -0.274695
C11   C     C_R   0.621650 0.984997 0.608318 -0.217608
C12   C     C_R   0.506740 0.595031 0.197450 -0.173812
C13   C     C_R   0.541609 0.965286 0.524858 -0.016736
C14   C     C_R   0.510893 0.858326 0.497095 0.010278
C15   C     C_R   0.490503 0.048391 0.468362 0.008822
C16   C     C_R   0.512858 0.560555 0.308518 0.897238
C17   C     C_R   0.427746 0.029365 0.375091 0.007533
C18   C     C_R   0.412799 0.930744 0.341270 -0.322829
C19   C     C_R   0.433320 0.841424 0.408555 0.560306
C20   C     C_R   0.497559 0.150058 0.500347 -0.074601
C21   C     C_R   0.374226 0.201173 0.357915 0.520784
C22   C     C_R   0.282484 0.497876 0.502052 0.882970
C23   C     C_R   0.483436 0.297409 0.843271 0.432295
C24   C     C_1   0.838535 0.500825 0.505149 -0.147459
C25   C     C_1   0.940395 0.497569 0.507636 0.003995
C26   C     C_1   0.058554 0.493647 0.508093 0.002128
C27   C     C_1   0.160936 0.493579 0.506024 -0.176689
C28   C     C_R   0.452176 0.714432 0.050859 -0.315977
C29   C     C_3   0.616094 0.858884 0.183197 0.082644
C30   C     C_3   0.715786 0.844099 0.262857 -0.339330
C31   C     C_3   0.827478 0.930995 0.240235 -0.922772
C32   C     C_3   0.266112 0.728155 0.336548 0.126066
C33   C     C_3   0.172305 0.762730 0.396840 -0.420023
C34   C     C_R   0.464240 0.262593 0.948316 0.334106
C35   C     C_3   0.050255 0.741079 0.342731 -0.914230
C36   C     C_3   0.637003 0.220064 0.805470 0.107169
C37   C     C_3   0.722415 0.301762 0.733858 -0.403773
C38   C     C_3   0.850478 0.287774 0.754718 -0.908121
C39   C     C_R   0.450038 0.336346 0.012659 -0.310038
C40   C     C_R   0.445143 0.443664 0.972013 0.040870
C41   C     C_R   0.430163 0.468826 0.865186 0.022970
C42   C     C_R   0.456765 0.527555 0.033632 0.141456
C43   C     C_R   0.432633 0.629121 0.991262 0.102863
Cl1   Cl    Cl    0.711997 0.702370 0.701787 -0.604819
Cl2   Cl    Cl    0.464112 0.128282 0.001960 -0.657587
Cl3   Cl    Cl    0.289919 0.291354 0.293991 -0.608399
H1    H     H_    0.370931 0.921894 0.266319 0.187943
H2    H     H_    0.354543 0.578079 0.749041 0.159722
H3    H     H_    0.597518 0.940890 0.182655 0.197460
H4    H     H_    0.646529 0.855685 0.104508 0.135706
H5    H     H_    0.685580 0.848437 0.340848 0.240447
H6    H     H_    0.737517 0.763390 0.262324 0.214451
H7    H     H_    0.862089 0.925684 0.164175 0.268968
H8    H     H_    0.897050 0.919541 0.300461 0.272027
H9    H     H_    0.807714 0.012453 0.240388 0.275572
H10   H     H_    0.235096 0.641322 0.328690 0.157811
H11   H     H_    0.270944 0.767184 0.255587 0.147499
H12   H     H_    0.319143 0.089765 0.249467 0.198495
H13   H     H_    0.167069 0.718012 0.475741 0.243655
H14   H     H_    0.196458 0.850070 0.404319 0.224922
H15   H     H_    0.051977 0.792759 0.267215 0.267773
H16   H     H_    0.982935 0.759841 0.390975 0.274926
H17   H     H_    0.023708 0.655129 0.329920 0.267837
H18   H     H_    0.644611 0.137337 0.793797 0.173966
H19   H     H_    0.665631 0.228874 0.887044 0.159820
H20   H     H_    0.697247 0.290397 0.652705 0.240686
H21   H     H_    0.716714 0.385097 0.745296 0.230112
H22   H     H_    0.878572 0.299790 0.835417 0.272697
H23   H     H_    0.545497 0.173633 0.569036 0.154934
H24   H     H_    0.910384 0.348317 0.702242 0.276085
H25   H     H_    0.859030 0.205801 0.741170 0.262193
H26   H     H_    0.652400 0.064253 0.631041 0.153202
H27   H     H_    0.733534 0.919929 0.724733 0.182732
H28   H     H_    0.365447 0.718797 0.857093 0.154940
H29   H     H_    0.435857 0.792940 0.018230 0.179595
H30   H     H_    0.526470 0.440725 0.166716 0.189836
H31   H     H_    0.441100 0.307648 0.093787 0.215014
N1    N     N_R   0.440320 0.222190 0.444690 -0.137243
N2    N     N_R   0.559060 0.776980 0.554780 -0.152172
O1    O     O_R   0.471500 0.366730 0.627160 -0.572939
O2    O     O_3   0.379979 0.738950 0.387797 -0.563332
O3    O     O_3   0.517477 0.229771 0.781620 -0.602282
O4    O     O_R   0.509620 0.544830 0.662520 -0.578518
O5    O     O_R   0.646490 0.410960 0.482310 -0.633485
O6    O     O_R   0.684610 0.589050 0.517670 -0.568278
O7    O     O_R   0.490380 0.455170 0.337480 -0.581871
O8    O     O_R   0.528500 0.633270 0.372840 -0.539757
O9    O     O_R   0.315390 0.410950 0.482330 -0.556097
O10   O     O_R   0.353510 0.589040 0.517690 -0.582492
O11   O     O_3   0.510794 0.783165 0.211843 -0.631763
Zn1   Zn    Zn3+2 0.474550 0.381080 0.476390 1.007685
Zn2   Zn    Zn3+2 0.525450 0.618920 0.523610 1.016005

loop_
_geom_bond_atom_site_label_1
_geom_bond_atom_site_label_2
_ccdc_geom_bond_type
C30   H5    S    
C38   H24   S    
C23   O3    S    
C36   H18   S    
C5    C42   A    
C18   H1    S    
C29   H3    S    
O4    Zn2   S    
C26   C27   T    
C29   C30   S    
C39   H31   S    
C36   C37   S    
O7    Zn1   S    
C6    C12   A    
C30   C31   S    
C4    C24   S    
C10   H27   S    
C3    H2    S    
C18   C19   A    
C9    N2    A    
C8    H12   S    
C6    C28   A    
C12   C16   S    
C36   O3    S    
C21   N1    A    
C16   O8    A    
O5    Zn1   S    
C22   O9    A    
C9    C10   A    
C2    H28   S    
C40   C42   A    
C33   H13   S    
C1    C7    S    
C13   C14   A    
C16   O7    A    
C32   H11   S    
C29   O11   S    
O6    Zn2   S    
C8    C21   A    
C29   H4    S    
C15   C20   A    
C34   C39   A    
C24   C25   T    
C5    C12   A    
C39   C40   A    
C36   H19   S    
C4    O6    A    
C25   C26   S    
C6    O11   S    
C37   C38   S    
C32   O2    S    
C4    O5    A    
O9    Zn1   S    
C2    C43   A    
C23   C34   A    
C37   H20   S    
C17   C18   A    
C35   H15   S    
C34   Cl2   S    
C14   N2    A    
C31   H7    S    
O10   Zn2   S    
N2    Zn2   S    
C40   C41   A    
C38   H22   S    
C33   H14   S    
C22   C27   S    
C13   C15   A    
C20   H23   S    
C42   C43   A    
C21   Cl3   S    
C15   C17   A    
C30   H6    S    
C38   H25   S    
C3    C41   A    
C9    Cl1   S    
C11   H26   S    
C14   C19   A    
N1    Zn1   S    
C1    O4    A    
C28   C43   A    
C8    C17   A    
C20   N1    A    
C32   C33   S    
C5    H30   S    
C2    C3    A    
C19   O2    S    
C11   C13   A    
O1    Zn1   S    
C7    C23   A    
C37   H21   S    
C33   C35   S    
C22   O10   A    
C35   H16   S    
C7    C41   A    
C31   H8    S    
C10   C11   A    
C1    O1    A    
C35   H17   S    
C31   H9    S    
O8    Zn2   S    
C28   H29   S    
C32   H10   S    
