data_mof_unit_60037.cif
_audit_creation_date              2012-10-26T18:02:20-0400
_audit_creation_method            fapswitch 2.2
_symmetry_space_group_name_H-M    P1
_symmetry_Int_Tables_number       1
_space_group_crystal_system       triclinic
_cell_length_a                    18.756742
_cell_length_b                    18.747521
_cell_length_c                    18.900975
_cell_angle_alpha                 109.451332
_cell_angle_beta                  109.532079
_cell_angle_gamma                 109.162611
_cell_volume                      5133.17496199

loop_
_atom_site_label
_atom_site_type_symbol
_atom_type_description
_atom_site_fract_x
_atom_site_fract_y
_atom_site_fract_z
_atom_type_partial_charge
C1    C     C_R   0.118912 0.000109 0.618319 0.544779
C2    C     C_R   0.527423 0.473079 0.792253 -0.109438
C3    C     C_R   0.521445 0.548558 0.822656 -0.126868
C4    C     C_R   0.117184 0.118708 0.498133 0.537213
C5    C     C_R   0.447683 0.550378 0.774485 -0.076637
C6    C     C_R   0.379856 0.476953 0.695306 0.264709
C7    C     C_R   0.386283 0.401167 0.663944 0.046359
C8    C     C_R   0.270983 0.064191 0.727414 0.011153
C9    C     C_R   0.184414 0.999679 0.684748 0.027682
C10   C     C_R   0.160266 0.942182 0.715158 -0.148336
C11   C     C_R   0.224405 0.943274 0.780911 -0.156224
C12   C     C_R   0.988359 0.960382 0.164607 0.284010
C13   C     C_R   0.313156 0.001709 0.816243 0.003428
C14   C     C_R   0.334327 0.064464 0.791257 -0.006388
C15   C     C_3   0.398608 0.091948 0.762613 -0.260133
C16   C     C_R   0.882669 0.001948 0.381721 0.564194
C17   C     C_3   0.328538 0.090989 0.691744 -0.287265
C18   C     C_R   0.750424 0.738802 0.427711 -0.004044
C19   C     C_R   0.816677 0.815833 0.502421 -0.022126
C20   C     C_R   0.817023 0.828831 0.580549 -0.130249
C21   C     C_R   0.751517 0.764719 0.581144 0.250893
C22   C     C_R   0.685207 0.687015 0.502618 0.030830
C23   C     C_R   0.245677 0.243696 0.421969 -0.139064
C24   C     C_R   0.686912 0.678236 0.427579 -0.046687
C25   C     C_3   0.641797 0.619175 0.332512 -0.224977
C26   C     C_3   0.713928 0.688844 0.332570 -0.249917
C27   C     C_R   0.749309 0.926373 0.242230 -0.073708
C28   C     C_R   0.881752 0.881412 0.500453 0.551893
C29   C     C_R   0.815696 0.003844 0.317105 -0.047917
C30   C     C_R   0.811593 0.081265 0.331859 0.264231
C31   C     C_R   0.744937 0.079625 0.267169 0.206849
C32   C     C_R   0.684067 0.001435 0.187832 -0.060288
C33   C     C_R   0.683042 0.924131 0.179622 0.014811
C34   C     C_R   0.314033 0.316017 0.501362 0.029815
C35   C     C_3   0.678879 0.852994 0.108623 0.151369
C36   C     C_3   0.754146 0.858456 0.178269 -0.175921
C37   C     C_R   0.500873 0.619930 0.618746 0.563462
C38   C     C_R   0.381172 0.382248 0.501022 0.555728
C39   C     C_R   0.499098 0.379919 0.381589 0.543160
C40   C     C_R   0.052497 0.953045 0.221105 -0.133128
C41   C     C_R   0.618613 0.618827 0.500303 0.567988
C42   C     C_R   0.499601 0.119004 0.118094 0.568227
C43   C     C_R   0.380889 0.999888 0.880917 0.534010
C44   C     C_R   0.497361 0.881062 0.878999 0.553951
C45   C     C_R   0.317123 0.323803 0.579175 0.006707
C46   C     C_R   0.618595 0.999223 0.118110 0.576224
C47   C     C_R   0.422924 0.685912 0.673445 0.053610
C48   C     C_R   0.500165 0.685505 0.685932 -0.032662
C49   C     C_R   0.575342 0.744718 0.767447 -0.178528
C50   C     C_R   0.574386 0.809894 0.830012 -0.184897
C51   C     C_R   0.497004 0.813090 0.813427 -0.008301
C52   C     C_R   0.114577 0.023309 0.304085 -0.123580
C53   C     C_R   0.419294 0.745196 0.737258 0.026416
C54   C     C_3   0.348337 0.746551 0.670104 0.507772
C55   C     C_3   0.357240 0.683988 0.600942 0.234740
C56   C     C_R   0.251215 0.258673 0.576133 -0.125052
C57   C     C_R   0.485763 0.311987 0.238072 0.022157
C58   C     C_R   0.501530 0.314238 0.316323 -0.025053
C59   C     C_R   0.525894 0.255319 0.332420 -0.153230
C60   C     C_R   0.524441 0.190309 0.266844 -0.118434
C61   C     C_R   0.503100 0.186782 0.186544 -0.011516
C62   C     C_R   0.492229 0.253678 0.176581 -0.004267
C63   C     C_3   0.427232 0.252753 0.103069 0.185290
C64   C     C_R   0.111883 0.101153 0.332346 -0.013057
C65   C     C_3   0.416107 0.313902 0.171250 0.537675
C66   C     C_R   0.048413 0.109129 0.275169 -0.145627
C67   C     C_R   0.183483 0.185199 0.496809 0.002234
C68   C     C_R   0.985182 0.038170 0.191024 0.312626
C69   C     C_3   0.713497 0.826590 0.676591 -0.101261
C70   C     C_3   0.945287 0.200123 0.401824 -0.058655
C71   C     C_3   0.544140 0.751915 0.987267 -0.108709
C72   C     C_3   0.264557 0.751404 0.737754 -0.066408
C73   C     C_3   0.313113 0.827828 0.608329 -0.115699
C74   C     C_3   0.229327 0.592728 0.470052 -0.060195
C75   C     C_3   0.433437 0.241590 0.979829 -0.085092
C76   C     C_3   0.304460 0.206464 0.173556 -0.121927
C77   C     C_3   0.880180 0.079315 0.165067 -0.100491
C78   C     C_R   0.180832 0.177101 0.418602 -0.020109
C79   C     C_R   0.460010 0.399468 0.713258 -0.117972
Cl1   Cl    Cl    0.911739 0.871054 0.060130 -0.572340
Cl2   Cl    Cl    0.287237 0.481057 0.637364 -0.548140
Cl3   Cl    Cl    0.739715 0.176177 0.286503 -0.550875
Cl4   Cl    Cl    0.451504 0.420774 0.184659 -0.514955
Cu1   Cu    Cu3+1 0.000020 0.938200 0.438220 0.926359
Cu2   Cu    Cu3+1 0.999980 0.061800 0.561780 1.008888
Cu3   Cu    Cu3+1 0.438190 0.500040 0.438260 1.038528
Cu4   Cu    Cu3+1 0.561780 0.500000 0.561820 1.003220
Cu5   Cu    Cu3+1 0.561810 0.061820 0.000020 0.999055
Cu6   Cu    Cu3+1 0.438190 0.938280 0.000080 0.925620
H1    H     H_    0.573934 0.605476 0.883709 0.140574
H2    H     H_    0.054943 0.893081 0.200325 0.145872
H3    H     H_    0.644036 0.557531 0.316242 0.185597
H4    H     H_    0.576558 0.611918 0.298630 0.200328
H5    H     H_    0.757450 0.667226 0.315829 0.159332
H6    H     H_    0.690338 0.721959 0.299104 0.153676
H7    H     H_    0.696254 0.872011 0.064075 0.105145
H8    H     H_    0.737571 0.799089 0.184642 0.179155
H9    H     H_    0.165032 0.017215 0.346373 0.133479
H10   H     H_    0.815723 0.884819 0.176692 0.141478
H11   H     H_    0.635575 0.743301 0.781236 0.166808
H12   H     H_    0.443211 0.608883 0.798563 0.127056
H13   H     H_    0.633909 0.857936 0.891002 0.138651
H14   H     H_    0.387237 0.711974 0.567775 0.065332
H15   H     H_    0.541575 0.256649 0.393601 0.145868
H16   H     H_    0.538798 0.142440 0.278290 0.161566
H17   H     H_    0.049786 0.171016 0.295676 0.110139
H18   H     H_    0.368241 0.187161 0.055748 0.066845
H19   H     H_    0.244049 0.238117 0.362353 0.122871
H20   H     H_    0.253310 0.264928 0.636059 0.136091
H21   H     H_    0.465598 0.341480 0.689972 0.110343
H22   H     H_    0.584462 0.471704 0.829790 0.129595
H23   H     H_    0.092426 0.895307 0.686670 0.122961
H24   H     H_    0.642977 0.789713 0.627620 0.107000
H25   H     H_    0.745644 0.890514 0.680621 0.119012
H26   H     H_    0.719119 0.840260 0.740540 0.157216
H27   H     H_    0.976755 0.159708 0.390698 0.085407
H28   H     H_    0.994076 0.261728 0.463712 0.180487
H29   H     H_    0.927573 0.217041 0.349768 0.133788
H30   H     H_    0.572241 0.743092 0.943862 0.103308
H31   H     H_    0.525290 0.802533 0.991240 0.165615
H32   H     H_    0.484340 0.689654 0.958927 0.154557
H33   H     H_    0.296652 0.822426 0.762537 0.158075
H34   H     H_    0.204592 0.896393 0.801505 0.135740
H35   H     H_    0.294968 0.735899 0.787640 0.153667
H36   H     H_    0.196015 0.729332 0.722409 0.130928
H37   H     H_    0.248673 0.805032 0.604763 0.158064
H38   H     H_    0.307076 0.787407 0.546087 0.092405
H39   H     H_    0.335611 0.894727 0.618382 0.130518
H40   H     H_    0.263860 0.605277 0.434069 0.086342
H41   H     H_    0.202299 0.637113 0.483192 0.124396
H42   H     H_    0.173649 0.525273 0.427806 0.162405
H43   H     H_    0.363211 0.220997 0.943942 0.132157
H44   H     H_    0.442919 0.184389 0.968683 0.135417
H45   H     H_    0.454716 0.158362 0.811572 0.134512
H46   H     H_    0.467451 0.277686 0.954518 0.149405
H47   H     H_    0.327008 0.229131 0.243203 0.127227
H48   H     H_    0.326065 0.160222 0.148143 0.077386
H49   H     H_    0.232313 0.169588 0.139043 0.164826
H50   H     H_    0.918777 0.151488 0.203426 0.122197
H51   H     H_    0.862725 0.051771 0.204425 0.078862
H52   H     H_    0.818401 0.061450 0.110684 0.164251
H53   H     H_    0.416333 0.041649 0.737923 0.161715
H54   H     H_    0.344618 0.156749 0.699655 0.133508
H55   H     H_    0.304871 0.039569 0.625516 0.136264
H56   H     H_    0.867959 0.887808 0.640880 0.146573
O1    O     O_R   0.090190 0.947810 0.538000 -0.517110
O2    O     O_R   0.447820 0.038100 0.090220 -0.514932
O3    O     O_R   0.462030 0.052220 0.909860 -0.516449
O4    O     O_R   0.090150 0.052180 0.642350 -0.504280
O5    O     O_R   0.357640 0.947890 0.909900 -0.537340
O6    O     O_R   0.552180 0.962000 0.909880 -0.495167
O7    O     O_R   0.447790 0.857670 0.909930 -0.557441
O8    O     O_R   0.642360 0.052210 0.090200 -0.484067
O9    O     O_R   0.537970 0.947880 0.090240 -0.499941
O10   O     O_R   0.090200 0.037990 0.447830 -0.515342
O11   O     O_R   0.090160 0.142360 0.552180 -0.503966
O12   O     O_R   0.552160 0.590170 0.642390 -0.501493
O13   O     O_R   0.909850 0.947820 0.357650 -0.525508
O14   O     O_R   0.909810 0.052190 0.462000 -0.453723
O15   O     O_R   0.909840 0.857640 0.447820 -0.506427
O16   O     O_R   0.909800 0.962010 0.552170 -0.514694
O17   O     O_R   0.447790 0.590200 0.538040 -0.500362
O18   O     O_3   0.754332 0.777291 0.658533 -0.539698
O19   O     O_3   0.872252 0.158481 0.408795 -0.496369
O20   O     O_3   0.602708 0.772664 0.070085 -0.541996
O21   O     O_3   0.264964 0.705990 0.661911 -0.529677
O22   O     O_3   0.375157 0.830509 0.678267 -0.606472
O23   O     O_R   0.357620 0.409850 0.447860 -0.492848
O24   O     O_3   0.283873 0.599455 0.547162 -0.470035
O25   O     O_3   0.470067 0.296565 0.068833 -0.513001
O26   O     O_3   0.330509 0.278528 0.160142 -0.528381
O27   O     O_3   0.924985 0.045010 0.130511 -0.519235
O28   O     O_R   0.461990 0.409820 0.552210 -0.523084
O29   O     O_R   0.447810 0.409860 0.357690 -0.464606
O30   O     O_R   0.552180 0.409830 0.462050 -0.518850
O31   O     O_R   0.537970 0.590210 0.447870 -0.515993
O32   O     O_R   0.642350 0.590180 0.552220 -0.469469
O33   O     O_R   0.552210 0.142430 0.090170 -0.465551

loop_
_geom_bond_atom_site_label_1
_geom_bond_atom_site_label_2
_ccdc_geom_bond_type
C26   H5    S    
C66   C68   A    
C63   C65   S    
C25   H4    S    
C21   O18   S    
C27   C29   A    
Cu2   O16   S    
C35   C36   S    
C18   C26   S    
C77   H51   S    
C30   O19   S    
C54   O22   S    
C73   O22   S    
C76   H47   S    
C57   C62   A    
C15   H45   S    
C76   H48   S    
C27   C33   A    
C38   O23   A    
C12   C68   A    
C69   H24   S    
C29   C30   A    
C31   Cl3   S    
C71   H31   S    
C65   O26   S    
C17   H55   S    
C18   C24   A    
C59   H15   S    
C7    C45   S    
C41   O32   A    
C54   O21   S    
C30   C31   A    
Cu1   O10   S    
C75   H46   S    
C65   Cl4   S    
C22   C41   S    
C70   H28   S    
C73   H37   S    
C55   H14   S    
C28   O15   A    
Cu6   O2    S    
C18   C19   A    
C37   O12   A    
C74   O24   S    
C2    C79   A    
C33   C35   S    
C21   C22   A    
Cu6   O7    S    
C47   C48   A    
C45   C56   A    
C8    C9    A    
C10   H23   S    
C36   H8    S    
C43   O3    A    
C9    C10   A    
C47   C53   A    
Cu5   Cu6   S    
C47   C55   S    
C59   C60   A    
C23   C78   A    
C6    Cl2   S    
C74   H42   S    
C72   H35   S    
C16   O14   A    
C1    O1    A    
C67   C78   A    
C72   O21   S    
C66   H17   S    
C39   O29   A    
Cu4   O28   S    
C42   O2    A    
C25   C26   S    
C28   O16   A    
C77   H52   S    
Cu1   O15   S    
C46   O9    A    
C5    H12   S    
C69   H25   S    
C44   O6    A    
C16   O13   A    
C69   O18   S    
Cu3   O23   S    
Cu1   Cu2   S    
C39   O30   A    
C52   C64   A    
Cu1   O13   S    
Cu3   Cu4   S    
C63   O25   S    
C70   H27   S    
C16   C29   S    
C35   H7    S    
C39   C58   S    
Cu4   O12   S    
C60   C61   A    
Cu3   O29   S    
Cu2   O11   S    
C64   C66   A    
C12   C40   A    
C76   O26   S    
C73   H38   S    
C62   C63   S    
Cu4   O32   S    
C15   H53   S    
C31   C32   A    
C14   C15   S    
C53   C54   S    
C23   C34   A    
C3    C5    A    
C75   O25   S    
C50   C51   A    
Cu5   O3    S    
C1    C9    S    
C34   C45   A    
C44   O7    A    
C24   C25   S    
C37   C48   S    
C1    O4    A    
C19   C28   S    
C42   C61   S    
C43   O5    A    
Cu3   O17   S    
C44   C51   S    
C48   C49   A    
C4    O11   A    
C41   O31   A    
C50   H13   S    
Cu1   O1    S    
C3    H1    S    
Cu5   O6    S    
C22   C24   A    
C63   H18   S    
C73   H39   S    
Cu6   O5    S    
C56   H20   S    
C13   C43   S    
C64   C78   S    
C75   H43   S    
C7    C79   A    
C26   H6    S    
C15   C17   S    
C46   O8    A    
C54   C55   S    
C69   H26   S    
C25   H3    S    
C8    C14   A    
C79   H21   S    
C72   H33   S    
C34   C38   S    
C32   C46   S    
C2    H22   S    
C71   H32   S    
C11   H34   S    
C77   H50   S    
C57   C65   S    
C38   O28   A    
C70   O19   S    
C4    C67   S    
C75   H44   S    
Cu5   O33   S    
C6    C7    A    
C42   O33   A    
C76   H49   S    
C27   C36   S    
C56   C67   A    
Cu4   O30   S    
C8    C17   S    
C71   H30   S    
C72   H36   S    
C17   H54   S    
Cu5   O8    S    
C19   C20   A    
C74   H41   S    
C2    C3    A    
C58   C59   A    
C40   C52   A    
C32   C33   A    
C49   H11   S    
C11   C13   A    
Cu6   O9    S    
C5    C6    A    
C70   H29   S    
C77   O27   S    
C23   H19   S    
C12   Cl1   S    
C52   H9    S    
C35   O20   S    
C36   H10   S    
Cu3   O31   S    
C40   H2    S    
C61   C62   A    
Cu2   O4    S    
C10   C11   A    
C4    O10   A    
C20   C21   A    
C49   C50   A    
C71   O20   S    
C74   H40   S    
C20   H56   S    
Cu2   O14   S    
C51   C53   A    
C57   C58   A    
C13   C14   A    
C55   O24   S    
C60   H16   S    
C68   O27   S    
C37   O17   A    
