data_mof_unit_13819.cif
_audit_creation_date              2012-10-26T19:07:31-0400
_audit_creation_method            fapswitch 2.2
_symmetry_space_group_name_H-M    P1
_symmetry_Int_Tables_number       1
_space_group_crystal_system       triclinic
_cell_length_a                    14.994526
_cell_length_b                    13.779642
_cell_length_c                    10.657603
_cell_angle_alpha                 89.75521
_cell_angle_beta                  88.791033
_cell_angle_gamma                 90.729171
_cell_volume                      2201.37422121

loop_
_atom_site_label
_atom_site_type_symbol
_atom_type_description
_atom_site_fract_x
_atom_site_fract_y
_atom_site_fract_z
_atom_type_partial_charge
C1    C     C_R   0.328914 0.499325 0.500952 0.540082
C2    C     C_R   0.959059 0.597476 0.304602 0.219647
C3    C     C_R   0.443549 0.791990 0.580461 0.224147
C4    C     C_R   0.556453 0.208010 0.419541 0.223092
C5    C     C_R   0.556588 0.793995 0.419907 0.220404
C6    C     C_R   0.443408 0.206002 0.580075 0.220582
C7    C     C_R   0.557793 0.897402 0.418161 -0.013915
C8    C     C_R   0.442197 0.102595 0.581816 -0.013058
C9    C     C_R   0.442277 0.895338 0.581987 -0.013972
C10   C     C_R   0.557719 0.104660 0.418003 -0.014533
C11   C     C_R   0.499990 0.948126 0.499994 0.026857
C12   C     C_R   0.671119 0.500656 0.498860 0.540893
C13   C     C_R   0.500006 0.051871 0.499992 0.027031
C14   C     C_R   0.615145 0.951294 0.337092 -0.123100
C15   C     C_R   0.384832 0.048703 0.662869 -0.124030
C16   C     C_R   0.384968 0.947167 0.663082 -0.130629
C17   C     C_R   0.615017 0.052831 0.336892 -0.129259
C18   C     C_R   0.498989 0.500317 0.259813 0.570561
C19   C     C_R   0.500473 0.499690 0.740236 0.572162
C20   C     C_3   0.487586 0.590065 0.038947 0.078909
C21   C     C_3   0.511124 0.410007 0.961224 0.078992
C22   C     C_3   0.565561 0.555790 0.956867 0.088301
C23   C     C_R   0.953441 0.501434 0.500419 -0.034573
C24   C     C_3   0.433158 0.444316 0.043318 0.098630
C25   C     C_3   0.419823 0.534037 0.958301 -0.121948
C26   C     C_3   0.578889 0.466049 0.041813 -0.130216
C27   C     C_3   0.499720 0.498975 0.876133 0.042644
C28   C     C_3   0.499049 0.501094 0.123980 0.045382
C29   C     C_R   0.815560 0.550719 0.405074 -0.079142
C30   C     C_R   0.184614 0.449004 0.594434 -0.076681
C31   C     C_R   0.767617 0.502624 0.500144 -0.021055
C32   C     C_R   0.232487 0.497172 0.499415 -0.023006
C33   C     C_R   0.810994 0.457349 0.597617 -0.062059
C34   C     C_R   0.046706 0.497343 0.498498 -0.035585
C35   C     C_R   0.189138 0.541678 0.401370 -0.070926
C36   C     C_R   0.904214 0.459261 0.602425 -0.009864
C37   C     C_R   0.095935 0.539366 0.396393 -0.008970
C38   C     C_R   0.909185 0.551220 0.403094 -0.007088
C39   C     C_R   0.091005 0.447844 0.595996 -0.012629
C40   C     C_R   0.948651 0.418181 0.705399 0.260166
C41   C     C_R   0.051507 0.579908 0.293105 0.237001
C42   C     C_R   0.041222 0.401202 0.694244 0.259856
Cu1   Cu    Cu3+1 0.500000 0.597420 0.500000 1.034071
Cu2   Cu    Cu3+1 0.500000 0.402580 0.500000 1.033452
H1    H     H_    0.355359 0.561435 0.924075 0.144972
H2    H     H_    0.660511 0.090033 0.272332 0.127974
H3    H     H_    0.469955 0.733113 0.002568 0.220768
H4    H     H_    0.415535 0.691975 0.131492 0.252249
H5    H     H_    0.528601 0.266961 0.997764 0.224038
H6    H     H_    0.583197 0.307991 0.868920 0.261304
H7    H     H_    0.669817 0.647984 0.984400 0.276320
H8    H     H_    0.608441 0.675291 0.859547 0.247904
H9    H     H_    0.328835 0.352181 0.015925 0.278745
H10   H     H_    0.390034 0.325121 0.141040 0.239345
H11   H     H_    0.785227 0.477971 0.952422 0.373844
H12   H     H_    0.643041 0.438401 0.076716 0.126208
H13   H     H_    0.207381 0.696180 0.069798 0.360002
H14   H     H_    0.052026 0.195937 0.916639 0.375989
H15   H     H_    0.008089 0.800299 0.214898 0.358001
H16   H     H_    0.319900 0.753435 0.644963 0.223048
H17   H     H_    0.400271 0.754454 0.755746 0.200145
H18   H     H_    0.680106 0.246556 0.355050 0.225560
H19   H     H_    0.599734 0.245556 0.244264 0.204058
H20   H     H_    0.603223 0.759218 0.246140 0.242409
H21   H     H_    0.680691 0.759046 0.360538 0.257073
H22   H     H_    0.396628 0.240713 0.753787 0.241240
H23   H     H_    0.778428 0.582361 0.329623 0.182839
H24   H     H_    0.319305 0.240977 0.639214 0.255991
H25   H     H_    0.221796 0.417682 0.670051 0.186601
H26   H     H_    0.770759 0.419444 0.668100 0.186590
H27   H     H_    0.229348 0.579288 0.330572 0.185407
H28   H     H_    0.660820 0.915740 0.272813 0.144077
H29   H     H_    0.339140 0.084256 0.727126 0.139087
H30   H     H_    0.339469 0.909965 0.727637 0.122404
N1    N     N_R   0.500000 0.743810 0.500000 -0.178440
N2    N     N_3   0.384873 0.259755 0.660643 -0.538358
N3    N     N_R   0.500000 0.256190 0.500000 -0.178500
N4    N     N_3   0.476407 0.689366 0.082104 -0.615586
N5    N     N_3   0.522278 0.310679 0.918174 -0.614407
N6    N     N_3   0.637498 0.617893 0.907553 -0.562948
N7    N     N_3   0.361088 0.382433 0.092724 -0.548856
N8    N     N_3   0.386127 0.736280 0.663053 -0.553989
N9    N     N_3   0.613881 0.263721 0.336960 -0.552521
N10   N     N_3   0.615091 0.740241 0.339278 -0.538072
O1    O     O_R   0.370260 0.582280 0.500030 -0.484715
O2    O     O_2   0.953481 0.405742 0.960390 -0.149699
O3    O     O_3   0.817274 0.493479 0.872509 -0.501255
O4    O     O_2   0.173124 0.511432 0.127175 -0.265183
O5    O     O_2   0.046356 0.593744 0.037941 -0.128440
O6    O     O_3   0.167968 0.698993 0.145442 -0.541862
O7    O     O_2   0.157492 0.254880 0.715404 -0.337816
O8    O     O_2   0.142114 0.365154 0.894054 -0.233528
O9    O     O_3   0.017706 0.235495 0.857205 -0.422019
O10   O     O_2   0.859030 0.635680 0.104502 -0.212065
O11   O     O_2   0.843049 0.744706 0.283596 -0.340223
O12   O     O_R   0.629740 0.417720 0.499970 -0.484764
O13   O     O_3   0.983616 0.764032 0.143037 -0.401168
O14   O     O_R   0.629740 0.582280 0.499970 -0.468932
O15   O     O_R   0.370260 0.417720 0.500030 -0.470906
O16   O     O_R   0.499980 0.582260 0.316850 -0.467285
O17   O     O_R   0.500020 0.417740 0.683150 -0.466729
O18   O     O_R   0.500020 0.582260 0.683150 -0.488189
O19   O     O_R   0.499980 0.417740 0.316850 -0.489331
O20   O     O_2   0.840515 0.307764 0.853231 -0.273740
S1    S     S_3+6 0.890484 0.403038 0.852595 0.077667
S2    S     S_3+6 0.109556 0.593988 0.145505 0.064800
S3    S     S_3+6 0.092738 0.313419 0.792281 0.054982
S4    S     S_3+6 0.908227 0.686214 0.207330 0.061260

loop_
_geom_bond_atom_site_label_1
_geom_bond_atom_site_label_2
_ccdc_geom_bond_type
C21   C26   S    
C8    C13   A    
C34   C37   A    
C19   O17   A    
Cu1   O14   S    
Cu1   Cu2   S    
H6    N5    S    
C1    O15   A    
C7    C11   A    
O10   S4    D    
Cu1   O16   S    
C37   C41   A    
C3    C9    A    
Cu2   N3    S    
C35   C37   A    
C9    C16   A    
H17   N8    S    
C19   O18   A    
C20   C25   S    
C10   C17   A    
C15   C16   A    
C33   C36   A    
H9    N7    S    
H4    N4    S    
H7    N6    S    
H20   N10   S    
C29   H23   S    
O13   S4    S    
H16   N8    S    
C7    C14   A    
O5    S2    D    
C31   C33   A    
C19   C27   S    
C42   S3    S    
C12   O14   A    
C40   C42   A    
C21   C27   S    
C35   H27   S    
C1    O1    A    
C14   C17   A    
C18   O16   A    
O20   S1    D    
Cu2   O19   S    
C39   C42   A    
Cu1   N1    S    
H13   O6    S    
C34   C39   A    
Cu1   O1    S    
C32   C35   A    
O7    S3    D    
C36   C40   A    
C29   C38   A    
C18   C28   S    
C24   C25   S    
O6    S2    S    
C41   S2    S    
C5    C7    A    
C5    N10   S    
H21   N10   S    
C6    C8    A    
C20   C28   S    
C1    C32   S    
H5    N5    S    
H19   N9    S    
H18   N9    S    
C5    N1    A    
C24   N7    S    
Cu2   O12   S    
O4    S2    D    
C2    C38   A    
O8    S3    D    
O3    S1    S    
C23   C34   A    
H22   N2    S    
C21   N5    S    
C3    N8    S    
C17   H2    S    
C9    C11   A    
C33   H26   S    
C15   H29   S    
C20   C22   S    
C8    C15   A    
C22   C27   S    
C12   C31   S    
H15   O13   S    
C16   H30   S    
O2    S1    D    
H24   N2    S    
C4    C10   A    
C25   H1    S    
C30   H25   S    
C3    N1    A    
C14   H28   S    
H14   O9    S    
C24   C28   S    
C6    N3    A    
C10   C13   A    
C26   H12   S    
Cu2   O17   S    
C6    N2    S    
C25   C27   S    
C23   C38   A    
C26   C28   S    
C20   N4    S    
Cu1   O18   S    
C22   N6    S    
C4    N3    A    
C29   C31   A    
O9    S3    S    
C30   C32   A    
C11   C13   A    
C4    N9    S    
C2    S4    S    
Cu2   O15   S    
C30   C39   A    
C18   O19   A    
H11   O3    S    
O11   S4    D    
C23   C36   A    
C22   C26   S    
C21   C24   S    
C12   O12   A    
C2    C41   A    
H3    N4    S    
H8    N6    S    
H10   N7    S    
C40   S1    S    
