data_mof_unit_59317.cif
_audit_creation_date              2012-12-11T14:48:46-0500
_audit_creation_method            fapswitch 2.2
_symmetry_space_group_name_H-M    P1
_symmetry_Int_Tables_number       1
_space_group_crystal_system       triclinic
_cell_length_a                    7.22984
_cell_length_b                    19.124031
_cell_length_c                    19.088521
_cell_angle_alpha                 89.999864
_cell_angle_beta                  87.591524
_cell_angle_gamma                 89.999664
_cell_volume                      2636.91779239

loop_
_atom_site_label
_atom_site_type_symbol
_atom_type_description
_atom_site_fract_x
_atom_site_fract_y
_atom_site_fract_z
_atom_type_partial_charge
O1    O     O_R   0.350610 0.187000 0.656530 -0.534531
O2    O     O_R   0.649390 0.813000 0.343470 -0.534511
O3    O     O_R   0.149390 0.687000 0.343470 -0.534512
O4    O     O_R   0.850610 0.313000 0.656530 -0.534550
O5    O     O_R   0.655920 0.179060 0.799470 -0.536542
O6    O     O_R   0.344080 0.820940 0.200530 -0.536551
O7    O     O_R   0.844080 0.679060 0.200530 -0.536549
O8    O     O_R   0.155920 0.320940 0.799470 -0.536528
O9    O     O_R   0.826150 0.314000 0.799910 -0.533201
O10   O     O_R   0.173850 0.686000 0.200090 -0.533189
O11   O     O_R   0.673850 0.814000 0.200090 -0.533189
O12   O     O_R   0.326150 0.186000 0.799910 -0.533197
C1    C     C_R   0.485545 0.161637 0.822862 0.690475
C2    C     C_R   0.514455 0.838363 0.177138 0.690482
C3    C     C_R   0.014455 0.661637 0.177138 0.690480
C4    C     C_R   0.985545 0.338363 0.822862 0.690473
O13   O     O_R   0.680230 0.178680 0.657050 -0.525868
O14   O     O_R   0.319770 0.821320 0.342950 -0.525894
O15   O     O_R   0.819770 0.678680 0.342950 -0.525889
O16   O     O_R   0.180230 0.321320 0.657050 -0.525823
C5    C     C_R   0.513966 0.162391 0.634153 0.691785
C6    C     C_R   0.486035 0.837610 0.365846 0.691772
C7    C     C_R   0.986035 0.662390 0.365846 0.691776
C8    C     C_R   0.013965 0.337607 0.634151 0.691823
O17   O     O_3   0.504860 0.294770 0.728200 -0.372504
O18   O     O_3   0.495140 0.705230 0.271800 -0.372509
O19   O     O_3   0.995140 0.794770 0.271800 -0.372510
O20   O     O_3   0.004860 0.205230 0.728200 -0.372515
V1    V     V_3+5 0.779710 0.242290 0.728230 1.497627
V2    V     V_3+5 0.220290 0.757710 0.271770 1.497626
V3    V     V_3+5 0.720290 0.742290 0.271770 1.497632
V4    V     V_3+5 0.279710 0.257710 0.728230 1.497700
C9    C     C_1   0.027454 0.611445 0.119338 -0.130658
C10   C     C_1   0.972546 0.388555 0.880662 -0.130671
C11   C     C_1   0.472547 0.111446 0.880662 -0.130664
C12   C     C_1   0.527453 0.888554 0.119338 -0.130660
C13   C     C_2   0.065344 0.523646 0.009236 -0.081379
C14   C     C_2   0.934655 0.476354 0.990764 -0.081380
C15   C     C_2   0.434658 0.023648 0.990765 -0.081376
C16   C     C_2   0.565342 0.976352 0.009235 -0.081375
C17   C     C_1   0.958922 0.429205 0.930017 0.003473
C18   C     C_1   0.041078 0.570795 0.069983 0.003476
C19   C     C_1   0.541077 0.929204 0.069983 0.003473
C20   C     C_1   0.458923 0.070795 0.930017 0.003473
C21   C     C_R   0.006556 0.389695 0.576824 -0.157103
C22   C     C_R   0.993441 0.610297 0.423169 -0.157138
C23   C     C_R   0.493438 0.889702 0.423170 -0.157135
C24   C     C_R   0.506562 0.110302 0.576826 -0.157120
C25   C     C_R   0.078106 0.583264 0.542668 -0.089987
C26   C     C_R   0.921884 0.416726 0.457327 -0.089971
C27   C     C_R   0.421880 0.083272 0.457330 -0.089977
C28   C     C_R   0.578136 0.916734 0.542664 -0.089981
C29   C     C_R   0.055788 0.631904 0.488353 -0.142907
C30   C     C_R   0.944194 0.368088 0.511643 -0.142933
C31   C     C_R   0.444195 0.131910 0.511646 -0.142922
C32   C     C_R   0.555807 0.868095 0.488350 -0.142917
C33   C     C_R   0.950700 0.539023 0.411621 0.314888
C34   C     C_R   0.049324 0.460966 0.588368 0.314855
C35   C     C_R   0.549334 0.039031 0.588369 0.314878
C36   C     C_R   0.450675 0.960975 0.411625 0.314887
C37   C     C_R   0.966978 0.488912 0.466862 0.006665
C38   C     C_R   0.033040 0.511077 0.533128 0.006618
C39   C     C_R   0.533047 0.988921 0.533128 0.006638
C40   C     C_R   0.466969 0.011086 0.466865 0.006656
O21   O     O_3   0.104569 0.483095 0.653369 -0.638253
H1    H     H_    0.073050 0.448339 0.690253 0.282054
O22   O     O_3   0.895531 0.516880 0.346613 -0.638288
H2    H     H_    0.926649 0.551699 0.309748 0.282108
O23   O     O_3   0.395466 0.983116 0.346622 -0.638288
H3    H     H_    0.426572 0.948298 0.309754 0.282115
O24   O     O_3   0.604554 0.016893 0.653371 -0.638276
H4    H     H_    0.573297 0.051686 0.690246 0.282094
C41   C     C_1   0.762795 0.470071 0.031788 0.382384
N1    N     N_1   0.625294 0.465027 0.064687 -0.322538
C42   C     C_1   0.237205 0.529929 0.968212 0.382383
N2    N     N_1   0.374706 0.534973 0.935313 -0.322544
C43   C     C_1   0.737195 0.970065 0.968208 0.382373
N3    N     N_1   0.874691 0.965017 0.935305 -0.322541
C44   C     C_1   0.262805 0.029935 0.031792 0.382374
N4    N     N_1   0.125309 0.034983 0.064695 -0.322538
C45   C     C_1   0.150653 0.609745 0.607417 0.467060
N5    N     N_1   0.208644 0.631347 0.658732 -0.279879
C46   C     C_1   0.849284 0.390248 0.392586 0.467092
N6    N     N_1   0.791249 0.368648 0.341277 -0.279869
C47   C     C_1   0.349295 0.109754 0.392587 0.467091
N7    N     N_1   0.291275 0.131357 0.341277 -0.279870
C48   C     C_1   0.650741 0.890256 0.607404 0.467079
N8    N     N_1   0.708780 0.868656 0.658712 -0.279874
C49   C     C_1   0.904006 0.294431 0.500251 0.351588
N9    N     N_1   0.872515 0.235854 0.491233 -0.342661
C50   C     C_1   0.095960 0.705562 0.499750 0.351598
N10   N     N_1   0.127440 0.764139 0.508771 -0.342654
C51   C     C_1   0.595987 0.794437 0.499745 0.351596
N11   N     N_1   0.627472 0.735860 0.508766 -0.342663
C52   C     C_1   0.404005 0.205568 0.500254 0.351588
N12   N     N_1   0.372511 0.264145 0.491236 -0.342657

loop_
_geom_bond_atom_site_label_1
_geom_bond_atom_site_label_2
_ccdc_geom_bond_type
C34   C38   A    
C24   C31   A    
C48   N8    T    
O1    C5    A    
C51   N11   T    
O13   V1    S    
C41   N1    T    
O3    C7    A    
C52   N12   T    
O15   V3    S    
C27   C47   S    
C45   N5    T    
C43   N3    T    
C26   C30   A    
C8    C21   S    
O20   V1    S    
O9    C4    A    
C1    C11   S    
O10   C3    A    
C2    C12   S    
O4    C8    A    
O11   C2    A    
C25   C45   S    
C13   C18   S    
C4    C10   S    
C23   C36   A    
C16   C19   S    
O16   C8    A    
O2    C6    A    
O14   V2    S    
O5    C1    A    
O4    V1    S    
O9    V1    S    
C5    C24   S    
O17   V4    S    
O7    C3    A    
C6    C23   S    
C13   C42   S    
O11   V3    S    
O18   V3    S    
O8    C4    A    
C7    C22   S    
O12   V4    S    
O19   V2    S    
C37   C38   A    
C10   C17   T    
C33   O22   S    
C26   C46   S    
O5    V1    S    
C32   C51   S    
C21   C34   A    
O7    V3    S    
O22   H2    S    
O8    V4    S    
C30   C49   S    
C31   C52   S    
C15   C16   D    
C47   N7    T    
O1    V4    S    
O13   C5    A    
C39   C40   A    
O2    V3    S    
C15   C44   S    
O3    V2    S    
O15   C7    A    
C42   N2    T    
C29   C50   S    
C13   C14   D    
O6    C2    A    
O10   V2    S    
C34   O21   S    
C46   N6    T    
C11   C20   T    
C14   C17   S    
O6    V2    S    
C21   C30   A    
C22   C33   A    
C9    C18   T    
C50   N10   T    
C24   C35   A    
O16   V4    S    
C25   C38   A    
O14   C6    A    
C28   C48   S    
C27   C40   A    
C28   C39   A    
C33   C37   A    
C15   C20   S    
C35   C39   A    
C36   C40   A    
O24   H4    S    
C36   O23   S    
C25   C29   A    
C22   C29   A    
C27   C31   A    
O23   H3    S    
C44   N4    T    
O12   C1    A    
O21   H1    S    
C26   C37   A    
C16   C43   S    
C12   C19   T    
C49   N9    T    
C3    C9    S    
C28   C32   A    
C35   O24   S    
C23   C32   A    
C14   C41   S    
