data_mof_unit_11384.cif
_audit_creation_date              2012-12-10T17:52:28-0500
_audit_creation_method            fapswitch 2.2
_symmetry_space_group_name_H-M    P1
_symmetry_Int_Tables_number       1
_space_group_crystal_system       triclinic
_cell_length_a                    19.016283
_cell_length_b                    10.690312
_cell_length_c                    9.909462
_cell_angle_alpha                 91.581341
_cell_angle_beta                  89.941499
_cell_angle_gamma                 92.781542
_cell_volume                      2011.35467341

loop_
_atom_site_label
_atom_site_type_symbol
_atom_type_description
_atom_site_fract_x
_atom_site_fract_y
_atom_site_fract_z
_atom_type_partial_charge
C1    C     C_R   0.505371 0.260845 0.497701 0.887504
C2    C     C_R   0.849330 0.398909 0.507087 -0.008920
C3    C     C_R   0.606966 0.144862 0.672960 -0.139788
C4    C     C_R   0.365010 0.498077 0.499867 0.870268
C5    C     C_R   0.651338 0.086318 0.760609 -0.151627
C6    C     C_R   0.649111 0.956409 0.765964 -0.151761
C7    C     C_R   0.602992 0.884395 0.682732 -0.161585
C8    C     C_R   0.556819 0.941988 0.594015 0.094395
C9    C     C_R   0.558937 0.073622 0.588964 0.038957
C10   C     C_R   0.517258 0.129356 0.491044 -0.221987
C11   C     C_R   0.486991 0.056789 0.384085 0.449214
C12   C     C_R   0.288172 0.480283 0.499376 -0.150752
C13   C     C_R   0.476443 0.930480 0.401125 -0.307760
C14   C     C_R   0.510629 0.873037 0.504557 -0.170945
C15   C     C_R   0.401555 0.345096 0.136364 0.024045
C16   C     C_R   0.503481 0.739879 0.501973 0.912474
C17   C     C_R   0.350390 0.273638 0.064611 -0.124092
C18   C     C_R   0.350118 0.273648 0.924815 -0.262885
C19   C     C_R   0.401072 0.344952 0.856237 -0.166680
C20   C     C_R   0.450968 0.424358 0.925852 0.170476
C21   C     C_R   0.451006 0.424509 0.070448 0.079834
C22   C     C_R   0.546976 0.573044 0.072220 0.005425
C23   C     C_R   0.925336 0.379741 0.506237 0.321663
C24   C     C_R   0.546857 0.572077 0.929318 -0.170319
C25   C     C_R   0.634619 0.495333 0.500130 0.867075
C26   C     C_R   0.253523 0.452202 0.620725 -0.273859
C27   C     C_R   0.182045 0.420209 0.621257 -0.164853
C28   C     C_R   0.143773 0.415787 0.500435 0.027455
C29   C     C_R   0.177727 0.445965 0.379150 -0.260291
C30   C     C_R   0.249245 0.480792 0.377981 0.456836
C31   C     C_2   0.599754 0.656121 0.141710 0.956749
C32   C     C_3   0.276116 0.636116 0.232310 0.111061
C33   C     C_3   0.321454 0.670855 0.111103 -0.785488
C34   C     C_R   0.067624 0.390017 0.502450 0.301636
C35   C     C_3   0.846670 0.483181 0.839474 0.093765
C36   C     C_3   0.890712 0.451979 0.961021 -0.766464
C37   C     C_3   0.513405 0.052941 0.159527 0.133596
C38   C     C_3   0.518123 0.133511 0.036138 -0.826980
C39   C     C_R   0.811466 0.410152 0.629315 0.497388
C40   C     C_R   0.741312 0.443115 0.625007 -0.328783
C41   C     C_R   0.709163 0.468362 0.502061 -0.089475
C42   C     C_R   0.746448 0.454214 0.381564 -0.164204
C43   C     C_R   0.815762 0.419938 0.383964 -0.246083
H1    H     H_    0.281777 0.452341 0.715504 0.185857
H2    H     H_    0.400578 0.333333 0.749184 0.211104
H3    H     H_    0.156904 0.398569 0.716486 0.162650
H4    H     H_    0.584865 0.630779 0.875705 0.140140
H5    H     H_    0.148857 0.444741 0.284912 0.166287
H6    H     H_    0.711480 0.445597 0.718059 0.166983
H7    H     H_    0.721987 0.467769 0.285069 0.214931
H8    H     H_    0.843324 0.412060 0.288663 0.173824
H9    H     H_    0.622769 0.823742 0.233133 0.326110
H10   H     H_    0.295253 0.695546 0.320385 0.125374
H11   H     H_    0.220578 0.656780 0.209810 0.137125
H12   H     H_    0.613574 0.245455 0.667243 0.164200
H13   H     H_    0.305418 0.611137 0.021791 0.256017
H14   H     H_    0.315270 0.770634 0.087369 0.198264
H15   H     H_    0.377702 0.657536 0.133982 0.261258
H16   H     H_    0.794006 0.508846 0.876958 0.147916
H17   H     H_    0.873022 0.565180 0.789643 0.140438
H18   H     H_    0.944323 0.427811 0.927958 0.264943
H19   H     H_    0.895167 0.533985 0.032302 0.205145
H20   H     H_    0.865478 0.371287 0.013961 0.251563
H21   H     H_    0.489841 0.959646 0.127270 0.178947
H22   H     H_    0.568530 0.042133 0.194704 0.154264
H23   H     H_    0.688271 0.141968 0.823230 0.158021
H24   H     H_    0.465494 0.138615 0.989926 0.265777
H25   H     H_    0.540531 0.228447 0.063958 0.256970
H26   H     H_    0.552987 0.090113 0.960581 0.227948
H27   H     H_    0.684304 0.911089 0.832850 0.146343
H28   H     H_    0.606404 0.784094 0.685711 0.151228
H29   H     H_    0.445008 0.876122 0.327054 0.180793
H30   H     H_    0.402260 0.332820 0.242663 0.211217
H31   H     H_    0.312392 0.214474 0.117693 0.154326
H32   H     H_    0.311749 0.214737 0.868971 0.162536
N1    N     N_R   0.030612 0.379585 0.385582 -0.180716
N2    N     N_R   0.960763 0.374535 0.387494 -0.189384
N3    N     N_R   0.962526 0.385030 0.622981 -0.118393
N4    N     N_R   0.032344 0.389825 0.621264 -0.186040
N5    N     N_R   0.499340 0.498800 0.142780 -0.172260
N6    N     N_R   0.499320 0.498720 0.857170 -0.118678
O1    O     O_R   0.500000 0.316780 0.614690 -0.650437
O2    O     O_R   0.581593 0.774197 0.189558 -0.832859
O3    O     O_3   0.281322 0.507348 0.256205 -0.609145
O4    O     O_3   0.840952 0.377452 0.750532 -0.608022
O5    O     O_3   0.471142 0.108233 0.261193 -0.616862
O6    O     O_R   0.499990 0.316750 0.385360 -0.590515
O7    O     O_R   0.398140 0.500000 0.614700 -0.638213
O8    O     O_R   0.398130 0.499970 0.385370 -0.596683
O9    O     O_R   0.500010 0.683250 0.614640 -0.624455
O10   O     O_R   0.500000 0.683220 0.385310 -0.586476
O11   O     O_R   0.601870 0.500030 0.614630 -0.641459
O12   O     O_R   0.601860 0.500000 0.385300 -0.606311
O13   O     O_2   0.660720 0.625669 0.147382 -0.678646
Zn1   Zn    Zn3+2 0.500000 0.500020 0.653130 0.919385
Zn2   Zn    Zn3+2 0.500000 0.499980 0.346870 0.973435

loop_
_geom_bond_atom_site_label_1
_geom_bond_atom_site_label_2
_ccdc_geom_bond_type
C1    O6    A    
C16   O9    A    
C18   H32   S    
C35   O4    S    
C41   C42   A    
C19   C20   A    
C26   H1    S    
C7    C8    A    
C25   O12   A    
C26   C27   A    
C33   H15   S    
C28   C29   A    
C37   C38   S    
C7    H28   S    
C5    C6    A    
N6    Zn1   S    
C11   O5    S    
C40   H6    S    
C31   O2    S    
C35   H16   S    
C18   C19   A    
O10   Zn2   S    
C3    H12   S    
C2    C39   A    
C35   C36   S    
C8    C9    A    
C37   H22   S    
C33   H14   S    
C4    C12   S    
C36   H20   S    
C9    C10   A    
C33   H13   S    
C38   H26   S    
C28   C34   S    
C20   N6    A    
C36   H19   S    
C32   H11   S    
C32   O3    S    
C22   C31   S    
C29   H5    S    
C37   O5    S    
O9    Zn1   S    
N1    N2    A    
C25   C41   S    
C39   C40   A    
N3    N4    A    
C1    O1    A    
O11   Zn1   S    
C12   C26   A    
C35   H17   S    
H9    O2    S    
C24   N6    A    
C29   C30   A    
C3    C9    A    
C34   N4    A    
C2    C43   A    
O6    Zn2   S    
C17   C18   A    
C23   N2    A    
C42   H7    S    
C27   H3    S    
C40   C41   A    
C15   H30   S    
C38   H25   S    
O12   Zn2   S    
C17   H31   S    
C14   C16   S    
N5    Zn2   S    
C42   C43   A    
C39   O4    S    
C36   H18   S    
C38   H24   S    
C32   H10   S    
C2    C23   S    
C37   H21   S    
C4    O8    A    
C6    H27   S    
C25   O11   A    
C8    C14   A    
O1    Zn1   S    
C12   C30   A    
C24   H4    S    
C1    C10   S    
C5    H23   S    
C3    C5    A    
C19   H2    S    
C15   C17   A    
C6    C7    A    
C4    O7    A    
C13   H29   S    
C31   O13   D    
C32   C33   S    
O8    Zn2   S    
C22   N5    A    
C11   C13   A    
C43   H8    S    
C21   N5    A    
C22   C24   A    
C23   N3    A    
C30   O3    S    
O7    Zn1   S    
C10   C11   A    
C15   C21   A    
C20   C21   A    
C16   O10   A    
C27   C28   A    
C13   C14   A    
C34   N1    A    
