data_mof_unit_17280.cif
_audit_creation_date              2012-12-10T19:08:33-0500
_audit_creation_method            fapswitch 2.2
_symmetry_space_group_name_H-M    P1
_symmetry_Int_Tables_number       1
_space_group_crystal_system       triclinic
_cell_length_a                    15.982882
_cell_length_b                    10.872322
_cell_length_c                    9.617779
_cell_angle_alpha                 91.625372
_cell_angle_beta                  92.063975
_cell_angle_gamma                 91.936929
_cell_volume                      1668.52058798

loop_
_atom_site_label
_atom_site_type_symbol
_atom_type_description
_atom_site_fract_x
_atom_site_fract_y
_atom_site_fract_z
_atom_type_partial_charge
C1    C     C_R   0.500301 0.262856 0.498162 0.854312
C2    C     C_R   0.046934 0.474552 0.608908 0.632573
C3    C     C_1   0.822151 0.486798 0.503337 0.164790
C4    C     C_1   0.176289 0.502232 0.487030 0.225941
C5    C     C_1   0.251658 0.501181 0.491930 -0.001147
C6    C     C_1   0.747309 0.491278 0.505994 -0.018874
C7    C     C_R   0.549406 0.069226 0.592816 -0.170242
C8    C     C_R   0.503327 0.130100 0.492917 -0.104379
C9    C     C_R   0.459224 0.060600 0.387904 -0.193898
C10   C     C_R   0.450660 0.932470 0.395729 0.377437
C11   C     C_R   0.496267 0.871413 0.501542 -0.138203
C12   C     C_R   0.341241 0.499924 0.497729 0.836345
C13   C     C_R   0.549300 0.942081 0.594362 -0.159410
C14   C     C_3   0.556025 0.946821 0.750626 0.980446
C15   C     C_3   0.553684 0.085569 0.746841 1.041109
C16   C     C_R   0.570609 0.533659 0.079029 0.003125
C17   C     C_R   0.434048 0.447811 0.064254 0.482572
C18   C     C_R   0.435004 0.450910 0.917172 0.006967
C19   C     C_R   0.571046 0.533278 0.932091 0.098646
C20   C     C_3   0.617755 0.655210 0.936737 0.167049
C21   C     C_3   0.620002 0.651792 0.094620 0.395771
C22   C     C_R   0.498262 0.737504 0.501371 0.898191
C23   C     C_R   0.658402 0.497412 0.502081 0.830534
C24   C     C_R   0.960200 0.470136 0.613330 -0.222015
C25   C     C_R   0.911334 0.484409 0.492277 -0.150515
C26   C     C_R   0.948972 0.503356 0.363482 0.321479
C27   C     C_R   0.037400 0.523635 0.362293 0.231666
C28   C     C_R   0.086056 0.501569 0.484930 -0.199736
Cu1   Cu    Cu3+1 0.500000 0.499980 0.640670 1.089255
Cu2   Cu    Cu3+1 0.500000 0.500020 0.359330 1.124002
H1    H     H_    0.382294 0.414786 0.853697 0.202688
H2    H     H_    0.578020 0.727432 0.894953 0.223968
H3    H     H_    0.682484 0.640135 0.145900 0.150984
H4    H     H_    0.930952 0.454532 0.711572 0.244745
H5    H     H_    0.425183 0.106103 0.306753 0.233703
N1    N     N_R   0.500520 0.500930 0.147930 -0.199934
N2    N     N_R   0.500520 0.500890 0.852020 -0.226782
O1    O     O_R   0.500000 0.319640 0.618810 -0.536887
O2    O     O_R   0.500010 0.319680 0.381230 -0.554599
O3    O     O_R   0.380300 0.499950 0.618760 -0.599166
O4    O     O_R   0.380310 0.499990 0.381180 -0.486892
O5    O     O_R   0.499990 0.680320 0.618770 -0.557812
O6    O     O_R   0.500000 0.680360 0.381190 -0.485348
O7    O     O_R   0.619690 0.500010 0.618820 -0.522089
O8    O     O_R   0.619700 0.500050 0.381240 -0.599248
F1    F     F_    0.093091 0.455601 0.727291 -0.570601
F2    F     F_    0.626810 0.146471 0.795855 -0.594333
S1    S     S_3+6 0.339023 0.380415 0.123192 0.087165
O9    O     O_2   0.282120 0.482809 0.158263 -0.220838
O10   O     O_2   0.296519 0.301656 0.008565 -0.224896
O11   O     O_3   0.351702 0.290505 0.260311 -0.547600
H6    H     H_    0.294207 0.265137 0.285443 0.373983
S2    S     S_3+6 0.720385 0.653730 0.866978 0.085116
O12   O     O_2   0.778811 0.737162 0.955301 -0.163836
O13   O     O_2   0.752695 0.525451 0.864626 -0.273232
O14   O     O_3   0.716308 0.707476 0.704879 -0.498150
H7    H     H_    0.775481 0.724105 0.682004 0.379892
F3    F     F_    0.576173 0.746321 0.152811 -0.601933
S3    S     S_3+6 0.884062 0.500447 0.207952 0.109037
O15   O     O_2   0.853585 0.628040 0.187449 -0.229644
O16   O     O_2   0.930838 0.459657 0.082987 -0.144133
O17   O     O_3   0.800962 0.402843 0.221417 -0.522918
H8    H     H_    0.761398 0.423729 0.144712 0.383198
S4    S     S_3+6 0.086337 0.585086 0.214350 0.140396
O18   O     O_2   0.106870 0.480916 0.116795 -0.148407
O19   O     O_2   0.029236 0.670695 0.139973 -0.168292
O20   O     O_3   0.174618 0.665782 0.261960 -0.458398
H9    H     H_    0.193825 0.702891 0.175257 0.425846
S5    S     S_3+6 0.370089 0.856995 0.290261 0.079708
O21   O     O_2   0.326162 0.762163 0.374474 -0.261842
O22   O     O_2   0.307143 0.947657 0.241648 -0.240725
O23   O     O_3   0.409838 0.787294 0.150476 -0.428553
H10   H     H_    0.429459 0.855401 0.092209 0.407052
F4    F     F_    0.487612 0.892703 0.812518 -0.649016
F5    F     F_    0.632478 0.908596 0.801417 -0.594400
F6    F     F_    0.481893 0.132643 0.801269 -0.620768

loop_
_geom_bond_atom_site_label_1
_geom_bond_atom_site_label_2
_ccdc_geom_bond_type
C16   C21   S    
C23   O8    A    
Cu1   O5    S    
C1    C8    S    
Cu2   O8    S    
C19   C20   S    
C17   S1    S    
C15   F2    S    
C3    C6    T    
C7    C8    A    
S2    O12   D    
C2    F1    S    
C26   C27   A    
Cu1   Cu2   S    
C14   F4    S    
C18   N2    A    
C21   H3    S    
O14   H7    S    
S5    O22   D    
C19   N2    A    
S1    O11   S    
C8    C9    A    
S4    O18   D    
Cu1   O1    S    
Cu2   O4    S    
C17   N1    A    
C26   S3    S    
O23   H10   S    
S1    O10   D    
C15   F6    S    
S3    O15   D    
C13   C14   S    
C9    C10   A    
C4    C28   S    
S2    O13   D    
S3    O16   D    
O20   H9    S    
S4    O20   S    
C3    C25   S    
C24   C25   A    
C5    C12   S    
C27   S4    S    
C4    C5    T    
C25   C26   A    
C24   H4    S    
C23   O7    A    
O11   H6    S    
S4    O19   D    
C12   O3    A    
S5    O23   S    
O17   H8    S    
C22   O6    A    
C17   C18   A    
C1    O1    A    
S1    O9    D    
Cu1   O7    S    
C2    C24   A    
Cu2   O6    S    
C12   O4    A    
C20   H2    S    
S2    O14   S    
S3    O17   S    
C20   S2    S    
C11   C22   S    
Cu2   N1    S    
C14   F5    S    
C21   F3    S    
C16   N1    A    
C11   C13   A    
C22   O5    A    
C16   C19   A    
C6    C23   S    
Cu1   O3    S    
C7    C15   S    
Cu2   O2    S    
S5    O21   D    
C10   C11   A    
C1    O2    A    
C10   S5    S    
C7    C13   A    
C20   C21   S    
Cu1   N2    S    
C27   C28   A    
C9    H5    S    
C14   C15   S    
C2    C28   A    
C18   H1    S    
