data_mof_unit_46917.cif
_audit_creation_date              2012-12-11T15:15:45-0500
_audit_creation_method            fapswitch 2.2
_symmetry_space_group_name_H-M    P1
_symmetry_Int_Tables_number       1
_space_group_crystal_system       triclinic
_cell_length_a                    20.64636
_cell_length_b                    22.771484
_cell_length_c                    6.979192
_cell_angle_alpha                 89.86718
_cell_angle_beta                  87.723614
_cell_angle_gamma                 89.891898
_cell_volume                      3278.65145058

loop_
_atom_site_label
_atom_site_type_symbol
_atom_type_description
_atom_site_fract_x
_atom_site_fract_y
_atom_site_fract_z
_atom_type_partial_charge
O1    O     O_R   0.387100 0.552640 0.378490 -0.528127
O2    O     O_R   0.612900 0.052640 0.621510 -0.532945
O3    O     O_R   0.249610 0.559600 0.072250 -0.492624
O4    O     O_R   0.750390 0.059600 0.927750 -0.493727
O5    O     O_R   0.249120 0.447360 0.902040 -0.517868
O6    O     O_R   0.750880 0.947360 0.097960 -0.515764
C1    C     C_R   0.224533 0.570617 0.242444 0.813477
C2    C     C_R   0.774572 0.071702 0.757342 0.800893
O7    O     O_R   0.386610 0.559560 0.048860 -0.513355
O8    O     O_R   0.613390 0.059560 0.951140 -0.508003
O9    O     O_R   0.387100 0.447320 0.878470 -0.535408
O10   O     O_R   0.612900 0.947320 0.121530 -0.528839
C3    C     C_R   0.404334 0.577937 0.215093 0.851021
C4    C     C_R   0.595748 0.077908 0.783740 0.842981
O11   O     O_R   0.249120 0.552680 0.402050 -0.556075
O12   O     O_R   0.750880 0.052680 0.597950 -0.556394
O13   O     O_3   0.318110 0.463180 0.223790 -0.369777
O14   O     O_3   0.681890 0.963180 0.776210 -0.367287
V1    V     V_3+5 0.318110 0.506830 0.948930 1.646308
V2    V     V_3+5 0.681890 0.006830 0.051070 1.660414
O15   O     O_R   0.386610 0.440400 0.548840 -0.525674
O16   O     O_R   0.613390 0.940400 0.451160 -0.531574
C5    C     C_R   0.408071 0.425608 0.715295 0.785387
C6    C     C_R   0.592372 0.925291 0.285010 0.785871
O17   O     O_R   0.249610 0.440440 0.572240 -0.548953
O18   O     O_R   0.750390 0.940440 0.427760 -0.550058
C7    C     C_R   0.225328 0.428344 0.743774 0.754455
C8    C     C_R   0.774696 0.928328 0.256408 0.754608
V3    V     V_3+5 0.318110 0.493170 0.448930 1.590737
V4    V     V_3+5 0.681890 0.993170 0.551070 1.587252
O19   O     O_3   0.318110 0.536820 0.723940 -0.362394
O20   O     O_3   0.681890 0.036820 0.276060 -0.361238
C9    C     C_R   0.168042 0.388677 0.759544 -0.185491
C10   C     C_R   0.831912 0.888490 0.240789 -0.182062
C11   C     C_R   0.146443 0.360337 0.594834 -0.222454
C12   C     C_R   0.853426 0.859745 0.405429 -0.225638
C13   C     C_R   0.089664 0.326677 0.602732 0.573039
C14   C     C_R   0.909836 0.825421 0.397003 0.572847
C15   C     C_R   0.062514 0.309548 0.782152 0.012779
C16   C     C_R   0.936739 0.808442 0.217283 0.013590
C17   C     C_R   0.082251 0.338828 0.944875 -0.193637
C18   C     C_R   0.917241 0.838274 0.054865 -0.190801
C19   C     C_R   0.131298 0.381024 0.933362 0.256616
C20   C     C_R   0.868491 0.880839 0.066715 0.259535
C21   C     C_R   0.924235 0.157613 0.893662 -0.237950
C22   C     C_R   0.073405 0.654808 0.105548 -0.236892
C23   C     C_R   0.870158 0.120193 0.909357 0.490504
C24   C     C_R   0.127863 0.617642 0.090405 0.491612
C25   C     C_R   0.851493 0.137090 0.571182 -0.229965
C26   C     C_R   0.146895 0.635465 0.427703 -0.228137
C27   C     C_R   0.907260 0.171654 0.555849 -0.115356
C28   C     C_R   0.090831 0.669758 0.442516 -0.120074
C29   C     C_R   0.943616 0.182175 0.717098 0.009265
C30   C     C_R   0.054173 0.679731 0.281392 0.009954
C31   C     C_2   0.007385 0.267943 0.800499 -0.219266
C32   C     C_2   0.991371 0.766254 0.198350 -0.219687
C33   C     C_2   0.003070 0.217639 0.699915 0.333583
C34   C     C_2   0.994906 0.715533 0.297664 0.335238
C35   C     C_R   0.832200 0.110807 0.746708 -0.113777
C36   C     C_R   0.166245 0.609028 0.252759 -0.107925
H1    H     H_    0.171827 0.366359 0.458378 0.211932
H2    H     H_    0.828210 0.865822 0.542109 0.211905
H3    H     H_    0.823489 0.130752 0.445117 0.201044
H4    H     H_    0.175156 0.629577 0.553642 0.199934
H5    H     H_    0.057201 0.330655 0.079463 0.205603
H6    H     H_    0.942169 0.830152 0.920154 0.203937
H7    H     H_    0.952055 0.166740 0.018471 0.139785
H8    H     H_    0.045308 0.663662 0.980907 0.139923
H9    H     H_    0.967534 0.279986 0.899364 0.100075
H10   H     H_    0.031545 0.778229 0.100543 0.099549
H11   H     H_    0.921707 0.190777 0.418441 0.148434
H12   H     H_    0.076460 0.689206 0.579280 0.148295
C37   C     C_R   0.581527 0.371057 0.714392 0.455735
C38   C     C_R   0.419607 0.871641 0.269105 0.461117
C39   C     C_R   0.464687 0.385681 0.717231 -0.178405
C40   C     C_R   0.535978 0.885458 0.282091 -0.181702
C41   C     C_R   0.479746 0.100337 0.762913 0.201642
C42   C     C_R   0.521003 0.600815 0.185906 0.201802
C43   C     C_R   0.430001 0.136692 0.700944 0.312926
C44   C     C_R   0.573039 0.638949 0.147022 0.310381
C45   C     C_R   0.441925 0.196350 0.663311 0.191306
C46   C     C_R   0.562897 0.699904 0.139118 0.195009
C47   C     C_R   0.500593 0.222721 0.720507 -0.022421
C48   C     C_R   0.501648 0.724257 0.197630 -0.023693
C49   C     C_R   0.553207 0.185052 0.769416 -0.094410
C50   C     C_R   0.446959 0.685579 0.205622 -0.097557
C51   C     C_R   0.509166 0.285264 0.725211 0.021682
C52   C     C_R   0.492326 0.786058 0.232956 0.017622
C53   C     C_R   0.572777 0.308981 0.725784 -0.136292
C54   C     C_R   0.428445 0.809684 0.250320 -0.147042
C55   C     C_R   0.625953 0.270720 0.748903 0.463363
C56   C     C_R   0.374616 0.771598 0.243096 0.465499
C57   C     C_R   0.614364 0.211422 0.799675 0.133163
C58   C     C_R   0.384405 0.711485 0.203627 0.140529
C59   C     C_R   0.456031 0.324908 0.737161 -0.173393
C60   C     C_R   0.544790 0.824605 0.265497 -0.170037
C61   C     C_R   0.527517 0.408544 0.700494 0.202756
C62   C     C_R   0.473366 0.908828 0.285743 0.205318
C63   C     C_R   0.542701 0.122513 0.779950 -0.160810
C64   C     C_R   0.457395 0.622751 0.207876 -0.167593
H13   H     H_    0.407348 0.309180 0.767098 0.175390
H14   H     H_    0.593020 0.807947 0.284747 0.178845
Br1   Br    Br    0.539801 0.491925 0.667578 -0.402494
Br2   Br    Br    0.460776 0.992122 0.320476 -0.397715
O21   O     O_3   0.687471 0.288296 0.682939 -0.521737
C65   C     C_3   0.730760 0.295667 0.832825 -0.085375
H15   H     H_    0.706641 0.300208 0.977738 0.129517
H16   H     H_    0.759796 0.335816 0.803604 0.150903
H17   H     H_    0.765998 0.258804 0.831562 0.165907
O22   O     O_3   0.314656 0.790180 0.319253 -0.520788
C66   C     C_3   0.268827 0.798982 0.176529 -0.076924
H18   H     H_    0.290228 0.801536 0.027581 0.124753
H19   H     H_    0.242330 0.840460 0.207566 0.152656
H20   H     H_    0.231700 0.763828 0.186436 0.165147
O23   O     O_3   0.642959 0.395307 0.716528 -0.517988
C67   C     C_3   0.654046 0.416338 0.902996 -0.059290
H21   H     H_    0.637220 0.385230 0.017999 0.102119
H22   H     H_    0.631229 0.459783 0.926872 0.226386
H23   H     H_    0.706848 0.422864 0.916700 0.152748
O24   O     O_3   0.358224 0.896258 0.270692 -0.518045
C68   C     C_3   0.345912 0.917308 0.084747 -0.067164
H24   H     H_    0.360679 0.885533 0.969783 0.104782
H25   H     H_    0.369811 0.960039 0.057551 0.223851
H26   H     H_    0.293161 0.925315 0.075266 0.151422
Br3   Br    Br    0.463150 0.018090 0.810473 -0.444317
Br4   Br    Br    0.535838 0.516997 0.181586 -0.444211
Br5   Br    Br    0.385135 0.234913 0.487201 -0.442561
Br6   Br    Br    0.626329 0.744529 0.986867 -0.445370
Br7   Br    Br    0.346002 0.103602 0.655441 -0.274318
Br8   Br    Br    0.658618 0.607059 0.093897 -0.293985
Br9   Br    Br    0.676730 0.174846 0.958591 -0.584129
Br10  Br    Br    0.315961 0.674155 0.074108 -0.593891
O25   O     O_3   0.852145 0.094873 0.084482 -0.551562
C69   C     C_3   0.903178 0.060211 0.152891 -0.217439
H27   H     H_    0.938635 0.087929 0.226607 0.154441
H28   H     H_    0.928265 0.034082 0.037305 0.169850
H29   H     H_    0.882549 0.028700 0.260267 0.163063
O26   O     O_3   0.146032 0.591969 0.916139 -0.551450
C70   C     C_3   0.094752 0.558198 0.846188 -0.217738
H30   H     H_    0.060287 0.586488 0.769866 0.154206
H31   H     H_    0.068535 0.532682 0.961343 0.170178
H32   H     H_    0.115344 0.526192 0.740632 0.163443
Br11  Br    Br    0.074176 0.184945 0.548010 -0.409934
Br12  Br    Br    0.923238 0.683132 0.447735 -0.405039
Br13  Br    Br    0.137828 0.431909 0.150539 -0.627876
Br14  Br    Br    0.862039 0.931946 0.849113 -0.624424
O27   O     O_3   0.059877 0.312709 0.435063 -0.529281
C71   C     C_3   0.004009 0.348458 0.420475 -0.245298
H33   H     H_    0.018046 0.394421 0.385093 0.179723
H34   H     H_    0.971751 0.348162 0.551835 0.128171
H35   H     H_    0.974408 0.331439 0.303702 0.154803
O28   O     O_3   0.939376 0.810424 0.564467 -0.528451
C72   C     C_3   0.995766 0.845222 0.579836 -0.248635
H36   H     H_    0.982381 0.891214 0.616978 0.179142
H37   H     H_    0.027931 0.845100 0.448279 0.127617
H38   H     H_    0.025192 0.827157 0.695810 0.154683

loop_
_geom_bond_atom_site_label_1
_geom_bond_atom_site_label_2
_ccdc_geom_bond_type
C47   C51   A    
C52   C60   A    
C25   H3    S    
C60   H14   S    
C26   H4    S    
C55   O21   S    
C66   H18   S    
C71   H35   S    
O4    C2    A    
V1    O19   S    
C69   H29   S    
C39   C59   A    
C4    C63   S    
C38   C62   A    
C7    C9    S    
C37   C61   A    
O9    V1    S    
C27   H11   S    
C49   C63   A    
C11   C13   A    
C71   H34   S    
O3    C1    A    
C2    C35   S    
V2    O20   S    
C70   H32   S    
C42   C44   A    
C65   H15   S    
C40   C62   A    
O23   C67   S    
C43   Br7   S    
C39   C61   A    
O13   V3    S    
C67   H21   S    
O7    C3    A    
O22   C66   S    
C68   H26   S    
C50   C58   A    
O13   V1    S    
O5    C7    A    
C49   C57   A    
O7    V1    S    
C15   C31   S    
O27   C71   S    
O8    V2    S    
C16   C32   S    
C51   C59   A    
C21   H7    S    
C26   C28   A    
O3    V1    S    
O14   V4    S    
C32   C34   D    
C72   H37   S    
C50   C64   A    
C10   C12   A    
C24   C36   A    
C16   C18   A    
C8    C10   S    
C2    O12   A    
C23   O25   S    
C17   C19   A    
O10   V2    S    
C18   C20   A    
C12   H2    S    
C14   O28   S    
C45   C47   A    
C28   C30   A    
O11   V3    S    
C21   C23   A    
O17   V3    S    
C54   C56   A    
C22   C24   A    
C23   C35   A    
C44   Br8   S    
C33   Br11  S    
C9    C19   A    
C10   C20   A    
C71   H33   S    
C44   C46   A    
O8    C4    A    
C43   C45   A    
C29   C33   S    
C6    C40   S    
C17   H5    S    
C1    O11   A    
C25   C27   A    
O15   V3    S    
C58   Br10  S    
C27   C29   A    
C22   H8    S    
C28   H12   S    
V4    O20   S    
C55   C57   A    
C20   Br14  S    
C22   C30   A    
O1    V3    S    
C41   C43   A    
C66   H19   S    
C61   Br1   S    
C13   O27   S    
C72   H38   S    
C46   Br6   S    
C68   H24   S    
C31   H9    S    
C47   C49   A    
C52   C54   A    
O18   V4    S    
C46   C48   A    
C31   C33   D    
C42   C64   A    
O25   C69   S    
O16   C6    A    
C53   C55   A    
C12   C14   A    
C42   Br4   S    
C1    C36   S    
C41   Br3   S    
O24   C68   S    
C30   C34   S    
O16   V4    S    
O18   C8    A    
C48   C52   A    
C5    C39   S    
C25   C35   A    
C69   H28   S    
C70   H30   S    
C69   H27   S    
O5    V1    S    
O17   C7    A    
C38   O24   S    
O21   C65   S    
O10   C6    A    
C32   H10   S    
C37   O23   S    
C67   H23   S    
C24   O26   S    
O2    V4    S    
C26   C36   A    
C19   Br13  S    
C38   C54   A    
C3    C64   S    
O15   C5    A    
C37   C53   A    
V3    O19   S    
C40   C60   A    
C14   C16   A    
C70   H31   S    
C56   O22   S    
C56   C58   A    
C65   H16   S    
O6    V2    S    
C11   H1    S    
C62   Br2   S    
O9    C5    A    
C9    C11   A    
C67   H22   S    
C41   C63   A    
C66   H20   S    
O14   V2    S    
O2    C4    A    
C68   H25   S    
O26   C70   S    
C21   C29   A    
O4    V2    S    
C34   Br12  S    
O6    C8    A    
O1    C3    A    
O28   C72   S    
C15   C17   A    
C13   C15   A    
C18   H6    S    
C51   C53   A    
C48   C50   A    
C72   H36   S    
C57   Br9   S    
O12   V4    S    
C45   Br5   S    
C59   H13   S    
C65   H17   S    
