data_mof_unit_36404.cif
_audit_creation_date              2012-12-11T15:55:42-0500
_audit_creation_method            fapswitch 2.2
_symmetry_space_group_name_H-M    P1
_symmetry_Int_Tables_number       1
_space_group_crystal_system       triclinic
_cell_length_a                    6.938243
_cell_length_b                    14.544346
_cell_length_c                    16.091331
_cell_angle_alpha                 89.990339
_cell_angle_beta                  89.966393
_cell_angle_gamma                 90.034368
_cell_volume                      1623.81112731

loop_
_atom_site_label
_atom_site_type_symbol
_atom_type_description
_atom_site_fract_x
_atom_site_fract_y
_atom_site_fract_z
_atom_type_partial_charge
O1    O     O_R   0.505680 0.583900 0.413320 -0.540084
O2    O     O_R   0.176010 0.594950 0.586080 -0.543112
O3    O     O_R   0.005680 0.416100 0.586680 -0.536715
C1    C     C_R   0.345042 0.617134 0.615052 0.686275
O4    O     O_R   0.175960 0.594930 0.413930 -0.543111
O5    O     O_R   0.005640 0.416080 0.413300 -0.540681
C2    C     C_R   0.345069 0.617171 0.385012 0.687824
O6    O     O_R   0.505720 0.583920 0.586700 -0.540172
O7    O     O_3   0.339190 0.441320 0.500000 -0.370218
V1    V     V_3+5 0.064350 0.510890 0.500000 1.397313
O8    O     O_R   0.675920 0.405050 0.413920 -0.543939
C3    C     C_R   0.844978 0.382788 0.384996 0.684715
O9    O     O_R   0.675960 0.405070 0.586070 -0.543315
C4    C     C_R   0.844727 0.382982 0.614865 0.697583
V2    V     V_3+5 0.564340 0.489110 0.500000 1.394008
O10   O     O_3   0.839370 0.558680 0.500000 -0.369709
C5    C     C_R   0.006729 0.317705 0.741776 0.102506
C6    C     C_R   0.852644 0.317511 0.685489 -0.112673
C7    C     C_R   0.701362 0.255100 0.700695 -0.176923
H1    H     H_    0.579218 0.252435 0.659170 0.132775
C8    C     C_R   0.712639 0.190933 0.766172 -0.175684
H2    H     H_    0.598237 0.141035 0.773281 0.126960
C9    C     C_R   0.875850 0.186992 0.818245 -0.111554
C10   C     C_R   0.018337 0.253948 0.806332 0.103817
C11   C     C_3   0.229975 0.242336 0.794858 -0.408538
C12   C     C_3   0.217457 0.312196 0.724880 -0.397909
H3    H     H_    0.267213 0.172046 0.773114 0.166841
H4    H     H_    0.313434 0.267363 0.849294 0.177174
H5    H     H_    0.248280 0.282698 0.662563 0.171077
H6    H     H_    0.292861 0.377815 0.739005 0.169638
C13   C     C_R   0.046787 0.224646 0.217575 -0.157104
H7    H     H_    0.187466 0.206150 0.193718 0.116651
C14   C     C_R   0.035657 0.288193 0.282799 -0.152031
H8    H     H_    0.168327 0.316835 0.306988 0.118687
C15   C     C_R   0.856163 0.314442 0.316155 -0.046475
C16   C     C_R   0.688118 0.275361 0.282371 -0.157499
H9    H     H_    0.547439 0.293858 0.306227 0.116431
C17   C     C_R   0.699249 0.211812 0.217148 -0.151596
H10   H     H_    0.566579 0.183170 0.192957 0.118786
C18   C     C_R   0.878743 0.185559 0.183795 -0.046644
C19   C     C_R   0.188143 0.724573 0.717624 -0.157686
H11   H     H_    0.047491 0.706138 0.693711 0.116687
C20   C     C_R   0.199243 0.788144 0.782820 -0.152616
H12   H     H_    0.066580 0.816872 0.806935 0.118490
C21   C     C_R   0.378706 0.814324 0.816227 -0.046932
C22   C     C_R   0.546750 0.775139 0.782545 -0.158099
H13   H     H_    0.687403 0.793573 0.806457 0.116627
C23   C     C_R   0.535650 0.711568 0.717349 -0.152256
H14   H     H_    0.668313 0.682841 0.693233 0.118794
C24   C     C_R   0.356192 0.685419 0.683918 -0.047503
C25   C     C_R   0.188258 0.724688 0.282571 -0.156688
H15   H     H_    0.047596 0.706276 0.306565 0.116892
C26   C     C_R   0.199364 0.788245 0.217354 -0.151449
H16   H     H_    0.066709 0.816986 0.193301 0.118947
C27   C     C_R   0.378829 0.814386 0.183844 -0.046781
C28   C     C_R   0.546879 0.775200 0.217451 -0.156632
H17   H     H_    0.687535 0.793615 0.193454 0.116898
C29   C     C_R   0.535772 0.711640 0.282670 -0.151446
H18   H     H_    0.668420 0.682896 0.306728 0.118981
C30   C     C_R   0.356303 0.685502 0.316180 -0.047024
O11   O     O_R   0.229200 0.915950 0.913350 -0.540771
O12   O     O_R   0.559090 0.905000 0.086080 -0.543144
O13   O     O_R   0.729280 0.083880 0.086680 -0.540380
C31   C     C_R   0.390011 0.882724 0.115016 0.687568
O14   O     O_R   0.558920 0.904980 0.913920 -0.543895
O15   O     O_R   0.729110 0.083860 0.913300 -0.539539
C32   C     C_R   0.389871 0.882700 0.885023 0.683556
O16   O     O_R   0.229360 0.915970 0.086730 -0.540458
O17   O     O_3   0.395680 0.058580 0.000030 -0.368470
V3    V     V_3+5 0.670570 0.989070 0.999990 1.396768
O18   O     O_R   0.058820 0.094950 0.913870 -0.539811
C33   C     C_R   0.889764 0.116852 0.884948 0.697323
O19   O     O_R   0.058990 0.094970 0.086020 -0.543572
C34   C     C_R   0.889934 0.117205 0.114961 0.685969
V4    V     V_3+5 0.170560 0.010930 0.999930 1.398501
O20   O     O_3   0.895590 0.941310 0.999960 -0.370222

loop_
_geom_bond_atom_site_label_1
_geom_bond_atom_site_label_2
_ccdc_geom_bond_type
C17   C18   A    
C27   C28   A    
V4    O20   S    
C19   C20   A    
O19   C34   A    
C4    C6    S    
C15   C16   A    
C1    O6    A    
C26   H16   S    
O11   V4    S    
O16   V4    S    
C5    C12   S    
C31   O16   A    
C16   H9    S    
C7    C8    A    
O5    C3    A    
C17   H10   S    
C29   C30   A    
O14   V3    S    
C28   H17   S    
O12   V3    S    
C6    C7    A    
C19   H11   S    
O12   C31   A    
C13   C18   A    
O8    V2    S    
O15   C33   A    
C7    H1    S    
C18   C34   S    
O14   C32   A    
C21   C32   S    
C9    C10   A    
C13   C14   A    
O1    V2    S    
O7    V1    S    
C23   C24   A    
C8    H2    S    
O19   V4    S    
C14   H8    S    
C26   C27   A    
C8    C9    A    
C22   C23   A    
C5    C10   A    
C25   H15   S    
C10   C11   S    
O4    C2    A    
C11   C12   S    
C21   C22   A    
C1    C24   S    
C11   H4    S    
C19   C24   A    
O2    C1    A    
C20   H12   S    
O11   C32   A    
C13   H7    S    
O13   V3    S    
C27   C31   S    
C5    C6    A    
C3    C15   S    
C20   C21   A    
O3    C4    A    
C23   H14   S    
C12   H6    S    
O6    V2    S    
O9    V2    S    
V3    O20   S    
O2    V1    S    
C2    C30   S    
C22   H13   S    
O1    C2    A    
C9    C33   S    
O5    V1    S    
O8    C3    A    
O13   C34   A    
C11   H3    S    
C16   C17   A    
C29   H18   S    
O4    V1    S    
O3    V1    S    
V1    O10   S    
O18   V4    S    
O15   V3    S    
C14   C15   A    
C28   C29   A    
O17   V4    S    
O7    V2    S    
O17   V3    S    
O18   C33   A    
C12   H5    S    
C25   C30   A    
C25   C26   A    
O9    C4    A    
V2    O10   S    
