data_mof_unit_36374.cif
_audit_creation_date              2012-12-11T15:55:40-0500
_audit_creation_method            fapswitch 2.2
_symmetry_space_group_name_H-M    P1
_symmetry_Int_Tables_number       1
_space_group_crystal_system       triclinic
_cell_length_a                    11.056498
_cell_length_b                    11.077198
_cell_length_c                    18.751133
_cell_angle_alpha                 90.501049
_cell_angle_beta                  90.953139
_cell_angle_gamma                 59.065701
_cell_volume                      1969.60598974

loop_
_atom_site_label
_atom_site_type_symbol
_atom_type_description
_atom_site_fract_x
_atom_site_fract_y
_atom_site_fract_z
_atom_type_partial_charge
C1    C     C_R   0.361908 0.764335 0.395025 0.530426
C2    C     C_R   0.241540 0.446622 0.197127 -0.154840
C3    C     C_R   0.243232 0.452862 0.271273 -0.042779
C4    C     C_R   0.388956 0.358704 0.385760 0.544129
C5    C     C_R   0.855934 0.765128 0.369580 -0.128707
C6    C     C_R   0.869854 0.641638 0.342858 -0.100087
C7    C     C_R   0.997551 0.535613 0.313866 -0.097964
C8    C     C_R   0.109683 0.559041 0.306546 0.033164
C9    C     C_R   0.370343 0.357208 0.308221 -0.004171
C10   C     C_R   0.867629 0.329945 0.183692 0.027192
C11   C     C_R   0.951548 0.221757 0.231985 0.002476
C12   C     C_R   0.619397 0.150415 0.159464 0.046582
C13   C     C_R   0.922268 0.237186 0.303804 -0.020605
C14   C     C_R   0.724648 0.469810 0.280134 -0.165162
C15   C     C_R   0.756807 0.457041 0.208327 -0.166009
C16   C     C_R   0.772103 0.381378 0.402032 0.544863
C17   C     C_3   0.983492 0.073392 0.232381 -0.251084
C18   C     C_3   0.949209 0.092046 0.310706 -0.291049
C19   C     C_R   0.808177 0.360500 0.328239 0.022460
C20   C     C_R   0.367448 0.835620 0.173368 0.014192
C21   C     C_R   0.395622 0.912846 0.223389 0.015962
C22   C     C_R   0.396532 0.889574 0.295732 -0.002146
C23   C     C_R   0.359384 0.343817 0.159331 -0.013048
C24   C     C_R   0.377130 0.688491 0.269621 -0.180904
C25   C     C_R   0.369894 0.714857 0.196437 -0.174356
C26   C     C_3   0.327081 0.067408 0.233834 -0.257004
C27   C     C_3   0.328893 0.041952 0.313350 -0.292122
C28   C     C_R   0.342118 0.772394 0.603251 0.546461
C29   C     C_R   0.366896 0.789331 0.319549 0.002688
C30   C     C_R   0.313079 0.334633 0.817050 0.014675
C31   C     C_R   0.446867 0.270050 0.786962 0.018445
C32   C     C_R   0.459766 0.269761 0.714654 0.047802
C33   C     C_R   0.208787 0.418757 0.699154 -0.179353
C34   C     C_R   0.493507 0.271886 0.269206 -0.161012
C35   C     C_R   0.194117 0.418002 0.773182 -0.167034
C36   C     C_3   0.572813 0.123566 0.793136 -0.270473
C37   C     C_3   0.582360 0.122753 0.712849 -0.263271
C38   C     C_R   0.342500 0.336278 0.669254 0.019774
C39   C     C_R   0.813297 0.329201 0.836083 0.015804
C40   C     C_R   0.370867 0.350340 0.596042 0.547159
C41   C     C_R   0.744835 0.461581 0.803447 0.019147
C42   C     C_R   0.737297 0.471743 0.730440 0.045982
C43   C     C_R   0.843327 0.221547 0.718391 -0.166628
C44   C     C_R   0.852776 0.209583 0.792960 -0.162157
C45   C     C_R   0.490727 0.262976 0.195255 -0.038173
C46   C     C_3   0.764717 0.585720 0.810153 -0.273633
C47   C     C_3   0.762579 0.591484 0.729710 -0.267499
C48   C     C_R   0.792909 0.353217 0.686628 0.023691
C49   C     C_R   0.287898 0.871220 0.820073 0.023166
C50   C     C_R   0.179288 0.872255 0.781289 0.018876
C51   C     C_R   0.186468 0.858594 0.708198 0.019304
C52   C     C_R   0.761974 0.377682 0.610928 0.545023
C53   C     C_R   0.393808 0.876794 0.707702 -0.163679
C54   C     C_R   0.389386 0.885315 0.781993 -0.150128
C55   C     C_3   0.116119 0.782632 0.789542 -0.282692
C56   C     C_R   0.085782 0.692327 0.325336 -0.045557
C57   C     C_3   0.123631 0.766886 0.709172 -0.260731
C58   C     C_R   0.302334 0.845662 0.671216 0.020842
C59   C     C_R   0.912600 0.314723 0.111561 0.538815
C60   C     C_R   0.329767 0.296997 0.091110 0.533704
C61   C     C_R   0.310817 0.896315 0.104033 0.538137
C62   C     C_R   0.880470 0.310293 0.905567 0.544647
C63   C     C_R   0.295851 0.290262 0.886302 0.551218
C64   C     C_R   0.841476 0.930505 0.083344 -0.109352
C65   C     C_R   0.271761 0.900743 0.896070 0.545010
C66   C     C_R   0.798318 0.901909 0.147358 -0.124811
C67   C     C_R   0.965561 0.789374 0.361828 -0.107232
C68   C     C_R   0.687772 0.010973 0.185248 -0.105171
C69   C     C_R   0.666533 0.178483 0.096041 -0.061001
C70   C     C_R   0.775175 0.068357 0.057606 -0.080249
Cr1   Cr    Cr6+3 0.601740 0.606840 0.505840 1.004449
Cr2   Cr    Cr6+3 0.291500 0.601560 0.495070 1.015317
Cr3   Cr    Cr6+3 0.606780 0.291630 0.499130 1.001291
Cr4   Cr    Cr6+3 0.062440 0.063060 0.008240 0.983712
Cr5   Cr    Cr6+3 0.062950 0.375000 0.998920 0.997913
Cr6   Cr    Cr6+3 0.374550 0.061770 0.992470 1.014920
H1    H     H_    0.593626 0.207404 0.296599 0.139168
H2    H     H_    0.041936 0.025919 0.345763 0.136736
H3    H     H_    0.384184 0.592844 0.287504 0.133746
H4    H     H_    0.807448 0.089723 0.007548 0.134031
H5    H     H_    0.358034 0.646635 0.158905 0.126255
H6    H     H_    0.220647 0.128165 0.209122 0.145727
H7    H     H_    0.399456 0.101963 0.218642 0.161460
H8    H     H_    0.222365 0.086731 0.336261 0.140025
H9    H     H_    0.116760 0.481089 0.665562 0.120976
H10   H     H_    0.089660 0.473088 0.795099 0.127503
H11   H     H_    0.549798 0.043483 0.812092 0.153451
H12   H     H_    0.758819 0.843506 0.394292 0.111497
H13   H     H_    0.662900 0.121895 0.821120 0.131307
H14   H     H_    0.679402 0.116031 0.693524 0.150423
H15   H     H_    0.955838 0.884496 0.382928 0.110365
H16   H     H_    0.555975 0.048933 0.686314 0.127691
H17   H     H_    0.881235 0.128028 0.685843 0.118987
H18   H     H_    0.903890 0.105441 0.816163 0.138372
H19   H     H_    0.867385 0.563120 0.832600 0.161203
H20   H     H_    0.672314 0.677556 0.834784 0.129427
H21   H     H_    0.672893 0.688256 0.707285 0.147105
H22   H     H_    0.866491 0.561717 0.706881 0.130599
H23   H     H_    0.779021 0.632744 0.344715 0.158152
H24   H     H_    0.475431 0.882216 0.679631 0.109674
H25   H     H_    0.467724 0.899076 0.809562 0.124717
H26   H     H_    0.006312 0.843101 0.809345 0.128813
H27   H     H_    0.926188 0.845892 0.053645 0.106468
H28   H     H_    0.187192 0.682863 0.818487 0.144655
H29   H     H_    0.199781 0.658250 0.691701 0.175366
H30   H     H_    0.018249 0.817259 0.682505 0.128589
H31   H     H_    0.849725 0.795130 0.167383 0.121895
H32   H     H_    0.653763 0.985723 0.233802 0.106147
H33   H     H_    0.156765 0.724397 0.310912 0.137173
H34   H     H_    0.007913 0.438376 0.295032 0.124598
H35   H     H_    0.615489 0.284570 0.075053 0.094165
H36   H     H_    0.142292 0.514350 0.169523 0.143244
H37   H     H_    0.401345 0.065523 0.343914 0.148926
H38   H     H_    0.637016 0.566720 0.299104 0.139623
H39   H     H_    0.694318 0.544045 0.172300 0.131330
H40   H     H_    0.095827 0.995852 0.222512 0.163267
H41   H     H_    0.908302 0.059008 0.199339 0.173394
H42   H     H_    0.851441 0.091426 0.322722 0.142888
O1    O     O_R   0.748670 0.497520 0.427970 -0.534938
O2    O     O_R   0.417470 0.174910 0.067830 -0.502795
O3    O     O_R   0.375160 0.946380 0.070880 -0.492846
O4    O     O_R   0.476470 0.723930 0.429450 -0.503472
O5    O     O_R   0.160500 0.919670 0.926690 -0.522726
O6    O     O_R   0.933140 0.190380 0.936050 -0.525808
O7    O     O_R   0.909010 0.403210 0.925030 -0.525429
O8    O     O_R   0.179590 0.361290 0.918480 -0.511382
O9    O     O_R   0.391360 0.170840 0.907510 -0.530053
O10   O     O_R   0.350950 0.942600 0.922260 -0.514678
O11   O     O_3   0.166650 0.166610 0.999880 -0.245421
O12   O     O_R   0.300170 0.471020 0.567120 -0.505344
O13   O     O_R   0.264730 0.744140 0.416740 -0.538097
O14   O     O_R   0.309440 0.472410 0.418220 -0.490844
O15   O     O_R   0.501630 0.260530 0.414310 -0.536780
O16   O     O_R   0.727920 0.305730 0.428950 -0.507949
O17   O     O_R   0.738670 0.496020 0.588600 -0.516274
O18   O     O_R   0.467190 0.722540 0.578350 -0.503509
O19   O     O_R   0.254720 0.742640 0.577370 -0.523330
O20   O     O_R   0.491630 0.259030 0.574940 -0.518614
O21   O     O_R   0.718640 0.304340 0.577850 -0.505691
O22   O     O_3   0.500010 0.500010 0.500020 -0.254198
O23   O     O_R   0.186620 0.923750 0.087000 -0.524822
O24   O     O_R   0.957350 0.194160 0.084660 -0.508365
O25   O     O_R   0.935120 0.407280 0.085350 -0.521991
O26   O     O_R   0.203800 0.365060 0.067090 -0.511327

loop_
_geom_bond_atom_site_label_1
_geom_bond_atom_site_label_2
_ccdc_geom_bond_type
C36   H13   S    
C64   H27   S    
Cr4   O6    S    
C12   C69   A    
C26   H7    S    
C23   C45   A    
C22   C29   A    
C69   H35   S    
C41   C42   A    
Cr1   O4    S    
C57   H29   S    
C66   H31   S    
C5    C67   A    
C16   O16   A    
C8    C56   A    
C62   O6    A    
C7    C8    A    
C4    O14   A    
C53   C54   A    
C12   C68   A    
C55   H26   S    
C2    H36   S    
C26   C27   S    
Cr6   O2    S    
C47   H22   S    
C49   C65   S    
C13   C18   S    
Cr6   O3    S    
C27   H8    S    
C10   C15   A    
C31   C36   S    
C34   H1    S    
Cr1   O17   S    
C30   C31   A    
C35   H10   S    
Cr3   O20   S    
C49   C54   A    
C52   O21   A    
C61   O3    A    
C20   C61   S    
C33   H9    S    
C1    O4    A    
C54   H25   S    
C33   C35   A    
C24   C29   A    
C5    H12   S    
C46   H19   S    
C59   O24   A    
C40   O20   A    
C41   C46   S    
C60   O2    A    
C51   C57   S    
C64   C70   A    
C43   C48   A    
C18   H42   S    
C17   H41   S    
C57   H30   S    
Cr4   O24   S    
C59   O25   A    
C53   H24   S    
C21   C22   A    
C25   H5    S    
C26   H6    S    
C67   H15   S    
C21   C26   S    
Cr2   O14   S    
C36   H11   S    
C23   C60   S    
C66   C68   A    
C13   C19   A    
C70   H4    S    
C65   O10   A    
C24   C25   A    
C39   C41   A    
C3    C8    S    
Cr5   O26   S    
C16   O1    A    
Cr1   O18   S    
C51   C58   A    
Cr3   O21   S    
C50   C51   A    
C14   H38   S    
C55   H28   S    
Cr5   O7    S    
C64   C66   A    
C43   C44   A    
C3    C9    A    
Cr6   O11   S    
C24   H3    S    
C31   C32   A    
Cr2   O22   S    
C18   H2    S    
C1    C29   S    
C17   C18   S    
C34   C45   A    
C42   C48   A    
C32   C37   S    
Cr3   O16   S    
C39   C44   A    
Cr5   O25   S    
C37   H14   S    
C61   O23   A    
Cr2   O19   S    
Cr4   O23   S    
Cr3   O15   S    
C32   C38   A    
C22   C27   S    
C55   C57   S    
C9    C34   A    
Cr6   O10   S    
C15   H39   S    
C27   H37   S    
C56   H33   S    
Cr2   O13   S    
C52   O17   A    
C39   C62   S    
C40   O12   A    
C46   C47   S    
C11   C17   S    
Cr1   O22   S    
C37   H16   S    
C28   O18   A    
C14   C19   A    
C28   O19   A    
C50   C55   S    
C12   C45   S    
C1    O13   A    
C62   O7    A    
C53   C58   A    
Cr2   O12   S    
C6    C7    A    
Cr3   O22   S    
C28   C58   S    
C56   C67   A    
C30   C35   A    
C33   C38   A    
C47   H21   S    
C7    H34   S    
Cr1   O1    S    
Cr5   O8    S    
C6    H23   S    
C2    C3    A    
C60   O26   A    
C38   C40   S    
C11   C13   A    
C5    C6    A    
C16   C19   S    
C43   H17   S    
Cr4   O5    S    
C42   C47   S    
C65   O5    A    
C69   C70   A    
C63   O8    A    
C44   H18   S    
C10   C11   A    
C48   C52   S    
C46   H20   S    
C20   C21   A    
C36   C37   S    
C49   C50   A    
C20   C25   A    
Cr4   O11   S    
C2    C23   A    
Cr6   O9    S    
C14   C15   A    
C68   H32   S    
C4    C9    S    
C30   C63   S    
C10   C59   S    
C63   O9    A    
Cr5   O11   S    
C17   H40   S    
C4    O15   A    
