data_mof_unit_13796.cif
_audit_creation_date              2012-12-10T18:00:46-0500
_audit_creation_method            fapswitch 2.2
_symmetry_space_group_name_H-M    P1
_symmetry_Int_Tables_number       1
_space_group_crystal_system       triclinic
_cell_length_a                    15.887787
_cell_length_b                    10.796628
_cell_length_c                    9.521951
_cell_angle_alpha                 90.075211
_cell_angle_beta                  89.875381
_cell_angle_gamma                 90.070675
_cell_volume                      1633.33684371

loop_
_atom_site_label
_atom_site_type_symbol
_atom_type_description
_atom_site_fract_x
_atom_site_fract_y
_atom_site_fract_z
_atom_type_partial_charge
C1    C     C_R   0.502789 0.262368 0.499860 0.838185
C2    C     C_R   0.497215 0.737634 0.500141 0.838172
C3    C     C_R   0.445063 0.939012 0.405261 -0.009449
C4    C     C_R   0.554945 0.060989 0.594735 -0.009438
C5    C     C_R   0.495050 0.871578 0.500854 -0.113467
C6    C     C_R   0.504956 0.128423 0.499147 -0.113474
C7    C     C_R   0.446637 0.424620 0.074450 0.009529
C8    C     C_R   0.553363 0.575380 0.925550 0.009531
C9    C     C_R   0.446659 0.424653 0.925647 0.011536
C10   C     C_R   0.553341 0.575346 0.074353 0.011534
C11   C     C_R   0.339872 0.499830 0.500125 0.848546
C12   C     C_R   0.660128 0.500170 0.499874 0.848537
C13   C     C_3   0.970177 0.417231 0.594558 -0.260030
C14   C     C_3   0.029823 0.582768 0.405442 -0.260030
C15   C     C_3   0.027316 0.386848 0.466922 -0.054486
C16   C     C_3   0.972684 0.613151 0.533078 -0.054485
C17   C     C_1   0.250388 0.499707 0.500555 -0.072562
C18   C     C_1   0.749612 0.500293 0.499445 -0.072559
C19   C     C_3   0.026962 0.530272 0.628146 -0.056299
C20   C     C_3   0.973038 0.469727 0.371854 -0.056299
C21   C     C_3   0.083437 0.498895 0.501648 0.041917
C22   C     C_3   0.916562 0.501104 0.498352 0.041916
C23   C     C_1   0.174996 0.499426 0.501104 0.112048
C24   C     C_1   0.825004 0.500573 0.498896 0.112046
C25   C     C_R   0.451862 0.067403 0.404557 -0.212078
C26   C     C_R   0.548145 0.932596 0.595445 -0.212065
Cu1   Cu    Cu3+1 0.500000 0.500020 0.640660 1.001199
Cu2   Cu    Cu3+1 0.500000 0.499980 0.359340 1.001196
H1    H     H_    0.945433 0.349461 0.671997 0.189222
H2    H     H_    0.054567 0.650538 0.328003 0.189223
H3    H     H_    0.412650 0.121002 0.334059 0.180845
H4    H     H_    0.587360 0.878995 0.665943 0.180839
H5    H     H_    0.403958 0.364096 0.130536 0.134311
H6    H     H_    0.596042 0.635904 0.869464 0.134309
H7    H     H_    0.403982 0.364181 0.869628 0.136834
H8    H     H_    0.596018 0.635819 0.130372 0.136832
N1    N     N_R   0.500020 0.500030 0.852070 -0.170426
N2    N     N_R   0.499980 0.499970 0.147930 -0.170427
O1    O     O_R   0.500000 0.319660 0.618740 -0.570849
O2    O     O_R   0.500000 0.680340 0.381260 -0.570850
O3    O     O_R   0.499990 0.319630 0.381170 -0.586319
O4    O     O_R   0.500010 0.680370 0.618830 -0.586315
O5    O     O_R   0.379080 0.500000 0.618760 -0.576959
O6    O     O_R   0.620920 0.500000 0.381240 -0.576962
O7    O     O_R   0.379080 0.499970 0.381190 -0.562693
O8    O     O_R   0.620920 0.500030 0.618810 -0.562693
C27   C     C_2   0.055955 0.258479 0.430378 0.899313
O9    O     O_2   0.003709 0.177964 0.406858 -0.551164
O10   O     O_R   0.141811 0.231360 0.423436 -0.762329
H9    H     H_    0.152987 0.141692 0.397821 0.349875
C28   C     C_2   0.944045 0.741520 0.569622 0.899313
O11   O     O_2   0.996290 0.822035 0.593142 -0.551163
O12   O     O_R   0.858189 0.768639 0.576563 -0.762331
H10   H     H_    0.847012 0.858307 0.602178 0.349873
C29   C     C_2   0.944981 0.436339 0.226388 0.909787
O13   O     O_2   0.997585 0.413583 0.136190 -0.554453
O14   O     O_R   0.859274 0.431529 0.194433 -0.750148
H11   H     H_    0.848542 0.408227 0.092853 0.347724
C30   C     C_2   0.055019 0.563660 0.773612 0.909788
O15   O     O_2   0.002415 0.586416 0.863810 -0.554454
O16   O     O_R   0.140726 0.568470 0.805567 -0.750148
H12   H     H_    0.151458 0.591772 0.907147 0.347724
C31   C     C_2   0.382219 0.880494 0.310464 0.855364
O17   O     O_2   0.344825 0.786600 0.346248 -0.594339
O18   O     O_R   0.363436 0.935971 0.181645 -0.754600
H13   H     H_    0.319168 0.888558 0.126938 0.346430
C32   C     C_2   0.617787 0.119509 0.689534 0.855356
O19   O     O_2   0.655176 0.213409 0.653757 -0.594348
O20   O     O_R   0.636567 0.064031 0.818350 -0.754599
H14   H     H_    0.680834 0.111447 0.873057 0.346428

loop_
_geom_bond_atom_site_label_1
_geom_bond_atom_site_label_2
_ccdc_geom_bond_type
C25   H3    S    
C4    C32   S    
C4    C26   A    
C29   O13   D    
C31   O18   S    
C26   H4    S    
C2    O2    A    
C2    O4    A    
C20   C29   S    
C1    O1    A    
C15   C20   S    
C27   O9    D    
C16   C28   S    
C3    C25   A    
C10   N2    A    
C7    C9    A    
C3    C5    A    
C22   C24   S    
C13   C15   S    
C30   O15   D    
C27   O10   S    
C8    H6    S    
O12   H10   S    
C11   O5    A    
C7    H5    S    
Cu1   O4    S    
O14   H11   S    
C17   C23   T    
Cu1   N1    S    
C16   C19   S    
C18   C24   T    
C14   C21   S    
C1    O3    A    
C32   O19   D    
C19   C21   S    
C7    N2    A    
C20   C22   S    
C13   C22   S    
O10   H9    S    
C3    C31   S    
O20   H14   S    
C29   O14   S    
C21   C23   S    
O16   H12   S    
C14   C16   S    
Cu2   O7    S    
C11   O7    A    
C6    C25   A    
C30   O16   S    
C8    N1    A    
C13   C19   S    
C28   O12   S    
C28   O11   D    
C2    C5    S    
C14   C20   S    
Cu2   O3    S    
C15   C21   S    
Cu1   O8    S    
C4    C6    A    
O18   H13   S    
C12   C18   S    
Cu1   Cu2   S    
C9    H7    S    
Cu1   O5    S    
Cu2   O2    S    
C15   C27   S    
C12   O6    A    
C16   C22   S    
C1    C6    S    
C10   H8    S    
C19   C30   S    
Cu2   N2    S    
C14   H2    S    
Cu2   O6    S    
C8    C10   A    
C11   C17   S    
C9    N1    A    
C5    C26   A    
C13   H1    S    
Cu1   O1    S    
C31   O17   D    
C32   O20   S    
C12   O8    A    
