data_mof_unit_48774.cif
_audit_creation_date              2012-12-10T17:50:14-0500
_audit_creation_method            fapswitch 2.2
_symmetry_space_group_name_H-M    P1
_symmetry_Int_Tables_number       1
_space_group_crystal_system       triclinic
_cell_length_a                    10.635634
_cell_length_b                    14.721917
_cell_length_c                    14.73394
_cell_angle_alpha                 64.954175
_cell_angle_beta                  103.099231
_cell_angle_gamma                 102.819336
_cell_volume                      2014.84356049

loop_
_atom_site_label
_atom_site_type_symbol
_atom_type_description
_atom_site_fract_x
_atom_site_fract_y
_atom_site_fract_z
_atom_type_partial_charge
C1    C     C_R   0.477088 0.119414 0.312874 0.775995
C2    C     C_R   0.525378 0.880309 0.686978 0.867714
C3    C     C_R   0.522616 0.278682 0.163569 -0.062473
C4    C     C_R   0.487884 0.718910 0.836785 -0.040379
C5    C     C_R   0.465827 0.360973 0.081786 0.049102
C6    C     C_R   0.546856 0.637674 0.918101 -0.002899
C7    C     C_R   0.327108 0.350635 0.058132 0.108896
C8    C     C_R   0.685615 0.648155 0.939181 0.151860
C9    C     C_R   0.538629 0.455788 0.027739 0.114043
C10   C     C_R   0.474608 0.542906 0.973051 0.053880
C11   C     C_R   0.341554 0.532967 0.978120 -0.257818
C12   C     C_R   0.671401 0.465601 0.022339 -0.120164
C13   C     C_R   0.267298 0.438351 0.011862 -0.156080
C14   C     C_R   0.745412 0.560268 0.986670 -0.075771
C15   C     C_R   0.738427 0.297583 0.650011 -0.209674
C16   C     C_R   0.293265 0.722934 0.320607 -0.219162
C17   C     C_R   0.690529 0.207329 0.633753 0.601015
C18   C     C_R   0.314962 0.797188 0.361557 0.686145
C19   C     C_R   0.519669 0.285837 0.508658 0.039723
C20   C     C_R   0.481330 0.714861 0.487977 -0.107411
C21   C     C_R   0.557851 0.376279 0.527136 -0.032196
C22   C     C_R   0.449027 0.628669 0.462049 -0.025889
C23   C     C_R   0.259796 0.000494 0.500320 0.852750
C24   C     C_R   0.740238 0.999299 0.500259 0.805955
C25   C     C_R   0.659810 0.375585 0.607257 0.026726
C26   C     C_R   0.360334 0.637619 0.371966 0.029491
C27   C     C_R   0.495724 0.465739 0.472188 0.085002
C28   C     C_R   0.510119 0.538347 0.517000 -0.018302
C29   C     C_R   0.585865 0.517250 0.614900 -0.065249
C30   C     C_R   0.422788 0.486939 0.373567 -0.014670
C31   C     C_R   0.670343 0.444756 0.651763 -0.083853
C32   C     C_R   0.349212 0.566332 0.329732 -0.233995
C33   C     C_3   0.020571 0.026063 0.405310 -0.293919
C34   C     C_3   0.979659 0.973454 0.597020 -0.285558
C35   C     C_3   0.966693 0.093016 0.441038 -0.307024
C36   C     C_3   0.034337 0.906738 0.560901 -0.309059
C37   C     C_3   0.876607 0.998559 0.500439 -0.111144
C38   C     C_3   0.123605 0.001304 0.501228 -0.099507
C39   C     C_3   0.930051 0.932706 0.465445 0.569001
C40   C     C_3   0.069910 0.066865 0.536690 0.607662
C41   C     C_R   0.441203 0.187095 0.207829 -0.106647
C42   C     C_R   0.566870 0.811573 0.790635 -0.040738
C43   C     C_R   0.251753 0.253539 0.091398 -0.012482
C44   C     C_R   0.760623 0.744910 0.901187 0.004483
C45   C     C_R   0.310937 0.172369 0.165600 -0.265280
C46   C     C_R   0.699635 0.825198 0.827084 -0.341347
Cu1   Cu    Cu3+1 0.465750 0.918270 0.475680 1.003354
Cu2   Cu    Cu3+1 0.534250 0.081730 0.524320 1.018861
H1    H     H_    0.937017 0.168794 0.392774 0.162859
H2    H     H_    0.065498 0.831562 0.609400 0.197576
H3    H     H_    0.563339 0.721333 0.544042 0.154538
H4    H     H_    0.433463 0.277177 0.456286 0.153665
H5    H     H_    0.039668 0.048902 0.327077 0.142373
H6    H     H_    0.959934 0.952586 0.674750 0.150516
H7    H     H_    0.163688 0.435125 0.007864 0.192636
H8    H     H_    0.848622 0.563027 0.989557 0.176898
H9    H     H_    0.759348 0.895550 0.788545 0.153109
H10   H     H_    0.251362 0.099894 0.198880 0.178613
H11   H     H_    0.292537 0.597915 0.954806 0.179819
H12   H     H_    0.720220 0.400416 0.046356 0.138761
H13   H     H_    0.732159 0.433127 0.723984 0.219251
H14   H     H_    0.292833 0.577395 0.255839 0.124330
N1    N     N_R   0.585750 0.204560 0.560800 -0.216599
N2    N     N_R   0.414250 0.795440 0.439200 -0.225624
O1    O     O_R   0.454850 0.022100 0.338110 -0.534056
O2    O     O_R   0.545150 0.977900 0.661890 -0.557269
O3    O     O_R   0.512700 0.160150 0.379180 -0.569943
O4    O     O_R   0.487300 0.839850 0.620820 -0.593954
O5    O     O_R   0.287930 0.931000 0.479440 -0.564828
O6    O     O_R   0.712070 0.069000 0.520560 -0.553147
O7    O     O_R   0.345780 0.069050 0.520520 -0.561206
O8    O     O_R   0.654220 0.930950 0.479480 -0.566698
O9    O     O_3   0.242667 0.876620 0.318462 -0.546520
C47   C     C_3   0.115460 0.839918 0.344271 -0.229625
H15   H     H_    0.058460 0.903882 0.310039 0.199114
H16   H     H_    0.117147 0.807121 0.427717 0.158634
H17   H     H_    0.061919 0.782717 0.313630 0.154196
O10   O     O_3   0.751655 0.122231 0.689155 -0.591506
C48   C     C_3   0.727567 0.082120 0.790753 -0.350972
H18   H     H_    0.795566 0.026892 0.838844 0.188428
H19   H     H_    0.626089 0.042765 0.797025 0.210653
H20   H     H_    0.744418 0.139641 0.824088 0.141891
C49   C     C_2   0.872941 0.310117 0.705688 0.378527
H21   H     H_    0.925644 0.245736 0.747177 0.116036
O11   O     O_2   0.930070 0.393333 0.700884 -0.522238
C50   C     C_2   0.203808 0.737493 0.223169 0.402585
H22   H     H_    0.141966 0.673478 0.210414 0.102116
O12   O     O_2   0.197923 0.821909 0.156101 -0.472864
C51   C     C_2   0.565645 0.557284 0.686994 0.308499
H23   H     H_    0.473854 0.582756 0.678631 0.081845
O13   O     O_2   0.650399 0.560970 0.757306 -0.561640
C52   C     C_2   0.434852 0.440446 0.304806 0.333514
H24   H     H_    0.351917 0.429356 0.250107 0.067288
O14   O     O_2   0.539782 0.420565 0.303925 -0.472710
O15   O     O_3   0.850994 0.867451 0.420473 -0.579124
C53   C     C_3   0.831735 0.768213 0.494404 -0.264468
H25   H     H_    0.797638 0.766171 0.561413 0.167167
H26   H     H_    0.922464 0.733200 0.518271 0.156391
H27   H     H_    0.755822 0.721734 0.460575 0.201404
O16   O     O_3   0.152020 0.137240 0.573552 -0.576448
C54   C     C_3   0.075740 0.184006 0.603161 -0.270268
H28   H     H_    0.025580 0.128200 0.667635 0.181296
H29   H     H_    0.003694 0.224514 0.538744 0.171091
H30   H     H_    0.141100 0.241137 0.629189 0.191473
C55   C     C_2   0.351635 0.702786 0.786015 0.324873
H31   H     H_    0.312710 0.631424 0.778073 0.098738
O17   O     O_2   0.281749 0.768792 0.753649 -0.564498
C56   C     C_2   0.659919 0.287462 0.215483 0.392492
H32   H     H_    0.713117 0.223385 0.244310 0.024998
O18   O     O_2   0.711604 0.362716 0.232197 -0.478475
C57   C     C_2   0.110754 0.233241 0.054040 0.340110
H33   H     H_    0.051047 0.166392 0.099627 0.069711
O19   O     O_2   0.061133 0.287330 0.970455 -0.531673
C58   C     C_2   0.903284 0.765733 0.932863 0.370723
H34   H     H_    0.961090 0.830709 0.883162 0.083804
O20   O     O_2   0.956661 0.714487 0.016256 -0.539155

loop_
_geom_bond_atom_site_label_1
_geom_bond_atom_site_label_2
_ccdc_geom_bond_type
C25   C31   A    
C14   H8    S    
C26   C32   A    
C54   H28   S    
C34   C37   S    
O9    C47   S    
C23   O5    A    
C57   H33   S    
C29   C51   S    
C58   H34   S    
C24   O6    A    
C55   O17   D    
C40   O16   S    
C33   C39   S    
C47   H16   S    
C49   H21   S    
C34   C40   S    
C28   C29   A    
C35   C37   S    
C20   H3    S    
C2    O4    A    
C50   O12   D    
C15   C25   A    
C53   H27   S    
C56   H32   S    
C42   C46   A    
C31   H13   S    
Cu1   O5    S    
C33   C35   S    
C19   H4    S    
O15   C53   S    
C19   N1    A    
C47   H17   S    
C53   H26   S    
C35   H1    S    
C1    O1    A    
C7    C43   A    
C51   O13   D    
C9    C10   A    
C21   C27   A    
C44   C58   S    
C54   H29   S    
C38   C40   S    
C22   C28   A    
C27   C30   A    
C16   C50   S    
C43   C57   S    
C11   H11   S    
C44   C46   A    
C33   H5    S    
C45   H10   S    
C47   H15   S    
C23   O7    A    
C30   C52   S    
Cu2   O6    S    
Cu1   N2    S    
C48   H19   S    
O10   C48   S    
Cu2   N1    S    
C6    C8    A    
C2    O2    A    
C20   N2    A    
C5    C9    A    
Cu1   Cu2   S    
C53   H25   S    
C52   O14   D    
C24   C37   S    
C57   O19   D    
C16   C18   A    
C43   C45   A    
C39   O15   S    
C4    C6    A    
C49   O11   D    
C12   C14   A    
C34   H6    S    
C54   H30   S    
C46   H9    S    
Cu2   O7    S    
Cu1   O4    S    
C36   H2    S    
C24   O8    A    
C5    C7    A    
C4    C55   S    
C1    C41   S    
C15   C17   A    
C21   C25   A    
C3    C41   A    
C8    C14   A    
C19   C21   A    
C50   H22   S    
C36   C39   S    
C8    C44   A    
C20   C22   A    
C3    C5    A    
C16   C26   A    
C6    C10   A    
C48   H20   S    
C58   O20   D    
C3    C56   S    
C18   O9    S    
C23   C38   S    
C55   H31   S    
C33   C38   S    
C17   O10   S    
C36   C38   S    
C35   C40   S    
C32   H14   S    
C29   C31   A    
C17   N1    A    
C30   C32   A    
C11   C13   A    
C18   N2    A    
C4    C42   A    
C2    C42   S    
C15   C49   S    
C52   H24   S    
C1    O3    A    
C56   O18   D    
C34   C36   S    
Cu2   O3    S    
C9    C12   A    
Cu1   O8    S    
C10   C11   A    
C48   H18   S    
C12   H12   S    
C7    C13   A    
C37   C39   S    
C22   C26   A    
C27   C28   A    
C41   C45   A    
O16   C54   S    
Cu2   O2    S    
C51   H23   S    
Cu1   O1    S    
C13   H7    S    
