data_mof_unit_26691.cif
_audit_creation_date              2012-12-10T19:07:38-0500
_audit_creation_method            fapswitch 2.2
_symmetry_space_group_name_H-M    P1
_symmetry_Int_Tables_number       1
_space_group_crystal_system       triclinic
_cell_length_a                    10.841633
_cell_length_b                    10.83233
_cell_length_c                    9.54616
_cell_angle_alpha                 89.791808
_cell_angle_beta                  90.643505
_cell_angle_gamma                 90.429352
_cell_volume                      1120.99318176

loop_
_atom_site_label
_atom_site_type_symbol
_atom_type_description
_atom_site_fract_x
_atom_site_fract_y
_atom_site_fract_z
_atom_type_partial_charge
C1    C     C_R   0.501662 0.262333 0.500194 0.797168
C2    C     C_R   0.938761 0.472306 0.624174 0.131116
C3    C     C_3   0.937559 0.546659 0.755611 -0.491952
C4    C     C_3   0.077247 0.544710 0.754170 -0.451856
C5    C     C_R   0.511429 0.063053 0.626076 0.136032
C6    C     C_R   0.512426 0.129258 0.500332 -0.095339
C7    C     C_R   0.528671 0.065087 0.374185 -0.219669
C8    C     C_R   0.527838 0.936466 0.373867 -0.219536
C9    C     C_R   0.511446 0.870928 0.499685 -0.097161
C10   C     C_R   0.510646 0.935858 0.625661 0.118702
C11   C     C_3   0.421257 0.928532 0.743454 -0.463923
C12   C     C_R   0.262431 0.496809 0.499251 0.798340
C13   C     C_3   0.422840 0.068557 0.744598 -0.484508
C14   C     C_R   0.534290 0.603381 0.073730 0.261494
C15   C     C_R   0.452363 0.403428 0.074123 -0.090877
C16   C     C_R   0.452239 0.403522 0.925335 -0.087745
C17   C     C_R   0.533294 0.603741 0.926362 0.258246
C18   C     C_3   0.654342 0.668933 0.921396 -0.518390
C19   C     C_3   0.656251 0.667529 0.080282 -0.501467
C20   C     C_R   0.501306 0.737681 0.499795 0.800681
C21   C     C_R   0.737879 0.497806 0.500408 0.799063
C22   C     C_R   0.065768 0.471277 0.622893 0.123354
C23   C     C_R   0.129572 0.483019 0.497596 -0.100047
C24   C     C_R   0.062982 0.477198 0.370634 -0.219066
C25   C     C_R   0.934305 0.478141 0.371646 -0.216040
C26   C     C_R   0.871186 0.485105 0.499589 -0.098544
Cu1   Cu    Cu3+1 0.499990 0.499980 0.640670 0.938909
Cu2   Cu    Cu3+1 0.500010 0.500020 0.359330 0.937531
H1    H     H_    0.109583 0.478649 0.270865 0.165600
H2    H     H_    0.462546 0.887394 0.839695 0.191490
H3    H     H_    0.332980 0.110125 0.713857 0.194361
H4    H     H_    0.466326 0.107245 0.841007 0.189920
H5    H     H_    0.415377 0.324317 0.129239 0.139538
H6    H     H_    0.414610 0.324960 0.869763 0.139248
H7    H     H_    0.730293 0.608670 0.125505 0.212174
H8    H     H_    0.885161 0.479713 0.272294 0.160849
H9    H     H_    0.899513 0.640682 0.738791 0.197634
H10   H     H_    0.898952 0.493392 0.844892 0.196263
H11   H     H_    0.118205 0.490235 0.841740 0.196650
H12   H     H_    0.534079 0.889128 0.274704 0.156145
H13   H     H_    0.330665 0.888387 0.711031 0.195828
N1    N     N_R   0.500790 0.500930 0.147930 -0.184294
N2    N     N_R   0.500790 0.500890 0.852020 -0.182817
O1    O     O_R   0.500000 0.319640 0.618810 -0.584745
O2    O     O_R   0.500010 0.319680 0.381230 -0.592863
O3    O     O_R   0.319650 0.499970 0.618810 -0.581460
O4    O     O_R   0.319660 0.500010 0.381230 -0.583748
O5    O     O_R   0.499990 0.680320 0.618770 -0.580322
O6    O     O_R   0.500000 0.680360 0.381190 -0.584064
O7    O     O_R   0.680340 0.499990 0.618770 -0.577115
O8    O     O_R   0.680350 0.500030 0.381190 -0.585141
H14   H     H_    0.725879 0.610436 0.875408 0.216638
H15   H     H_    0.647136 0.763095 0.875750 0.193293
H16   H     H_    0.650279 0.761224 0.126163 0.187593
H17   H     H_    0.119644 0.637291 0.737002 0.197935
H18   H     H_    0.536184 0.113578 0.275177 0.160896

loop_
_geom_bond_atom_site_label_1
_geom_bond_atom_site_label_2
_ccdc_geom_bond_type
Cu1   O5    S    
C2    C22   A    
C23   C24   A    
C17   N2    A    
Cu2   O4    S    
C20   O6    A    
C4    C22   S    
C9    C10   A    
C1    C6    S    
C1    O1    A    
C5    C13   S    
C8    H12   S    
C12   C23   S    
Cu1   O7    S    
C21   O8    A    
C14   N1    A    
C17   C18   S    
C13   H4    S    
C18   H14   S    
C7    C8    A    
C2    C26   A    
C19   H7    S    
C11   C13   S    
C16   N2    A    
C1    O2    A    
C20   O5    A    
C7    H18   S    
C12   O4    A    
C14   C19   S    
C19   H16   S    
Cu2   N1    S    
C21   O7    A    
C21   C26   S    
C15   H5    S    
C11   H13   S    
C6    C7    A    
C2    C3    S    
C4    H17   S    
C5    C6    A    
Cu2   O8    S    
Cu2   O2    S    
C10   C11   S    
C25   H8    S    
C15   C16   A    
C15   N1    A    
Cu1   N2    S    
C5    C10   A    
Cu1   O3    S    
C24   C25   A    
C3    H9    S    
C12   O3    A    
C18   C19   S    
Cu2   O6    S    
Cu1   Cu2   S    
C24   H1    S    
C9    C20   S    
C18   H15   S    
C16   H6    S    
C25   C26   A    
C22   C23   A    
C4    H11   S    
Cu1   O1    S    
C13   H3    S    
C3    C4    S    
C11   H2    S    
C3    H10   S    
C8    C9    A    
C14   C17   A    
