data_mof_unit_47312.cif
_audit_creation_date              2012-12-11T18:34:54-0500
_audit_creation_method            fapswitch 2.2
_symmetry_space_group_name_H-M    P1
_symmetry_Int_Tables_number       1
_space_group_crystal_system       triclinic
_cell_length_a                    8.226081
_cell_length_b                    14.294718
_cell_length_c                    22.878086
_cell_angle_alpha                 93.550701
_cell_angle_beta                  89.578233
_cell_angle_gamma                 91.554516
_cell_volume                      2684.02698313

loop_
_atom_site_label
_atom_site_type_symbol
_atom_type_description
_atom_site_fract_x
_atom_site_fract_y
_atom_site_fract_z
_atom_type_partial_charge
Ba1   Ba    Ba6+2 0.846250 0.544220 0.470860 1.650973
Ba2   Ba    Ba6+2 0.343570 0.455860 0.529140 1.690948
C1    C     C_3   0.611987 0.889545 0.310897 0.256761
C2    C     C_R   0.084858 0.576054 0.937598 -0.028977
C3    C     C_R   0.039895 0.570369 0.877584 0.593686
C4    C     C_3   0.077073 0.742888 0.304002 0.300634
C5    C     C_R   0.003590 0.403448 0.879426 0.586298
C6    C     C_R   0.042896 0.407250 0.939664 -0.021455
C7    C     C_R   0.084164 0.494015 0.968865 -0.051342
C8    C     C_R   0.129518 0.662022 0.967313 -0.069332
C9    C     C_R   0.172800 0.666328 0.026543 -0.061876
C10   C     C_R   0.171169 0.584977 0.058404 -0.024151
C11   C     C_R   0.125673 0.498606 0.029505 -0.051399
C12   C     C_3   0.603080 0.791698 0.333729 0.346255
C13   C     C_R   0.042219 0.325799 0.971371 -0.073423
C14   C     C_R   0.080701 0.330491 0.030962 -0.064865
C15   C     C_R   0.122911 0.416660 0.060859 -0.030705
C16   C     C_3   0.041922 0.767400 0.241706 -0.252778
C17   C     C_R   0.163598 0.422441 0.121170 0.598299
C18   C     C_R   0.214506 0.588261 0.118368 0.580219
C19   C     C_2   0.812578 0.429382 0.769983 -0.098634
C20   C     C_3   0.782943 0.403080 0.705729 -0.089987
C21   C     C_1   0.004224 0.515560 0.684410 0.031471
C22   C     C_2   0.050320 0.522925 0.740440 -0.087612
C23   C     C_3   0.518755 0.322669 0.354609 0.318033
C24   C     C_2   0.948737 0.478992 0.787170 0.218566
C25   C     C_R   0.400813 0.555206 0.230435 -0.076608
C26   C     C_R   0.442427 0.562285 0.289879 -0.019206
C27   C     C_R   0.192273 0.480977 0.314944 0.023320
C28   C     C_3   0.173972 0.743321 0.590169 0.300395
C29   C     C_R   0.148184 0.474107 0.255058 -0.102574
C30   C     C_R   0.251232 0.512836 0.211970 0.201217
C31   C     C_2   0.878174 0.463303 0.665257 -0.265094
C32   C     C_R   0.695565 0.935192 0.529810 -0.012282
C33   C     C_R   0.510734 0.801442 0.497566 0.046173
C34   C     C_3   0.515607 0.300017 0.288553 0.256147
C35   C     C_R   0.370947 0.769587 0.467456 -0.301462
C36   C     C_R   0.269064 0.832222 0.442663 0.018291
C37   C     C_R   0.314189 0.926788 0.442485 -0.132593
C38   C     C_R   0.458927 0.959886 0.469753 -0.015562
C39   C     C_R   0.556489 0.898119 0.499511 -0.033872
C40   C     C_3   0.178425 0.849159 0.602587 -0.367700
C41   C     C_R   0.643768 0.091107 0.498038 0.011625
C42   C     C_R   0.741964 0.030218 0.528104 0.048419
C43   C     C_R   0.687553 0.187265 0.499046 0.061471
C44   C     C_R   0.825127 0.221453 0.529398 -0.223017
C45   C     C_3   0.030337 0.222149 0.692289 0.297283
C46   C     C_R   0.929288 0.160861 0.554679 -0.019256
C47   C     C_R   0.886746 0.065296 0.555307 -0.094516
C48   C     C_R   0.503970 0.054656 0.468701 -0.032282
C49   C     C_3   0.022058 0.255854 0.409994 0.310648
C50   C     C_3   0.025605 0.150081 0.397455 -0.362293
C51   C     C_3   0.678969 0.661968 0.641244 0.297731
C52   C     C_3   0.691294 0.686097 0.706777 -0.342899
C53   C     C_3   0.022417 0.174243 0.749820 -0.320496
C54   C     C_3   0.547033 0.222787 0.716722 0.722370
C55   C     C_3   0.472953 0.156140 0.759595 -0.282528
C56   C     C_R   0.336577 0.527610 0.331578 -0.311366
Cl1   Cl    Cl    0.493247 0.893634 0.246295 -0.605905
Cl2   Cl    Cl    0.561016 0.162082 0.646380 -0.712167
H1    H     H_    0.671088 0.794013 0.375624 0.019989
H2    H     H_    0.800215 0.643138 0.624057 0.005019
H3    H     H_    0.593213 0.601345 0.633815 0.087821
H4    H     H_    0.740158 0.909696 0.301090 0.083351
H5    H     H_    0.781952 0.744209 0.715422 0.132399
H6    H     H_    0.729694 0.624195 0.729539 0.074939
H7    H     H_    0.571098 0.707789 0.724521 0.136959
H8    H     H_    0.473260 0.772797 0.341970 -0.052665
H9    H     H_    0.564249 0.940951 0.344674 0.004117
H10   H     H_    0.394769 0.340622 0.369975 -0.017103
H11   H     H_    0.602674 0.384000 0.363476 -0.003203
H12   H     H_    0.269232 0.869238 0.637121 0.142588
H13   H     H_    0.482479 0.363000 0.265522 -0.048904
H14   H     H_    0.639094 0.279932 0.273314 0.102512
H15   H     H_    0.035756 0.702312 0.212804 0.111264
H16   H     H_    0.056821 0.298144 0.701639 0.054394
H17   H     H_    0.909144 0.211738 0.671328 -0.009229
H18   H     H_    0.128041 0.196905 0.777538 0.145545
H19   H     H_    0.909845 0.193371 0.774099 0.126718
H20   H     H_    0.021591 0.096858 0.741365 0.113919
H21   H     H_    0.670487 0.241764 0.733173 -0.126718
H22   H     H_    0.559693 0.100044 0.767371 0.083312
H23   H     H_    0.211995 0.884950 0.562474 0.067098
H24   H     H_    0.359405 0.122563 0.741657 0.148747
H25   H     H_    0.003190 0.679319 0.312972 0.093469
H26   H     H_    0.446435 0.194749 0.802077 0.075543
H27   H     H_    0.077791 0.266054 0.053538 0.136272
H28   H     H_    0.010957 0.257861 0.950224 0.124963
H29   H     H_    0.206884 0.734015 0.047442 0.138677
H30   H     H_    0.485308 0.581931 0.198608 0.120998
H31   H     H_    0.131735 0.726483 0.944769 0.128306
H32   H     H_    0.164321 0.558739 0.752514 0.120891
H33   H     H_    0.734396 0.397728 0.802149 0.095418
H34   H     H_    0.056724 0.872713 0.617646 0.116826
H35   H     H_    0.034993 0.438670 0.242129 0.120731
H36   H     H_    0.370924 0.532624 0.377245 0.084403
H37   H     H_    0.208302 0.727592 0.307535 -0.006502
H38   H     H_    0.857384 0.449623 0.618690 0.077859
H39   H     H_    0.335387 0.696086 0.466700 0.070996
H40   H     H_    0.235224 0.974456 0.422016 0.084207
H41   H     H_    0.966474 0.018865 0.576391 0.058585
H42   H     H_    0.857150 0.295455 0.530059 0.039681
H43   H     H_    0.769927 0.891370 0.554819 0.095754
H44   H     H_    0.427358 0.099334 0.445046 0.092338
H45   H     H_    0.897563 0.276254 0.421978 -0.017923
H46   H     H_    0.923152 0.802000 0.239450 0.157011
H47   H     H_    0.138758 0.815486 0.225975 0.185822
H48   H     H_    0.297473 0.720107 0.578513 0.004690
H49   H     H_    0.089857 0.725669 0.553170 0.065928
H50   H     H_    0.295878 0.252016 0.275183 0.326394
H51   H     H_    0.106161 0.275699 0.446612 0.061483
H52   H     H_    0.935310 0.127746 0.363167 0.141232
H53   H     H_    0.996248 0.113241 0.437519 0.034778
H54   H     H_    0.148770 0.129700 0.382031 0.143056
N1    N     N_R   0.998649 0.484621 0.848912 -0.423107
N2    N     N_R   0.207185 0.507873 0.149815 -0.428308
O1    O     O_2   0.901900 0.448470 0.362340 -0.462566
O2    O     O_2   0.268066 0.167015 0.551004 -0.429359
O3    O     O_3   0.155301 0.183438 0.657163 -0.542713
O4    O     O_3   0.142240 0.449440 0.433360 -0.493849
O5    O     O_3   0.549340 0.612930 0.525560 -0.490352
O6    O     O_2   0.396530 0.270940 0.479440 -0.461013
O7    O     O_3   0.572310 0.244335 0.382227 -0.635314
O8    O     O_2   0.477310 0.483614 0.706202 -0.499190
O9    O     O_3   0.449257 0.302058 0.714255 -0.572367
O10   O     O_2   0.035421 0.642015 0.851231 -0.592758
O11   O     O_2   0.975077 0.327249 0.853998 -0.624973
O12   O     O_3   0.623674 0.740082 0.614086 -0.635084
O13   O     O_2   0.163065 0.350947 0.147827 -0.576998
O14   O     O_2   0.258855 0.663111 0.142499 -0.583908
O15   O     O_3   0.645560 0.619080 0.391970 -0.486726
O16   O     O_2   0.781031 0.556284 0.291101 -0.504833
O17   O     O_3   0.068394 0.298798 0.359171 -0.631350
O18   O     O_3   0.673881 0.727477 0.292649 -0.584557
O19   O     O_2   0.793170 0.729090 0.520590 -0.472213
O20   O     O_3   0.052800 0.667320 0.419180 -0.495083
O21   O     O_2   0.933074 0.834259 0.450815 -0.497503
O22   O     O_3   0.406060 0.225310 0.274494 -0.647708
O23   O     O_3   0.034687 0.818352 0.342762 -0.596495
O24   O     O_2   0.287790 0.551560 0.637690 -0.452278
O25   O     O_3   0.047460 0.550640 0.566640 -0.501986
O26   O     O_3   0.544140 0.380990 0.608030 -0.422951
O27   O     O_3   0.121356 0.701319 0.640748 -0.626297
O28   O     O_3   0.640350 0.387150 0.474440 -0.479429
O29   O     O_3   0.136890 0.332750 0.580830 -0.479360
P1    P     P_3+3 0.074990 0.420800 0.372080 0.986282
P2    P     P_3+3 0.618830 0.715330 0.538180 0.974024
P3    P     P_3+3 0.071934 0.788647 0.414373 0.942593
P4    P     P_3+3 0.114710 0.579280 0.627920 0.990870
P5    P     P_3+3 0.122361 0.210393 0.584784 1.027621
P6    P     P_3+3 0.636969 0.614329 0.315560 0.960307
P7    P     P_3+3 0.577567 0.270871 0.457899 0.957101
P8    P     P_3+3 0.563740 0.393244 0.684468 1.010047

loop_
_geom_bond_atom_site_label_1
_geom_bond_atom_site_label_2
_ccdc_geom_bond_type
C42   C47   A    
C17   O13   D    
C19   C24   D    
O4    P1    S    
C16   H15   S    
C46   P5    S    
Ba2   O28   S    
O21   P3    D    
O15   P6    S    
C35   H39   S    
O25   P4    S    
C54   H21   S    
C52   H5    S    
C50   H53   S    
C55   H26   S    
Ba2   O29   S    
C48   H44   S    
C44   H42   S    
C4    H25   S    
C1    H9    S    
C22   C24   S    
C45   H16   S    
C31   H38   S    
C47   H41   S    
C36   C37   A    
C29   H35   S    
C50   H52   S    
C13   C14   A    
C54   C55   S    
C25   H30   S    
Ba1   Ba2   S    
C5    N1    Am   
C4    O23   S    
O2    P5    D    
C56   H36   S    
C24   N1    S    
C51   H3    S    
C7    C11   A    
C16   H47   S    
C6    C7    A    
C21   C31   D    
C3    O10   D    
C14   H27   S    
C21   C22   D    
O5    P2    S    
C23   H11   S    
Ba1   O20   S    
O29   P5    S    
C28   H48   S    
Ba2   P4    S    
C45   O3    S    
C21   P4    S    
C23   O7    S    
O8    P8    D    
C3    N1    Am   
Ba1   P1    S    
C32   C39   A    
C22   H32   S    
O9    P8    S    
Ba2   O6    S    
C4    C16   S    
C44   C46   A    
O23   P3    S    
C28   H49   S    
C49   C50   S    
C4    H37   S    
C5    C6    A    
C32   C42   A    
C8    C9    A    
C37   C38   A    
C18   N2    Am   
C53   H18   S    
Ba2   O4    S    
C14   C15   A    
Ba1   O1    S    
C52   H7    S    
C12   O18   S    
C1    H4    S    
C12   H1    S    
C28   O27   S    
C54   Cl2   S    
O1    P1    D    
Ba1   O4    S    
O6    P7    D    
C41   C42   A    
C16   H46   S    
C35   C36   A    
C51   O12   S    
C53   H19   S    
C51   H2    S    
C9    H29   S    
C29   C30   A    
H50   O22   S    
C49   H45   S    
C10   C18   A    
C40   H12   S    
C55   H24   S    
O12   P2    S    
C33   P2    S    
C54   O9    S    
C30   N2    S    
C50   H54   S    
C41   C43   A    
C36   P3    S    
O20   P3    S    
C1    C12   S    
C34   H14   S    
C46   C47   A    
C8    H31   S    
C6    C13   A    
O19   P2    D    
Ba2   O26   S    
Ba1   P2    S    
C45   H17   S    
C2    C8    A    
C27   P1    S    
C27   C56   A    
C45   C53   S    
Ba2   O5    S    
O16   P6    D    
C20   C31   S    
O7    P7    S    
C38   C39   A    
C49   H51   S    
C33   C35   A    
C25   C30   A    
C40   H34   S    
C40   H23   S    
C18   O14   D    
C2    C3    A    
Ba1   O15   S    
C9    C10   A    
C41   C48   A    
C51   C52   S    
C52   H6    S    
C26   C56   A    
C32   H43   S    
C11   C15   A    
C43   P7    S    
Ba2   O24   S    
O17   P1    S    
O28   P7    S    
Ba1   O28   S    
Ba1   O19   S    
C53   H20   S    
C49   O17   S    
C37   H40   S    
C19   H33   S    
C17   N2    Am   
O3    P5    S    
C38   C48   A    
O18   P6    S    
C15   C17   A    
O26   P8    S    
C33   C39   A    
Ba1   O5    S    
Ba1   O25   S    
C34   H13   S    
C23   C34   S    
C43   C44   A    
O27   P4    S    
C10   C11   A    
C26   P6    S    
C27   C29   A    
C25   C26   A    
Ba2   O25   S    
C12   H8    S    
C55   H22   S    
C28   C40   S    
C23   H10   S    
C5    O11   D    
C2    C7    A    
C19   C20   S    
C34   O22   S    
O24   P4    D    
C13   H28   S    
C20   P8    S    
C1    Cl1   S    
