data_mof_unit_67084.cif
_audit_creation_date              2012-12-11T17:41:24-0500
_audit_creation_method            fapswitch 2.2
_symmetry_space_group_name_H-M    P1
_symmetry_Int_Tables_number       1
_space_group_crystal_system       triclinic
_cell_length_a                    8.226355
_cell_length_b                    12.677719
_cell_length_c                    14.276058
_cell_angle_alpha                 93.077616
_cell_angle_beta                  90.780463
_cell_angle_gamma                 98.29224
_cell_volume                      1470.83584529

loop_
_atom_site_label
_atom_site_type_symbol
_atom_type_description
_atom_site_fract_x
_atom_site_fract_y
_atom_site_fract_z
_atom_type_partial_charge
Ba1   Ba    Ba6+2 0.855630 0.555280 0.454520 1.634047
Ba2   Ba    Ba6+2 0.334200 0.444810 0.545490 1.637633
C1    C     C_3   0.608665 0.943145 0.163164 -0.412886
C2    C     C_R   0.181515 0.497260 0.194869 0.039680
C3    C     C_R   0.334907 0.550458 0.225401 -0.293711
C4    C     C_3   0.133275 0.790799 0.189753 0.373498
C5    C     C_R   0.448602 0.595210 0.162295 0.020735
C6    C     C_R   0.406809 0.594483 0.067145 -0.146222
C7    C     C_R   0.252114 0.544213 0.033134 -0.014724
C8    C     C_R   0.138690 0.492597 0.096321 -0.025594
C9    C     C_R   0.063632 0.487833 0.897132 -0.013399
C10   C     C_R   0.948507 0.440038 0.961340 -0.017242
C11   C     C_R   0.021412 0.481673 0.797446 0.123151
C12   C     C_3   0.642320 0.853789 0.224367 0.346170
C13   C     C_R   0.866178 0.430272 0.768122 -0.300467
C14   C     C_R   0.749818 0.392851 0.833333 -0.014081
C15   C     C_R   0.790517 0.397445 0.928858 -0.151044
C16   C     C_3   0.114693 0.822483 0.089706 -0.370590
C17   C     C_R   0.212597 0.543611 0.936256 -0.010134
C18   C     C_R   0.762891 0.176592 0.534166 -0.267414
C19   C     C_R   0.449062 0.810857 0.443295 -0.260713
C20   C     C_R   0.416543 0.993066 0.416494 -0.102290
C21   C     C_R   0.357669 0.884764 0.406159 -0.029384
C22   C     C_R   0.584302 0.845156 0.504196 0.064199
C23   C     C_3   0.476765 0.313309 0.259067 0.309327
C24   C     C_R   0.646411 0.956232 0.514387 -0.061001
C25   C     C_R   0.561381 0.030469 0.469200 -0.051099
C26   C     C_R   0.620387 0.140881 0.480896 0.050267
C27   C     C_R   0.853402 0.104647 0.572707 -0.015175
C28   C     C_3   0.185989 0.789524 0.765556 0.674233
C29   C     C_R   0.791555 0.995763 0.567117 -0.095742
C30   C     C_3   0.128978 0.864041 0.843591 -0.363220
C31   C     C_3   0.967548 0.237175 0.342888 0.284758
C32   C     C_3   0.941615 0.117657 0.318797 -0.366600
C33   C     C_3   0.712793 0.663717 0.732995 0.321859
C34   C     C_3   0.462352 0.293577 0.153095 -0.398915
C35   C     C_3   0.711574 0.675050 0.839979 -0.408796
C36   C     C_3   0.456944 0.903477 0.749590 -0.242961
C37   C     C_3   0.210383 0.793688 0.594542 -0.126974
C38   C     C_3   0.022608 0.188649 0.799913 0.393907
C39   C     C_3   0.014703 0.145172 0.897266 -0.386665
C40   C     C_3   0.562719 0.158206 0.854792 0.308928
C41   C     C_3   0.496236 0.086165 0.931655 -0.385005
C42   C     C_R   0.987633 0.440058 0.058346 -0.039573
H1    H     H_    0.725294 0.887625 0.283984 0.073031
H2    H     H_    0.832696 0.644377 0.709771 0.034658
H3    H     H_    0.616335 0.596444 0.710056 0.075170
H4    H     H_    0.553854 0.004386 0.205769 0.101420
H5    H     H_    0.732284 0.760128 0.865755 0.128702
H6    H     H_    0.807844 0.633839 0.870872 0.096953
H7    H     H_    0.590902 0.638361 0.865190 0.090793
H8    H     H_    0.523142 0.818680 0.252775 -0.052874
H9    H     H_    0.521306 0.910452 0.105221 0.110938
H10   H     H_    0.358860 0.334634 0.285313 0.013770
H11   H     H_    0.577038 0.380678 0.275201 0.063654
H12   H     H_    0.201258 0.860178 0.908911 0.084414
H13   H     H_    0.358870 0.229071 0.134506 0.124937
H14   H     H_    0.439475 0.367109 0.119653 0.068266
H15   H     H_    0.578406 0.269924 0.125767 0.113530
H16   H     H_    0.724652 0.980995 0.132563 0.129003
H17   H     H_    0.140127 0.756307 0.040537 0.073357
H18   H     H_    0.102918 0.267221 0.804261 0.078157
H19   H     H_    0.896087 0.199004 0.777674 -0.109007
H20   H     H_    0.139419 0.134807 0.922166 0.140330
H21   H     H_    0.964990 0.201833 0.947339 0.072558
H22   H     H_    0.933375 0.067096 0.895559 0.099640
H23   H     H_    0.143274 0.948139 0.824246 0.111406
H24   H     H_    0.677739 0.203563 0.884214 -0.025848
H25   H     H_    0.594214 0.110705 0.792014 0.005458
H26   H     H_    0.585250 0.031434 0.948233 0.072354
H27   H     H_    0.377263 0.038650 0.909744 0.120933
H28   H     H_    0.048279 0.715987 0.198933 0.097969
H29   H     H_    0.477185 0.135298 0.996049 0.114435
H30   H     H_    0.369687 0.552582 0.298938 0.066329
H31   H     H_    0.496232 0.631881 0.019799 0.069120
H32   H     H_    0.697608 0.368005 0.977960 0.068378
H33   H     H_    0.829843 0.428790 0.694883 0.067536
H34   H     H_    0.997324 0.840451 0.858036 0.112268
H35   H     H_    0.897722 0.399669 0.103737 0.102514
H36   H     H_    0.300959 0.587057 0.892343 0.107027
H37   H     H_    0.342922 0.047126 0.386409 0.101481
H38   H     H_    0.860484 0.943482 0.602155 0.096369
H39   H     H_    0.809460 0.261039 0.540648 0.058120
H40   H     H_    0.261640 0.775993 0.200418 -0.074228
H41   H     H_    0.401363 0.726674 0.435243 0.069119
H42   H     H_    0.987970 0.838965 0.075840 0.158033
H43   H     H_    0.202875 0.895280 0.077869 0.101078
H44   H     H_    0.411130 0.766515 0.825546 0.182300
H45   H     H_    0.851573 0.262120 0.367274 0.002664
H46   H     H_    0.565733 0.921853 0.797665 0.110006
H47   H     H_    0.381230 0.968728 0.754848 0.117492
H48   H     H_    0.501425 0.901560 0.677501 0.104374
H49   H     H_    0.062044 0.880280 0.674664 0.179814
H50   H     H_    0.268652 0.872372 0.573192 0.060949
H51   H     H_    0.127221 0.751534 0.540180 0.177329
H52   H     H_    0.303706 0.740605 0.606281 0.048632
H53   H     H_    0.062828 0.254784 0.399350 0.078690
H54   H     H_    0.841699 0.097653 0.265230 0.112149
H55   H     H_    0.907513 0.073193 0.381831 0.088787
H56   H     H_    0.056407 0.092697 0.290867 0.147461
N1    N     N_2   0.365159 0.800450 0.768694 -0.420931
N2    N     N_2   0.119124 0.813250 0.676335 -0.419732
O1    O     O_2   0.887370 0.460630 0.272300 -0.465209
O2    O     O_2   0.194970 0.110300 0.566662 -0.465924
O3    O     O_3   0.088562 0.117418 0.737452 -0.598461
O4    O     O_3   0.129410 0.451380 0.388510 -0.496614
O5    O     O_3   0.575400 0.626570 0.547370 -0.494091
O6    O     O_2   0.344320 0.238700 0.455090 -0.465274
O7    O     O_3   0.511553 0.220036 0.298712 -0.651672
O8    O     O_2   0.428187 0.423469 0.833456 -0.493669
O9    O     O_3   0.443547 0.221527 0.829514 -0.566629
O10   O     O_3   0.670210 0.653170 0.329170 -0.477590
O11   O     O_2   0.783038 0.585172 0.165225 -0.494142
O12   O     O_3   0.685381 0.759976 0.695561 -0.633778
O13   O     O_3   0.015729 0.289220 0.261881 -0.637938
O14   O     O_3   0.719195 0.779897 0.170379 -0.594109
O15   O     O_2   0.845380 0.761330 0.544970 -0.473275
O16   O     O_3   0.088930 0.704860 0.376040 -0.500535
O17   O     O_2   0.022498 0.894655 0.429061 -0.486411
O18   O     O_3   0.095277 0.872956 0.251906 -0.595257
O19   O     O_2   0.302330 0.539400 0.727760 -0.478328
O20   O     O_3   0.060300 0.548700 0.611500 -0.500080
O21   O     O_3   0.519500 0.346920 0.670840 -0.454816
O22   O     O_3   0.117372 0.686975 0.787373 -0.672069
O23   O     O_3   0.614310 0.373510 0.452640 -0.484315
O24   O     O_3   0.100780 0.295230 0.623970 -0.485852
P1    P     P_3+3 0.054400 0.427280 0.286870 0.969434
P2    P     P_3+3 0.668300 0.742890 0.573060 0.967696
P3    P     P_3+3 0.142546 0.841348 0.365821 0.930528
P4    P     P_3+3 0.135310 0.572810 0.713130 0.979823
P5    P     P_3+3 0.059179 0.155745 0.623288 0.971013
P6    P     P_3+3 0.654825 0.651217 0.206629 0.955367
P7    P     P_3+3 0.525572 0.241904 0.420811 0.935455
P8    P     P_3+3 0.538408 0.344856 0.792681 0.964724

loop_
_geom_bond_atom_site_label_1
_geom_bond_atom_site_label_2
_ccdc_geom_bond_type
C41   H29   S    
O17   P3    D    
O11   P6    D    
C9    C11   A    
Ba2   O5    S    
Ba1   P2    S    
O19   P4    D    
C34   H15   S    
C14   P8    S    
H44   N1    S    
O13   P1    S    
C5    C6    A    
O3    P5    S    
C27   P5    S    
Ba2   O21   S    
C4    H28   S    
C9    C17   A    
C24   C25   A    
C16   H42   S    
C29   H38   S    
C33   C35   S    
C22   C24   A    
O5    P2    S    
C36   N1    S    
C34   H14   S    
Ba1   O10   S    
C35   H7    S    
C13   C14   A    
C36   H48   S    
C1    H4    S    
C38   H18   S    
C21   P3    S    
C33   O12   S    
Ba1   Ba2   S    
C3    H30   S    
Ba1   O20   S    
C32   H54   S    
C7    C17   A    
C12   H8    S    
C14   C15   A    
O2    P5    D    
C10   C15   A    
C15   H32   S    
C32   H56   S    
C11   P4    S    
O1    P1    D    
C7    C8    A    
Ba1   O1    S    
C23   O7    S    
Ba1   O4    S    
C1    H16   S    
C33   H3    S    
C24   C29   A    
C40   H24   S    
C4    O18   S    
C31   C32   S    
C12   H1    S    
C18   C27   A    
Ba2   O20   S    
C4    C16   S    
C19   H41   S    
C31   O13   S    
C4    H40   S    
O12   P2    S    
O21   P8    S    
C8    C42   A    
C26   P7    S    
C20   H37   S    
Ba1   P1    S    
C23   H10   S    
C34   H13   S    
C3    C5    A    
C6    C7    A    
C39   H21   S    
C18   C26   A    
O7    P7    S    
O4    P1    S    
Ba2   O4    S    
C6    H31   S    
O18   P3    S    
C40   O9    S    
C37   H50   S    
C31   H45   S    
C35   H5    S    
O14   P6    S    
C28   N2    S    
C32   H55   S    
O22   P4    S    
C16   H17   S    
Ba1   O15   S    
O10   P6    S    
C38   H19   S    
C37   H51   S    
C5    P6    S    
C1    C12   S    
Ba1   O5    S    
C30   H23   S    
Ba2   O24   S    
C38   C39   S    
C28   O22   S    
C41   H26   S    
C20   C25   A    
C11   C13   A    
O8    P8    D    
C40   C41   S    
C2    C8    A    
C37   N2    S    
Ba2   O19   S    
O23   P7    S    
C41   H27   S    
C2    P1    S    
C42   H35   S    
C23   H11   S    
Ba1   O23   S    
C2    C3    A    
H49   N2    S    
C18   H39   S    
C9    C10   A    
O9    P8    S    
C39   H22   S    
C36   H46   S    
C16   H43   S    
C19   C21   A    
O6    P7    D    
C27   C29   A    
O16   P3    S    
C28   C30   S    
C35   H6    S    
C1    H9    S    
C13   H33   S    
O24   P5    S    
C12   O14   S    
C36   H47   S    
C28   N1    S    
Ba2   O6    S    
Ba2   P4    S    
O20   P4    S    
C31   H53   S    
Ba1   O16   S    
C40   H25   S    
C17   H36   S    
O15   P2    D    
C37   H52   S    
C23   C34   S    
C30   H34   S    
Ba2   O23   S    
C10   C42   A    
C19   C22   A    
C25   C26   A    
C22   P2    S    
C20   C21   A    
C39   H20   S    
C33   H2    S    
C30   H12   S    
C38   O3    S    
