data_mof_unit_9565.cif
_audit_creation_date              2012-12-10T17:24:16-0500
_audit_creation_method            fapswitch 2.2
_symmetry_space_group_name_H-M    P1
_symmetry_Int_Tables_number       1
_space_group_crystal_system       triclinic
_cell_length_a                    19.395818
_cell_length_b                    10.81125
_cell_length_c                    9.613856
_cell_angle_alpha                 90.015596
_cell_angle_beta                  89.859952
_cell_angle_gamma                 95.403517
_cell_volume                      2006.99412279

loop_
_atom_site_label
_atom_site_type_symbol
_atom_type_description
_atom_site_fract_x
_atom_site_fract_y
_atom_site_fract_z
_atom_type_partial_charge
C1    C     C_R   0.494056 0.262073 0.500152 0.798195
C2    C     C_R   0.291073 0.503649 0.500294 -0.097806
C3    C     C_R   0.928367 0.485502 0.488979 0.406514
C4    C     C_R   0.068547 0.495318 0.486420 0.416015
C5    C     C_R   0.818904 0.520657 0.607899 -0.143776
C6    C     C_R   0.747330 0.521738 0.610808 -0.176537
C7    C     C_R   0.707138 0.480707 0.496020 -0.074767
C8    C     C_R   0.739849 0.431490 0.378675 -0.064248
C9    C     C_R   0.812511 0.431588 0.375401 -0.055016
C10   C     C_R   0.852238 0.478849 0.489895 0.005779
C11   C     C_R   0.404472 0.114082 0.703126 -0.159712
C12   C     C_R   0.367403 0.501382 0.500631 0.799685
C13   C     C_R   0.368111 0.044158 0.805764 -0.121688
C14   C     C_R   0.369663 0.916048 0.809197 -0.109663
C15   C     C_R   0.406978 0.856943 0.709117 -0.165198
C16   C     C_R   0.446064 0.926033 0.606051 0.086093
C17   C     C_R   0.445596 0.057304 0.604456 0.107088
C18   C     C_R   0.483428 0.126747 0.499305 -0.104531
C19   C     C_R   0.510433 0.065780 0.386738 -0.170447
C20   C     C_R   0.507574 0.938324 0.384557 -0.162411
C21   C     C_R   0.482114 0.868174 0.498996 -0.112074
C22   C     C_R   0.613884 0.646943 0.133385 0.198384
C23   C     C_R   0.492866 0.735820 0.500142 0.815338
C24   C     C_R   0.669475 0.689917 0.046920 -0.171174
C25   C     C_R   0.660739 0.698831 0.906772 -0.268193
C26   C     C_R   0.599707 0.651274 0.848178 -0.113520
C27   C     C_R   0.549908 0.575269 0.923493 0.173530
C28   C     C_R   0.552671 0.574756 0.074038 0.122290
C29   C     C_R   0.453551 0.425106 0.072169 0.247957
C30   C     C_R   0.453895 0.426037 0.925369 -0.033050
C31   C     C_R   0.631751 0.491704 0.499462 0.824214
C32   C     C_R   0.251451 0.516310 0.622835 0.152402
C33   C     C_R   0.179610 0.513810 0.614018 -0.156830
C34   C     C_R   0.145055 0.499632 0.486274 -0.032751
C35   C     C_R   0.184428 0.489033 0.363670 -0.023381
C36   C     C_R   0.256410 0.492084 0.371909 -0.214373
Cu1   Cu    Cu3+1 0.500000 0.499990 0.640660 0.954368
Cu2   Cu    Cu3+1 0.500000 0.500010 0.359340 1.001496
H1    H     H_    0.397075 0.211555 0.698593 0.151876
H2    H     H_    0.337057 0.089262 0.880656 0.169001
H3    H     H_    0.339952 0.861708 0.887066 0.170439
H4    H     H_    0.401875 0.756883 0.710885 0.186623
H5    H     H_    0.528006 0.895513 0.293872 0.191796
H6    H     H_    0.718577 0.731738 0.086618 0.186858
H7    H     H_    0.700905 0.747181 0.843250 0.171453
H8    H     H_    0.595695 0.672878 0.741294 0.214858
H9    H     H_    0.150450 0.524112 0.708885 0.190282
H10   H     H_    0.416273 0.365162 0.869530 0.156317
H11   H     H_    0.285383 0.483989 0.276408 0.198159
H12   H     H_    0.848599 0.555850 0.697168 0.163217
H13   H     H_    0.723534 0.557399 0.702355 0.163265
H14   H     H_    0.535577 0.116949 0.300723 0.186106
N1    N     N_R   0.033423 0.525002 0.371212 -0.211054
N2    N     N_R   0.964685 0.520085 0.372383 -0.207807
N3    N     N_R   0.963333 0.458364 0.605264 -0.214194
N4    N     N_R   0.032095 0.462992 0.603840 -0.216020
N5    N     N_R   0.500660 0.501210 0.147910 -0.206866
N6    N     N_R   0.500680 0.501290 0.852040 -0.209762
O1    O     O_R   0.499990 0.319640 0.618810 -0.585583
O2    O     O_R   0.500000 0.319660 0.381240 -0.553463
O3    O     O_R   0.400140 0.499970 0.618820 -0.572196
O4    O     O_R   0.400150 0.500000 0.381250 -0.561087
O5    O     O_R   0.500000 0.680340 0.618760 -0.610935
O6    O     O_R   0.500010 0.680360 0.381190 -0.557443
O7    O     O_R   0.599850 0.500000 0.618750 -0.593867
O8    O     O_R   0.599860 0.500030 0.381180 -0.555208
I1    I     I_    0.290977 0.543330 0.828226 -0.408524
I2    I     I_    0.380370 0.290680 0.162761 -0.371074
I3    I     I_    0.643313 0.753793 0.317727 -0.402448
C37   C     C_1   0.153113 0.470392 0.228137 0.312840
N7    N     N_1   0.128292 0.455385 0.119339 -0.214162
C38   C     C_1   0.699526 0.376629 0.263330 0.274626
N8    N     N_1   0.667474 0.332822 0.171330 -0.262479
C39   C     C_1   0.845674 0.378848 0.256663 0.274945
N9    N     N_1   0.872009 0.336711 0.161915 -0.226693

loop_
_geom_bond_atom_site_label_1
_geom_bond_atom_site_label_2
_ccdc_geom_bond_type
C31   O8    A    
N3    N4    A    
C16   C21   A    
C4    N1    A    
C19   C20   A    
C2    C12   S    
C7    C8    A    
C28   N5    A    
C1    C18   S    
Cu1   Cu2   S    
C30   H10   S    
C34   C35   A    
C1    O1    A    
C5    C6    A    
C3    N2    A    
C15   C16   A    
Cu2   N5    S    
C2    C32   A    
C18   C19   A    
C13   H2    S    
C3    N3    A    
C19   H14   S    
Cu2   O8    S    
C35   C37   S    
C8    C9    A    
Cu1   O7    S    
C37   N7    T    
C6    H13   S    
C9    C10   A    
C22   I3    S    
Cu1   N6    S    
C23   O5    A    
C22   C28   A    
C13   C14   A    
C4    N4    A    
Cu1   O5    S    
C33   C34   A    
Cu2   O6    S    
C4    C34   S    
C8    C38   S    
C7    C31   S    
C39   N9    T    
C24   C25   A    
C1    O2    A    
C16   C17   A    
C25   C26   A    
N1    N2    A    
C35   C36   A    
C29   C30   A    
C29   I2    S    
C12   O4    A    
C17   C18   A    
C26   C27   A    
C11   H1    S    
Cu1   O1    S    
C32   I1    S    
Cu2   O2    S    
C23   O6    A    
C29   N5    A    
C14   H3    S    
C24   H6    S    
C22   C24   A    
C5    H12   S    
C9    C39   S    
C25   H7    S    
C20   H5    S    
C2    C36   A    
C31   O7    A    
C11   C17   A    
C15   H4    S    
C38   N8    T    
C27   N6    A    
Cu1   O3    S    
C6    C7    A    
C32   C33   A    
C21   C23   S    
C5    C10   A    
C3    C10   S    
C12   O3    A    
C11   C13   A    
C33   H9    S    
C30   N6    A    
C26   H8    S    
C20   C21   A    
C27   C28   A    
C14   C15   A    
C36   H11   S    
Cu2   O4    S    
