data_mof_unit_58416.cif
_audit_creation_date              2012-12-10T18:00:19-0500
_audit_creation_method            fapswitch 2.2
_symmetry_space_group_name_H-M    P1
_symmetry_Int_Tables_number       1
_space_group_crystal_system       triclinic
_cell_length_a                    10.817539
_cell_length_b                    9.650275
_cell_length_c                    10.638211
_cell_angle_alpha                 89.894323
_cell_angle_beta                  92.227151
_cell_angle_gamma                 90.221524
_cell_volume                      1109.69774747

loop_
_atom_site_label
_atom_site_type_symbol
_atom_type_description
_atom_site_fract_x
_atom_site_fract_y
_atom_site_fract_z
_atom_type_partial_charge
C1    C     C_R   0.871545 0.500286 0.499885 -0.178256
C2    C     C_R   0.128500 0.499991 0.500211 -0.184401
C3    C     C_R   0.262669 0.499948 0.499792 0.922523
C4    C     C_R   0.737349 0.500100 0.500340 0.934012
C5    C     C_R   0.499762 0.500208 0.259781 0.820446
C6    C     C_R   0.500110 0.499735 0.740195 0.808336
C7    C     C_3   0.489013 0.632389 0.040235 -0.148234
C8    C     C_3   0.510435 0.367229 0.959584 -0.196321
C9    C     C_3   0.596437 0.576959 0.961411 -0.190941
C10   C     C_3   0.403192 0.422576 0.038579 -0.247105
C11   C     C_3   0.395718 0.552520 0.954938 0.276417
C12   C     C_3   0.603759 0.446810 0.044935 0.274020
C13   C     C_3   0.500493 0.498753 0.876883 -0.076325
C14   C     C_3   0.499100 0.500866 0.123047 -0.077018
C15   C     C_R   0.440977 0.073115 0.404861 0.419557
C16   C     C_R   0.559041 0.926887 0.595127 0.429498
C17   C     C_R   0.559183 0.073469 0.595059 0.422824
C18   C     C_R   0.440825 0.926532 0.404934 0.424158
C19   C     C_R   0.061698 0.409660 0.419401 0.241741
C20   C     C_R   0.938356 0.590684 0.580654 0.237567
C21   C     C_R   0.931833 0.406308 0.422483 0.261172
C22   C     C_R   0.068220 0.594387 0.577279 0.234351
Cu1   Cu    Cu3+1 0.500000 0.640660 0.500000 0.993999
Cu2   Cu    Cu3+1 0.500000 0.359340 0.500000 0.980053
H1    H     H_    0.478418 0.740099 0.074531 0.197967
H2    H     H_    0.521670 0.259557 0.925415 0.206104
H3    H     H_    0.675697 0.638149 0.927583 0.174421
H4    H     H_    0.323386 0.362108 0.072166 0.182243
N1    N     N_R   0.500000 0.852070 0.500000 -0.332528
N2    N     N_R   0.500000 0.147930 0.500000 -0.333282
O1    O     O_R   0.319640 0.618740 0.499990 -0.571598
O2    O     O_R   0.680360 0.381260 0.500010 -0.579795
O3    O     O_R   0.680360 0.618740 0.500010 -0.581618
O4    O     O_R   0.319640 0.381260 0.499990 -0.582834
O5    O     O_R   0.499970 0.618770 0.316850 -0.587800
O6    O     O_R   0.500030 0.381230 0.683150 -0.590989
O7    O     O_R   0.500030 0.618770 0.683150 -0.551245
O8    O     O_R   0.499970 0.381230 0.316850 -0.570428
O9    O     O_3   0.377024 0.136527 0.306779 -0.662768
H5    H     H_    0.340408 0.221273 0.339637 0.392772
O10   O     O_3   0.623023 0.863480 0.693193 -0.658865
H6    H     H_    0.659604 0.778714 0.660340 0.390215
O11   O     O_3   0.623349 0.137249 0.693033 -0.687341
H7    H     H_    0.661867 0.221426 0.659977 0.358619
O12   O     O_3   0.376664 0.862754 0.306957 -0.688874
H8    H     H_    0.338136 0.778582 0.340010 0.359152
N3    N     N_2   0.281853 0.608058 0.900337 -0.384350
H9    H     H_    0.239851 0.541345 0.836147 0.267789
C23   C     C_3   0.197184 0.661192 0.990167 -0.620348
H10   H     H_    0.115435 0.706631 0.939221 0.231996
H11   H     H_    0.242481 0.743696 0.048443 0.253559
H12   H     H_    0.165357 0.576359 0.052043 0.206264
N4    N     N_2   0.716324 0.387811 0.099278 -0.400490
H13   H     H_    0.699285 0.305750 0.158355 0.299880
C24   C     C_3   0.810046 0.357483 0.010231 -0.642894
H14   H     H_    0.893695 0.316513 0.061183 0.232797
H15   H     H_    0.836744 0.453122 0.959616 0.225114
H16   H     H_    0.775504 0.278541 0.941363 0.238558
O13   O     O_3   0.125341 0.332258 0.334141 -0.744039
H17   H     H_    0.071577 0.316813 0.257910 0.333299
O14   O     O_3   0.874767 0.667923 0.666064 -0.745436
H18   H     H_    0.928566 0.683026 0.742314 0.331601
O15   O     O_3   0.861770 0.312923 0.351537 -0.723372
H19   H     H_    0.911061 0.228016 0.339400 0.341023
O16   O     O_3   0.138254 0.688635 0.647402 -0.712807
H20   H     H_    0.088391 0.772925 0.660289 0.348248

loop_
_geom_bond_atom_site_label_1
_geom_bond_atom_site_label_2
_ccdc_geom_bond_type
C2    C22   A    
C15   C18   A    
Cu2   O8    S    
C24   H14   S    
C17   O11   S    
C22   O16   S    
C1    C21   A    
C8    C13   S    
C8    H2    S    
O10   H6    S    
C11   N3    S    
C12   N4    S    
C7    H1    S    
C8    C12   S    
C1    C4    S    
C23   H12   S    
N4    C24   S    
C2    C3    S    
C16   N1    A    
C6    O7    A    
O16   H20   S    
O13   H17   S    
N3    C23   S    
C18   N1    A    
Cu2   O6    S    
O12   H8    S    
C6    C13   S    
C3    O1    A    
C17   N2    A    
C11   C13   S    
C15   O9    S    
C5    C14   S    
C4    O2    A    
C5    O5    A    
C19   C21   A    
C6    O6    A    
C7    C11   S    
Cu1   O5    S    
C24   H15   S    
O11   H7    S    
O14   H18   S    
C9    C12   S    
Cu2   N2    S    
C21   O15   S    
C10   C11   S    
C20   C22   A    
Cu1   Cu2   S    
O15   H19   S    
C18   O12   S    
Cu1   N1    S    
C20   O14   S    
C5    O8    A    
C9    H3    S    
C15   N2    A    
C8    C10   S    
C23   H10   S    
C10   C14   S    
C24   H16   S    
C10   H4    S    
O9    H5    S    
C7    C9    S    
C9    C13   S    
C4    O3    A    
C1    C20   A    
C3    O4    A    
C19   O13   S    
C2    C19   A    
Cu1   O7    S    
C16   O10   S    
C7    C14   S    
Cu2   O4    S    
Cu1   O3    S    
N3    H9    S    
N4    H13   S    
C12   C14   S    
C16   C17   A    
C23   H11   S    
Cu2   O2    S    
Cu1   O1    S    
