data_mof_unit_28696.cif
_audit_creation_date              2012-12-11T17:43:14-0500
_audit_creation_method            fapswitch 2.2
_symmetry_space_group_name_H-M    P1
_symmetry_Int_Tables_number       1
_space_group_crystal_system       triclinic
_cell_length_a                    15.001865
_cell_length_b                    15.082759
_cell_length_c                    16.925292
_cell_angle_alpha                 108.919575
_cell_angle_beta                  106.398166
_cell_angle_gamma                 109.07801
_cell_volume                      3084.01036913

loop_
_atom_site_label
_atom_site_type_symbol
_atom_type_description
_atom_site_fract_x
_atom_site_fract_y
_atom_site_fract_z
_atom_type_partial_charge
C1    C     C_R   0.086960 0.292180 0.081874 -0.129928
C2    C     C_R   0.095476 0.113915 0.108551 -0.236652
C3    C     C_R   0.004634 0.929142 0.066969 0.069353
C4    C     C_R   0.000785 0.117694 0.082995 0.053817
C5    C     C_R   0.099231 0.021508 0.099446 0.031830
C6    C     C_R   0.909870 0.033271 0.067779 0.028280
C7    C     C_R   0.715294 0.965979 0.990915 -0.173122
C8    C     C_R   0.277769 0.065078 0.206014 -0.188145
C9    C     C_R   0.633187 0.066732 0.053611 -0.101183
C10   C     C_R   0.406566 0.053811 0.148737 -0.111605
C11   C     C_R   0.543163 0.498362 0.290682 -0.129831
C12   C     C_R   0.910462 0.724942 0.972235 -0.127735
C13   C     C_R   0.469966 0.485193 0.682830 -0.120225
C14   C     C_R   0.535851 0.512141 0.211740 -0.149909
C15   C     C_R   0.465840 0.467182 0.758001 -0.150191
C16   C     C_R   0.935165 0.518439 0.746202 -0.142168
C17   C     C_R   0.064657 0.549211 0.265550 -0.129601
C18   C     C_R   0.463447 0.428815 0.122953 0.130541
C19   C     C_R   0.529064 0.548772 0.849229 0.140490
C20   C     C_R   0.397994 0.331701 0.114600 -0.163681
C21   C     C_R   0.597226 0.648633 0.863786 -0.175187
C22   C     C_R   0.405285 0.318780 0.193884 -0.124421
C23   C     C_R   0.026554 0.577852 0.744136 0.065460
C24   C     C_R   0.601529 0.665953 0.788305 -0.131275
C25   C     C_R   0.477882 0.401653 0.281742 -0.102966
C26   C     C_R   0.537724 0.584477 0.697966 -0.088546
C27   C     C_R   0.490418 0.391223 0.979965 0.005654
C28   C     C_R   0.491576 0.580374 0.987598 0.004639
C29   C     C_R   0.538807 0.440618 0.935610 -0.028370
C30   C     C_R   0.445943 0.532624 0.034361 -0.024527
C31   C     C_R   0.524810 0.526465 0.928023 -0.046211
C32   C     C_R   0.458128 0.445555 0.040245 -0.046112
C33   C     C_R   0.625633 0.978171 0.985606 -0.087436
C34   C     C_R   0.972059 0.534501 0.274649 0.059368
C35   C     C_R   0.378964 0.078035 0.222422 -0.136813
C36   C     C_R   0.962786 0.579171 0.361167 0.129391
C37   C     C_R   0.034264 0.619041 0.677439 0.128967
C38   C     C_R   0.139067 0.693235 0.607741 -0.224048
C39   C     C_R   0.857271 0.560614 0.445434 -0.230058
C40   C     C_R   0.776036 0.202539 0.812293 -0.126966
C41   C     C_R   0.282803 0.782069 0.175229 -0.150206
C42   C     C_R   0.132535 0.675496 0.681942 -0.174888
C43   C     C_R   0.864193 0.546123 0.362408 -0.175102
C44   C     C_R   0.942847 0.592798 0.603118 -0.283943
C45   C     C_R   0.759032 0.196147 0.725178 0.056940
C46   C     C_R   0.053634 0.642407 0.445096 -0.277224
C47   C     C_R   0.948703 0.605281 0.526648 0.190508
C48   C     C_R   0.047592 0.651410 0.527483 0.188056
C49   C     C_R   0.718688 0.099800 0.638966 0.131660
C50   C     C_R   0.450803 0.849488 0.318228 0.131236
C51   C     C_R   0.597766 0.023519 0.389658 -0.230917
C52   C     C_R   0.617398 0.909345 0.553986 -0.231245
C53   C     C_R   0.506804 0.940900 0.313209 -0.175911
C54   C     C_R   0.683229 0.000440 0.637572 -0.169571
C55   C     C_R   0.496621 0.833998 0.393825 -0.283461
C56   C     C_R   0.340120 0.778296 0.252884 0.070974
C57   C     C_R   0.702042 0.105377 0.555241 -0.280375
C58   C     C_R   0.584722 0.917648 0.471960 0.191072
C59   C     C_R   0.631808 0.015218 0.471640 0.191757
C60   C     C_R   0.730345 0.143007 0.127405 -0.119089
C61   C     C_R   0.333077 0.016842 0.058476 -0.110474
C62   C     C_R   0.820238 0.131183 0.132964 -0.138896
C63   C     C_R   0.231893 0.004369 0.041746 -0.157076
C64   C     C_R   0.295786 0.579890 0.991735 -0.122884
C65   C     C_R   0.697978 0.409482 0.996680 -0.133027
C66   C     C_R   0.813638 0.042956 0.064129 0.110815
C67   C     C_R   0.352554 0.540981 0.039217 0.090678
C68   C     C_R   0.203457 0.027456 0.115414 0.092369
C69   C     C_R   0.781741 0.297213 0.734318 -0.125568
C70   C     C_R   0.275755 0.687988 0.252095 -0.137869
C71   C     C_R   0.290738 0.489652 0.073182 -0.137318
C72   C     C_R   0.706076 0.500979 0.917484 -0.147209
C73   C     C_R   0.108689 0.601603 0.823363 -0.131051
C74   C     C_R   0.890051 0.463244 0.187521 -0.136114
C75   C     C_R   0.914041 0.204855 0.002297 -0.142885
C76   C     C_R   0.083951 0.804563 0.054758 -0.131081
C77   C     C_R   0.999413 0.201254 0.057045 0.060179
C78   C     C_R   0.639732 0.442701 0.943412 0.094071
C79   C     C_R   0.998569 0.823340 0.035508 0.051726
C80   C     C_1   0.476600 0.286462 0.965187 0.024571
C81   C     C_1   0.508403 0.686404 0.004483 0.023670
C82   C     C_R   0.912477 0.938349 0.057987 -0.239295
H1    H     H_    0.165341 0.323958 0.134369 0.092257
H2    H     H_    0.649567 0.711732 0.933322 0.115655
H3    H     H_    0.354264 0.244701 0.187268 0.140149
H4    H     H_    0.655124 0.742165 0.799680 0.105005
H5    H     H_    0.130103 0.673746 0.446102 0.118400
H6    H     H_    0.866399 0.552745 0.599540 0.115581
H7    H     H_    0.792263 0.501978 0.299241 0.123821
H8    H     H_    0.204722 0.700091 0.739529 0.116957
H9    H     H_    0.215500 0.730488 0.609812 0.128108
H10   H     H_    0.780730 0.527419 0.444314 0.125831
H11   H     H_    0.856201 0.498642 0.702989 0.088193
H12   H     H_    0.829884 0.709282 0.941333 0.099545
H13   H     H_    0.143919 0.599191 0.318690 0.095826
H14   H     H_    0.733423 0.180641 0.554717 0.119181
H15   H     H_    0.457936 0.762103 0.397426 0.115948
H16   H     H_    0.698923 0.992669 0.700673 0.115128
H17   H     H_    0.477004 0.952191 0.253323 0.123322
H18   H     H_    0.635096 0.096946 0.387444 0.126109
H19   H     H_    0.583928 0.834298 0.554752 0.123685
H20   H     H_    0.563827 0.076411 0.048918 0.104537
H21   H     H_    0.485035 0.064075 0.161741 0.106258
H22   H     H_    0.736125 0.211638 0.180016 0.112071
H23   H     H_    0.708489 0.898099 0.936839 0.105189
H24   H     H_    0.354771 0.998673 0.001614 0.111101
H25   H     H_    0.895137 0.191373 0.190187 0.116066
H26   H     H_    0.175879 0.977170 0.971837 0.121468
H27   H     H_    0.766533 0.139611 0.831273 0.093755
H28   H     H_    0.313310 0.832488 0.146324 0.107807
H29   H     H_    0.317673 0.625841 0.956944 0.107729
H30   H     H_    0.670988 0.356187 0.024069 0.108074
H31   H     H_    0.777096 0.322126 0.681005 0.095248
H32   H     H_    0.298602 0.651009 0.293600 0.086342
H33   H     H_    0.310281 0.459111 0.121132 0.117668
H34   H     H_    0.257481 0.085205 0.263664 0.124428
H35   H     H_    0.687202 0.525777 0.864998 0.120937
H36   H     H_    0.189698 0.658523 0.851519 0.087518
H37   H     H_    0.807374 0.433478 0.168491 0.094710
H38   H     H_    0.832397 0.152371 0.976935 0.115802
H39   H     H_    0.162899 0.856577 0.105519 0.132641
H40   H     H_    0.842040 0.871067 0.041518 0.124667
H41   H     H_    0.167189 0.179858 0.125889 0.122305
H42   H     H_    0.587154 0.587532 0.219704 0.121271
H43   H     H_    0.413230 0.389617 0.745148 0.117170
H44   H     H_    0.550338 0.919218 0.928401 0.111588
H45   H     H_    0.483264 0.390993 0.342857 0.101089
H46   H     H_    0.436223 0.107702 0.292384 0.119110
H47   H     H_    0.541272 0.598098 0.639696 0.096647
H48   H     H_    0.599420 0.562668 0.358755 0.112517
H49   H     H_    0.420883 0.421992 0.612799 0.108892
H50   H     H_    0.339979 0.267082 0.047218 0.126992
N1    N     N_R   0.055660 0.348550 0.045620 -0.039617
N2    N     N_R   0.185200 0.638170 0.176300 -0.037877
N3    N     N_R   0.201680 0.494570 0.045620 -0.042426
N4    N     N_R   0.798320 0.505430 0.954380 -0.042195
N5    N     N_R   0.068420 0.560530 0.871650 -0.039267
N6    N     N_R   0.931580 0.439470 0.128350 -0.038856
N7    N     N_R   0.948070 0.295860 0.997670 -0.040937
N8    N     N_R   0.051930 0.704140 0.002330 -0.043386
N9    N     N_1   0.465266 0.202696 0.953218 -0.103445
N10   N     N_1   0.522099 0.771244 0.018491 -0.095392
N11   N     N_R   0.944340 0.651450 0.954380 -0.039942
N12   N     N_R   0.960830 0.507850 0.823700 -0.039546
N13   N     N_R   0.039170 0.492150 0.176300 -0.041740
N14   N     N_R   0.811290 0.303410 0.871650 -0.039950
N15   N     N_R   0.188710 0.696590 0.128350 -0.040522
N16   N     N_R   0.205200 0.552990 0.997670 -0.043273
N17   N     N_R   0.794800 0.447010 0.002330 -0.042815
N18   N     N_R   0.814800 0.361830 0.823700 -0.041415
Ni1   Ni    Ni4+2 0.119340 0.493420 0.109960 0.208671
Ni2   Ni    Ni4+2 0.880660 0.506580 0.890040 0.212750
Ni3   Ni    Ni4+2 0.872590 0.372590 0.000000 0.218786
Ni4   Ni    Ni4+2 0.127410 0.627410 0.000000 0.213611

loop_
_geom_bond_atom_site_label_1
_geom_bond_atom_site_label_2
_ccdc_geom_bond_type
C6    C82   A    
C27   C29   A    
C1    C77   A    
C14   C18   A    
C17   N13   A    
N1    Ni1   S    
N8    N11   A    
C19   C31   S    
N4    N17   A    
C65   H30   S    
C60   H22   S    
C2    H41   S    
C70   H32   S    
C15   C19   A    
C74   H37   S    
C74   N6    A    
C69   H31   S    
C16   H11   S    
C43   H7    S    
C69   N18   A    
C10   H21   S    
C19   C21   A    
C23   C73   A    
C38   C42   A    
C71   N3    A    
C11   C14   A    
C57   C59   A    
C11   C25   A    
N6    N13   A    
C49   C54   A    
C12   C79   A    
C49   C57   A    
C60   C62   A    
C22   H3    S    
C37   C42   A    
C61   C63   A    
N15   Ni4   S    
N17   Ni3   S    
C72   C78   A    
N14   N18   A    
C29   C78   S    
C9    H20   S    
C57   H14   S    
C72   H35   S    
C7    H23   S    
C36   C46   A    
C10   C35   A    
C17   H13   S    
C18   C20   A    
C30   C67   S    
C44   C47   A    
C28   C81   S    
C3    C79   S    
C64   N16   A    
C9    C33   A    
C7    C33   A    
C12   H12   S    
N16   Ni4   S    
C20   H50   S    
C5    C68   S    
C1    N1    A    
N4    Ni2   S    
C52   C54   A    
C76   N8    A    
C40   C45   A    
C46   C48   A    
C52   H19   S    
C50   C53   A    
C14   H42   S    
C62   C66   A    
C45   C69   A    
C53   H17   S    
C64   C67   A    
C4    C6    A    
C27   C80   S    
C64   H29   S    
C39   C43   A    
C62   H25   S    
C58   C59   A    
C23   C37   S    
C38   H9    S    
C22   C25   A    
C50   C56   S    
C42   H8    S    
C8    C35   A    
C2    C4    A    
C41   C56   A    
N2    N15   A    
C47   C48   A    
C41   N15   A    
C21   H2    S    
C45   C49   S    
C55   H15   S    
C3    C82   A    
C13   H49   S    
C71   H33   S    
C61   H24   S    
C75   C77   A    
N13   Ni1   S    
C26   H47   S    
C52   C58   A    
C34   C74   A    
N6    Ni3   S    
C81   N10   T    
N5    N12   A    
C20   C22   A    
C8    C68   A    
C16   C23   A    
C56   C70   A    
C41   H28   S    
C13   C15   A    
N18   Ni2   S    
C13   C26   A    
C21   C24   A    
C10   C61   A    
C51   C59   A    
C17   C34   A    
C76   H39   S    
C11   H48   S    
C39   H10   S    
C39   C47   A    
C46   H5    S    
C51   H18   S    
C63   C68   A    
N11   Ni2   S    
C73   H36   S    
C16   N12   A    
C27   C32   A    
C38   C48   A    
C28   C31   A    
C75   H38   S    
C24   C26   A    
C3    C5    A    
N1    N7    A    
C40   H27   S    
C1    H1    S    
C50   C55   A    
C12   N11   A    
C40   N14   A    
C65   C78   A    
C9    C60   A    
C37   C44   A    
C28   C30   A    
C25   H45   S    
C4    C77   S    
N12   Ni2   S    
C75   N7    A    
C7    C66   A    
C30   C32   A    
N14   Ni3   S    
C73   N5    A    
N3    Ni1   S    
N2    Ni1   S    
C33   H44   S    
C34   C36   S    
N5    Ni4   S    
C67   C71   A    
N3    N16   A    
C65   N17   A    
C35   H46   S    
C72   N4    A    
C8    H34   S    
C2    C5    A    
C6    C66   S    
C76   C79   A    
C18   C32   S    
C29   C31   A    
C80   N9    T    
C15   H43   S    
C55   C58   A    
C70   N2    A    
N7    Ni3   S    
C54   H16   S    
C36   C43   A    
C51   C53   A    
C63   H26   S    
C44   H6    S    
C24   H4    S    
C82   H40   S    
N8    Ni4   S    
