data_mof_unit_10024.cif
_audit_creation_date              2012-12-11T16:26:25-0500
_audit_creation_method            fapswitch 2.2
_symmetry_space_group_name_H-M    P1
_symmetry_Int_Tables_number       1
_space_group_crystal_system       triclinic
_cell_length_a                    6.943161
_cell_length_b                    17.572354
_cell_length_c                    19.419496
_cell_angle_alpha                 108.356439
_cell_angle_beta                  89.17266
_cell_angle_gamma                 89.953025
_cell_volume                      2248.49577768

loop_
_atom_site_label
_atom_site_type_symbol
_atom_type_description
_atom_site_fract_x
_atom_site_fract_y
_atom_site_fract_z
_atom_type_partial_charge
O1    O     O_R   0.494330 0.415720 0.413720 -0.528304
O2    O     O_R   0.819330 0.430070 0.560210 -0.544975
O3    O     O_R   0.994320 0.584280 0.586280 -0.536117
C1    C     C_R   0.650358 0.415415 0.582156 0.712246
O4    O     O_R   0.823730 0.406300 0.412670 -0.545454
O5    O     O_R   0.998760 0.560340 0.437690 -0.539353
C2    C     C_R   0.657078 0.385519 0.383214 0.719942
O6    O     O_R   0.489890 0.439660 0.562310 -0.538352
O7    O     O_3   0.662340 0.550560 0.508380 -0.368323
V1    V     V_3+5 0.935370 0.490620 0.498450 1.399837
O8    O     O_R   0.328750 0.569930 0.439790 -0.543827
C3    C     C_R   0.161603 0.584160 0.417482 0.676454
O9    O     O_R   0.324340 0.593700 0.587330 -0.538251
C4    C     C_R   0.152607 0.619813 0.612653 0.700035
V2    V     V_3+5 0.435940 0.509380 0.501550 1.406273
O10   O     O_3   0.159100 0.449440 0.491620 -0.366696
H1    H     H_    0.132356 0.892241 0.574240 0.107460
C5    C     C_R   0.120387 0.591289 0.750171 -0.138963
C6    C     C_R   0.104399 0.574701 0.815635 -0.118749
C7    C     C_R   0.092341 0.636943 0.880848 -0.113801
C8    C     C_R   0.097561 0.716274 0.881120 -0.133152
C9    C     C_R   0.114078 0.734956 0.815616 0.066443
C10   C     C_R   0.124081 0.671342 0.748553 0.068421
C11   C     C_R   0.127140 0.815477 0.816377 -0.172926
C12   C     C_R   0.150375 0.832384 0.750251 0.049428
C13   C     C_R   0.128114 0.770438 0.682680 0.050216
C14   C     C_R   0.133354 0.688391 0.681633 -0.186994
C15   C     C_R   0.190377 0.911295 0.750427 -0.148215
C16   C     C_R   0.198974 0.929981 0.686240 -0.154662
C17   C     C_R   0.146361 0.873290 0.621914 -0.137381
C18   C     C_R   0.095525 0.795354 0.620208 0.115301
H2    H     H_    0.128341 0.540582 0.701034 0.101407
H3    H     H_    0.101014 0.513182 0.815741 0.109362
H4    H     H_    0.080104 0.623723 0.931547 0.107209
H5    H     H_    0.090655 0.762779 0.933141 0.085402
H6    H     H_    0.217214 0.959269 0.800060 0.108869
H7    H     H_    0.233028 0.990353 0.687156 0.121280
C19   C     C_R   0.107076 0.598862 0.295737 -0.223309
C20   C     C_R   0.157304 0.633919 0.368476 -0.075608
C21   C     C_R   0.215499 0.714565 0.392363 -0.228870
C22   C     C_R   0.209138 0.761413 0.345367 0.109246
C23   C     C_R   0.145745 0.726749 0.273482 0.049025
C24   C     C_R   0.095579 0.644923 0.248486 0.109239
C25   C     C_R   0.264198 0.842319 0.368839 -0.192255
C26   C     C_R   0.256262 0.888459 0.321695 -0.191747
C27   C     C_R   0.191514 0.854799 0.250335 0.101347
C28   C     C_R   0.135026 0.773618 0.226207 0.048292
C29   C     C_R   0.068384 0.739112 0.154753 0.105942
C30   C     C_R   0.019057 0.657613 0.130576 -0.187256
C31   C     C_R   0.034910 0.610725 0.176701 -0.196962
C32   C     C_R   0.182802 0.900607 0.202581 -0.222843
C33   C     C_R   0.112819 0.866917 0.131878 -0.067011
C34   C     C_R   0.054007 0.786469 0.108582 -0.212654
H8    H     H_    0.083025 0.535092 0.275804 0.109824
H9    H     H_    0.265134 0.740739 0.447409 0.106338
H10   H     H_    0.313499 0.869959 0.423733 0.122679
H11   H     H_    0.300079 0.950670 0.341182 0.128546
H12   H     H_    0.000738 0.760395 0.054066 0.103775
H13   H     H_    0.969529 0.629927 0.075721 0.121853
H14   H     H_    0.997736 0.547837 0.156323 0.120885
C35   C     C_R   0.783252 0.181650 0.866435 -0.224127
C36   C     C_R   0.622363 0.133783 0.868405 -0.079241
C37   C     C_R   0.465947 0.132979 0.822820 -0.220041
C38   C     C_R   0.470031 0.178436 0.775079 0.089544
C39   C     C_R   0.630454 0.227257 0.774138 0.053715
C40   C     C_R   0.787005 0.229311 0.820358 0.090327
C41   C     C_R   0.316338 0.176000 0.728282 -0.193990
C42   C     C_R   0.320324 0.222245 0.681376 -0.186254
C43   C     C_R   0.477720 0.271993 0.680664 0.090951
C44   C     C_R   0.634143 0.274194 0.726977 0.052709
C45   C     C_R   0.794343 0.323188 0.726152 0.088874
C46   C     C_R   0.947771 0.325784 0.773104 -0.189204
C47   C     C_R   0.944101 0.279286 0.819824 -0.186982
C48   C     C_R   0.481843 0.319271 0.634297 -0.228721
C49   C     C_R   0.642612 0.367159 0.632315 -0.082757
C50   C     C_R   0.798410 0.368630 0.678361 -0.215057
H15   H     H_    0.903676 0.182986 0.901725 0.125829
H16   H     H_    0.341499 0.096183 0.823883 0.118141
H17   H     H_    0.191961 0.138854 0.728392 0.129958
H18   H     H_    0.199365 0.219586 0.646058 0.132877
H19   H     H_    0.361725 0.317642 0.598799 0.127478
H20   H     H_    0.922209 0.405957 0.677610 0.120631
H21   H     H_    0.071798 0.363164 0.773175 0.127813
H22   H     H_    0.065037 0.281948 0.855151 0.132477
H23   H     H_    0.860688 0.137270 0.425787 0.114114
C51   C     C_R   0.581548 0.407119 0.237348 0.136374
C52   C     C_R   0.475473 0.416364 0.179434 -0.135980
C53   C     C_R   0.410026 0.350104 0.125270 -0.176598
C54   C     C_R   0.458432 0.273815 0.125969 -0.149502
C55   C     C_R   0.553114 0.261950 0.185916 0.051650
C56   C     C_R   0.594648 0.329932 0.247102 0.028279
C57   C     C_R   0.613753 0.184392 0.184343 -0.178148
C58   C     C_R   0.687429 0.172880 0.248063 0.071353
C59   C     C_R   0.700698 0.238937 0.313142 0.073154
C60   C     C_R   0.653969 0.317829 0.313236 -0.198113
C61   C     C_R   0.740486 0.095442 0.249218 -0.147757
C62   C     C_R   0.804071 0.083230 0.312622 -0.131481
C63   C     C_R   0.813401 0.147224 0.376420 -0.124373
C64   C     C_R   0.761496 0.224083 0.377115 -0.136526
H24   H     H_    0.458515 0.474822 0.172532 0.133481
H25   H     H_    0.335190 0.357907 0.079399 0.123893
H26   H     H_    0.419701 0.224920 0.078746 0.129532
H27   H     H_    0.730560 0.043191 0.201611 0.112456
H28   H     H_    0.843981 0.023574 0.312426 0.123135
H29   H     H_    0.769979 0.271350 0.428479 0.107120
O11   O     O_R   0.775200 0.060470 0.937800 -0.539067
O12   O     O_R   0.441110 0.093720 0.087350 -0.543917
O13   O     O_R   0.266330 0.939630 0.062280 -0.535196
C65   C     C_R   0.608035 0.116201 0.115393 0.693903
O14   O     O_R   0.445750 0.069950 0.939820 -0.549294
O15   O     O_R   0.271000 0.915700 0.913700 -0.538668
C66   C     C_R   0.614746 0.084981 0.918152 0.707641
O16   O     O_R   0.770530 0.084400 0.086380 -0.536252
O17   O     O_3   0.602830 0.949510 0.991680 -0.364998
V3    V     V_3+5 0.329710 0.009370 0.001550 1.410602
O18   O     O_R   0.940990 0.906170 0.912570 -0.536235
C67   C     C_R   0.111868 0.882667 0.885758 0.700161
O19   O     O_R   0.936350 0.929940 0.060100 -0.542439
C68   C     C_R   0.104406 0.915533 0.082141 0.702479
V4    V     V_3+5 0.829160 0.990450 0.998310 1.425512
O20   O     O_3   0.105910 0.050480 0.008320 -0.372602
H30   H     H_    0.227807 0.962769 0.220577 0.114117
C69   C     C_3   0.722284 0.473547 0.270713 -0.399370
C70   C     C_3   0.624127 0.554216 0.306785 -0.682058
H31   H     H_    0.613322 0.588752 0.267888 0.211326
H32   H     H_    0.477573 0.544341 0.324062 0.234433
H33   H     H_    0.706432 0.590103 0.354538 0.231744
H34   H     H_    0.823116 0.459082 0.308172 0.181762
H35   H     H_    0.814298 0.479218 0.225458 0.170559
C71   C     C_3   0.968182 0.750206 0.558428 -0.389759
C72   C     C_3   0.762080 0.743798 0.584807 -0.643269
H36   H     H_    0.757415 0.709538 0.624008 0.228066
H37   H     H_    0.700849 0.804596 0.611454 0.209315
H38   H     H_    0.671005 0.712826 0.537830 0.211338
H39   H     H_    0.959630 0.781222 0.516715 0.170840
H40   H     H_    0.028872 0.691389 0.530099 0.178741

loop_
_geom_bond_atom_site_label_1
_geom_bond_atom_site_label_2
_ccdc_geom_bond_type
C42   H18   S    
C52   C53   A    
C58   C59   A    
V3    O20   S    
C54   H26   S    
C22   C23   A    
C71   H39   S    
C1    O6    A    
C72   H38   S    
C62   C63   A    
C55   C56   A    
C69   C70   S    
O11   C66   A    
C26   C27   A    
V4    O20   S    
C12   C15   A    
C26   H11   S    
C11   C67   S    
C36   C37   A    
O13   V3    S    
C15   C16   A    
C18   C71   S    
C51   C56   A    
O5    C3    A    
C17   C18   A    
C57   C65   S    
V2    O10   S    
C63   C64   A    
O18   C67   A    
C5    C6    A    
O19   C68   A    
C1    C49   S    
H23   C63   S    
O8    V2    S    
C35   C40   A    
C6    C7    A    
C35   H15   S    
C42   C43   A    
C44   C45   A    
O1    V2    S    
C10   C14   A    
C4    C14   S    
O7    V1    S    
C47   H22   S    
C35   C36   A    
C65   O16   A    
C7    H4    S    
C13   C18   A    
C8    C9    A    
C69   H35   S    
H1    C17   S    
O12   C65   A    
O13   C68   A    
C43   C44   A    
C53   H25   S    
O19   V4    S    
C29   C34   A    
C64   H29   S    
C48   C49   A    
C32   C33   A    
C46   H21   S    
C38   C41   A    
C41   H17   S    
C11   C12   A    
C6    H3    S    
C50   H20   S    
C20   C21   A    
O4    C2    A    
C51   C52   A    
C12   C13   A    
C40   C47   A    
C27   C32   A    
C19   C24   A    
C41   C42   A    
C19   C20   A    
O2    C1    A    
C49   C50   A    
C16   C17   A    
O16   V4    S    
C25   H10   S    
C55   C57   A    
C28   C29   A    
C19   H8    S    
C34   H12   S    
C21   H9    S    
C61   C62   A    
C13   C14   A    
C43   C48   A    
C53   C54   A    
O12   V3    S    
O3    C4    A    
C70   H33   S    
C21   C22   A    
C39   C40   A    
O6    V2    S    
O9    V2    S    
C22   C25   A    
C9    C11   A    
C5    H2    S    
C23   C24   A    
C48   H19   S    
C72   H36   S    
O2    V1    S    
C33   C34   A    
C70   H32   S    
C52   H24   S    
C27   C28   A    
C29   C30   A    
O11   V4    S    
O1    C2    A    
C71   H40   S    
C25   C26   A    
C46   C47   A    
C72   H37   S    
O5    V1    S    
O8    C3    A    
C24   C31   A    
O17   V3    S    
C8    H5    S    
C58   C61   A    
C2    C60   S    
C30   H13   S    
O15   C67   A    
C31   H14   S    
C38   C39   A    
C3    C20   S    
C71   C72   S    
O7    V2    S    
C45   C46   A    
O3    V1    S    
V1    O10   S    
C69   H34   S    
C45   C50   A    
C59   C64   A    
C5    C10   A    
C57   C58   A    
C23   C28   A    
C59   C60   A    
O14   C66   A    
C62   H28   S    
C56   C60   A    
C37   C38   A    
C33   C68   S    
O18   V4    S    
O4    V1    S    
C36   C66   S    
C7    C8    A    
C15   H6    S    
C30   C31   A    
C61   H27   S    
C16   H7    S    
C51   C69   S    
C32   H30   S    
C9    C10   A    
O15   V3    S    
C54   C55   A    
O9    C4    A    
O14   V3    S    
O17   V4    S    
C39   C44   A    
C70   H31   S    
C37   H16   S    
