data_mof_unit_10942.cif
_audit_creation_date              2013-03-05T16:10:12-0500
_audit_creation_method            fapswitch 2.2
_symmetry_space_group_name_H-M    P1
_symmetry_Int_Tables_number       1
_space_group_crystal_system       triclinic
_cell_length_a                    15.483813
_cell_length_b                    7.36828
_cell_length_c                    12.899552
_cell_angle_alpha                 90.00027
_cell_angle_beta                  99.926893
_cell_angle_gamma                 89.999476
_cell_volume                      1449.66438965

loop_
_atom_site_label
_atom_site_type_symbol
_atom_site_description
_atom_site_fract_x
_atom_site_fract_y
_atom_site_fract_z
_atom_type_partial_charge
O1    O     O_R   0.648180 0.355050 0.151550 -0.531134
O2    O     O_R   0.351820 0.644950 0.848450 -0.531074
O3    O     O_R   0.851820 0.855050 0.348450 -0.531131
O4    O     O_R   0.148180 0.144950 0.651550 -0.531096
O5    O     O_R   0.835240 0.681980 0.154280 -0.537905
O6    O     O_R   0.164760 0.318020 0.845720 -0.537809
O7    O     O_R   0.664760 0.181980 0.345720 -0.537925
O8    O     O_R   0.335240 0.818020 0.654280 -0.537726
C1    C     C_R   0.858707 0.516781 0.126677 0.957780
C2    C     C_R   0.141293 0.483219 0.873323 0.957781
C3    C     C_R   0.641293 0.016783 0.373322 0.957785
C4    C     C_R   0.358705 0.983219 0.626675 0.957777
O9    O     O_R   0.647870 0.684600 0.139630 -0.536939
O10   O     O_R   0.352130 0.315400 0.860370 -0.537026
O11   O     O_R   0.852130 0.184600 0.360370 -0.536940
O12   O     O_R   0.147870 0.815400 0.639630 -0.537005
O13   O     O_R   0.663110 0.857440 0.333700 -0.586066
O14   O     O_R   0.336890 0.142560 0.666300 -0.586153
O15   O     O_R   0.836890 0.357440 0.166300 -0.586076
O16   O     O_R   0.163110 0.642560 0.833700 -0.586121
C5    C     C_R   0.614579 0.516488 0.114217 1.013094
C6    C     C_R   0.385423 0.483514 0.885781 1.013184
C7    C     C_R   0.885422 0.016487 0.385782 1.013103
C8    C     C_R   0.114578 0.983514 0.614218 1.013114
O17   O     O_3   0.755220 0.522230 0.313690 -0.244056
O18   O     O_3   0.244780 0.477770 0.686310 -0.244057
O19   O     O_3   0.744780 0.022230 0.186310 -0.244055
O20   O     O_3   0.255220 0.977770 0.813690 -0.244089
V1    V     V_3+5 0.749030 0.796100 0.238190 1.406808
V2    V     V_3+5 0.250970 0.203900 0.761810 1.406808
V3    V     V_3+5 0.750970 0.296100 0.261810 1.406801
V4    V     V_3+5 0.249030 0.703900 0.738190 1.406851
C9    C     C_1   0.966424 0.005975 0.466462 0.025812
C10   C     C_1   0.033575 0.994028 0.533539 0.025752
C11   C     C_1   0.533578 0.505979 0.033534 0.025811
C12   C     C_1   0.466427 0.494032 0.966457 0.025684
C13   C     C_R   0.537760 0.032352 0.723694 0.153432
C14   C     C_R   0.462232 0.967661 0.276286 0.153537
C15   C     C_R   0.962233 0.532310 0.776300 0.153575
C16   C     C_R   0.037767 0.467657 0.223711 0.153515
C17   C     C_R   0.617669 0.100189 0.774517 0.240206
C18   C     C_R   0.382309 0.899879 0.225466 0.240369
C19   C     C_R   0.882325 0.600163 0.725480 0.240216
C20   C     C_R   0.117691 0.399877 0.274531 0.240365
C21   C     C_R   0.686505 0.122577 0.718823 0.231624
C22   C     C_R   0.313475 0.877515 0.281162 0.231577
C23   C     C_R   0.813490 0.622559 0.781176 0.231604
C24   C     C_R   0.186525 0.377514 0.218835 0.231578
C25   C     C_R   0.671199 0.099129 0.608128 0.186329
C26   C     C_R   0.328786 0.900948 0.391857 0.186352
C27   C     C_R   0.828798 0.599105 0.891870 0.186337
C28   C     C_R   0.171213 0.400946 0.108140 0.186345
C29   C     C_R   0.586601 0.048727 0.551722 -0.062702
C30   C     C_R   0.413390 0.951315 0.448261 -0.062693
C31   C     C_R   0.913397 0.548706 0.948275 -0.062683
C32   C     C_R   0.086609 0.451312 0.051735 -0.062666
C33   C     C_R   0.517606 0.023289 0.611441 -0.060658
C34   C     C_R   0.482388 0.976737 0.388540 -0.060865
C35   C     C_R   0.982392 0.523264 0.888554 -0.060797
C36   C     C_R   0.017611 0.476732 0.111456 -0.060846
C37   C     C_R   0.569683 0.015458 0.439781 -0.121756
C38   C     C_R   0.430311 0.984558 0.560204 -0.121643
C39   C     C_R   0.930315 0.515449 0.060216 -0.121749
C40   C     C_R   0.069688 0.484553 0.939792 -0.121708
Br1   Br    Br    0.635585 0.126038 0.925492 -0.249689
Br2   Br    Br    0.364386 0.874010 0.074491 -0.249632
Br3   Br    Br    0.864415 0.626061 0.574508 -0.249694
Br4   Br    Br    0.135614 0.374018 0.425507 -0.249625
N1    N     N_R   0.489895 0.924721 0.786783 0.250659
O21   O     O_R   0.497690 0.749076 0.784192 -0.351195
O22   O     O_R   0.451559 0.999056 0.858288 -0.315222
N2    N     N_R   0.510138 0.075134 0.213169 0.250642
O23   O     O_R   0.502143 0.250672 0.215380 -0.351044
O24   O     O_R   0.548521 0.000586 0.141791 -0.315270
N3    N     N_R   0.010102 0.424715 0.713198 0.250714
O25   O     O_R   0.002221 0.249192 0.715618 -0.351152
O26   O     O_R   0.048480 0.499121 0.641777 -0.315265
N4    N     N_R   0.989862 0.575139 0.286826 0.250636
O27   O     O_R   0.997843 0.750691 0.284588 -0.351060
O28   O     O_R   0.951484 0.500605 0.358214 -0.315272
N5    N     N_R   0.225517 0.855109 0.223987 0.266393
O29   O     O_R   0.197349 0.953370 0.141411 -0.332080
O30   O     O_R   0.168534 0.761272 0.263524 -0.332358
N6    N     N_R   0.774462 0.144991 0.776002 0.266396
O31   O     O_R   0.802626 0.046753 0.858587 -0.332028
O32   O     O_R   0.831453 0.238785 0.736452 -0.332368
N7    N     N_R   0.274483 0.355111 0.276010 0.266391
O33   O     O_R   0.302650 0.453374 0.358586 -0.332074
O34   O     O_R   0.331467 0.261273 0.236474 -0.332360
N8    N     N_R   0.725534 0.645008 0.723999 0.266403
O35   O     O_R   0.697365 0.546802 0.641400 -0.332019
O36   O     O_R   0.668550 0.738808 0.763560 -0.332347
N9    N     N_R   0.743814 0.122370 0.555319 0.224294
O37   O     O_R   0.759772 0.282780 0.521621 -0.285647
O38   O     O_R   0.806800 0.004546 0.571439 -0.409179
N10   N     N_R   0.256172 0.877716 0.444668 0.224269
O39   O     O_R   0.240218 0.717311 0.478377 -0.285669
O40   O     O_R   0.193179 0.995524 0.428533 -0.409173
N11   N     N_R   0.756183 0.622343 0.944680 0.224282
O41   O     O_R   0.740225 0.782752 0.978381 -0.285656
O42   O     O_R   0.693196 0.504523 0.928554 -0.409204
N12   N     N_R   0.243828 0.377712 0.055329 0.224275
O43   O     O_R   0.259782 0.217305 0.021621 -0.285663
O44   O     O_R   0.306820 0.495520 0.071463 -0.409168

loop_
_geom_bond_atom_site_label_1
_geom_bond_atom_site_label_2
_geom_bond_distance
_ccdc_geom_bond_type
O17   V3    1.792537 S    
N7    O33   1.299568 A    
O1    C5    1.353207 A    
N9    O37   1.297711 A    
C16   C36   1.429287 A    
C31   C35   1.433051 A    
O19   V1    1.792542 S    
O13   V1    2.014243 S    
O3    C7    1.353205 A    
C11   C12   1.235844 T    
O15   V3    2.014250 S    
N5    O29   1.299567 A    
C33   C38   1.427321 A    
O7    C3    1.336050 A    
C28   N12   1.421846 S    
C35   C40   1.427308 A    
C26   C30   1.433375 A    
C36   C39   1.427323 A    
O9    V1    2.014500 S    
N6    O32   1.292993 A    
C14   C18   1.389575 A    
C13   N1    1.431259 S    
C30   C34   1.433082 A    
O4    C8    1.353201 A    
N4    O28   1.300547 A    
O1    V3    1.991044 S    
O2    V4    1.991041 S    
C18   C22   1.394033 A    
N1    O22   1.300722 A    
C14   C34   1.429287 A    
C29   C37   1.443391 A    
C1    O15   1.346602 A    
C23   C27   1.417135 A    
C2    O16   1.346602 A    
C7    C9    1.487336 S    
N10   O40   1.295437 A    
O2    C6    1.353197 A    
C32   C40   1.443394 A    
O14   V2    2.014242 S    
C15   N3    1.431243 S    
C16   C20   1.389570 A    
C34   C37   1.427326 A    
O11   C7    1.359891 A    
O12   C8    1.359894 A    
N12   O43   1.297708 A    
O10   V2    2.014499 S    
N5    O30   1.292995 A    
O5    V1    2.039274 S    
C27   N11   1.421840 S    
C14   N2    1.431244 S    
O7    V3    2.039289 S    
O8    V4    2.039287 S    
N6    O31   1.299559 A    
N2    O24   1.300523 A    
C29   C33   1.433041 A    
N4    O27   1.300197 A    
C15   C19   1.389574 A    
C30   C38   1.443390 A    
C8    C10   1.487333 S    
C32   C36   1.433078 A    
C31   C39   1.443388 A    
N3    O25   1.299925 A    
O5    C1    1.336056 A    
C22   N5    1.442124 S    
C4    C38   1.514048 S    
N8    O36   1.293003 A    
N11   O41   1.297712 A    
C21   C25   1.417138 A    
O8    C4    1.336075 A    
C15   C35   1.429266 A    
N10   O39   1.297706 A    
C9    C10   1.235844 T    
C24   N7    1.442121 S    
O9    C5    1.359891 A    
N12   O44   1.295437 A    
N3    O26   1.300491 A    
N11   O42   1.295437 A    
N7    O34   1.292994 A    
C23   N8    1.442138 S    
C16   N4    1.431239 S    
C20   Br4   1.928678 S    
C21   N6    1.442133 S    
O16   V4    2.014253 S    
C3    O13   1.346604 A    
O6    V2    2.039275 S    
C1    C39   1.514010 S    
C2    C40   1.514031 S    
N2    O23   1.300106 A    
C3    C37   1.514005 S    
O6    C2    1.336062 A    
C17   Br1   1.928663 S    
O11   V3    2.014492 S    
C5    C11   1.487337 S    
O12   V4    2.014493 S    
C6    C12   1.487333 S    
C22   C26   1.417119 A    
C26   N10   1.421846 S    
O10   C6    1.359901 A    
O20   V2    1.792543 S    
O3    V1    1.991046 S    
N8    O35   1.299576 A    
N9    O38   1.295438 A    
C25   C29   1.433378 A    
C27   C31   1.433374 A    
C13   C17   1.389569 A    
N1    O21   1.300779 A    
O4    V2    1.991048 S    
C28   C32   1.433374 A    
C24   C28   1.417122 A    
C19   Br3   1.928669 S    
C4    O14   1.346595 A    
C18   Br2   1.928673 S    
C17   C21   1.394061 A    
C25   N9    1.421840 S    
C19   C23   1.394054 A    
O18   V4    1.792538 S    
C13   C33   1.429256 A    
C20   C24   1.394033 A    
