data_mof_unit_62485.cif
_audit_creation_date              2012-10-26T17:37:02-0400
_audit_creation_method            fapswitch 2.2
_symmetry_space_group_name_H-M    P1
_symmetry_Int_Tables_number       1
_space_group_crystal_system       triclinic
_cell_length_a                    18.814665
_cell_length_b                    18.569154
_cell_length_c                    18.840474
_cell_angle_alpha                 109.119248
_cell_angle_beta                  109.700025
_cell_angle_gamma                 108.992174
_cell_volume                      5104.23432141

loop_
_atom_site_label
_atom_site_type_symbol
_atom_type_description
_atom_site_fract_x
_atom_site_fract_y
_atom_site_fract_z
_atom_type_partial_charge
C1    C     C_R   0.382617 0.380352 0.501259 0.579742
C2    C     C_R   0.315975 0.311589 0.500724 0.005760
C3    C     C_R   0.313347 0.577281 0.321747 -0.138380
C4    C     C_R   0.619826 0.500023 0.619012 0.557351
C5    C     C_R   0.249573 0.575552 0.255560 -0.171334
C6    C     C_R   0.182607 0.495752 0.181891 0.014347
C7    C     C_R   0.180243 0.416414 0.174376 0.247055
C8    C     C_R   0.246020 0.419531 0.240378 -0.100744
C9    C     C_R   0.312175 0.499320 0.313720 -0.024097
C10   C     C_R   0.748903 0.763992 0.579279 -0.098288
C11   C     C_R   0.814295 0.829587 0.581898 0.249074
C12   C     C_3   0.810550 0.499901 0.807318 0.011999
C13   C     C_R   0.815708 0.817053 0.504246 0.012563
C14   C     C_R   0.752743 0.739554 0.426436 -0.172975
C15   C     C_R   0.689094 0.674078 0.425170 -0.136831
C16   C     C_R   0.618992 0.619108 0.500209 0.540717
C17   C     C_R   0.686655 0.686540 0.501447 -0.025376
C18   C     C_R   0.997391 0.380944 0.878552 0.592374
C19   C     C_R   0.878195 0.500125 0.877423 0.564309
C20   C     C_R   0.995809 0.619599 0.114415 0.552942
C21   C     C_R   0.116395 0.497771 0.115205 0.576559
C22   C     C_R   0.000337 0.880676 0.382194 0.535569
C23   C     C_3   0.835047 0.594389 0.823139 -0.189639
C24   C     C_R   0.118259 0.119478 0.500490 0.535262
C25   C     C_R   0.999518 0.119332 0.617816 0.576091
C26   C     C_R   0.881633 0.882831 0.502018 0.581291
C27   C     C_R   0.076421 0.320230 0.820187 -0.100461
C28   C     C_R   0.380522 0.500349 0.380716 0.541707
C29   C     C_R   0.076972 0.255612 0.757203 -0.121674
C30   C     C_R   0.998775 0.186711 0.683734 0.048697
C31   C     C_R   0.919939 0.182181 0.673924 -0.070804
C32   C     C_R   0.919235 0.244935 0.738680 -0.096578
C33   C     C_R   0.997529 0.314200 0.811657 0.046290
C34   C     C_3   0.723182 0.462684 0.807346 -0.284026
C35   C     C_R   0.015286 0.771183 0.187342 0.209085
C36   C     C_R   0.016447 0.833417 0.254296 -0.110520
C37   C     C_R   0.002041 0.815634 0.315976 -0.008351
C38   C     C_R   0.986150 0.735329 0.312061 -0.141110
C39   C     C_R   0.982662 0.671541 0.244654 -0.166761
C40   C     C_3   0.719769 0.437696 0.645440 -0.176056
C41   C     C_R   0.997248 0.688375 0.181928 0.006512
C42   C     C_3   0.794276 0.440244 0.715889 0.132577
C43   C     C_3   0.767562 0.592857 0.747534 -0.243634
C44   C     C_3   0.653558 0.467853 0.740174 -0.257823
C45   C     C_R   0.253323 0.328171 0.516019 -0.166989
C46   C     C_3   0.688665 0.499495 0.686532 -0.007881
C47   C     C_R   0.187051 0.264623 0.513962 -0.137846
C48   C     C_R   0.184309 0.184879 0.499017 -0.015102
C49   C     C_R   0.246010 0.167411 0.484152 -0.092147
C50   C     C_R   0.311700 0.229278 0.483585 0.250897
Cu1   Cu    Cu3+1 0.500370 0.438230 0.438520 1.070119
Cu2   Cu    Cu3+1 0.499630 0.561770 0.561480 0.975074
Cu3   Cu    Cu3+1 0.935490 0.438190 0.997300 1.040558
Cu4   Cu    Cu3+1 0.059110 0.561720 0.997220 1.143047
Cu5   Cu    Cu3+1 0.937870 0.999900 0.437760 0.996334
Cu6   Cu    Cu3+1 0.062130 0.999920 0.562070 1.065350
H1    H     H_    0.739859 0.456677 0.602221 0.195334
H2    H     H_    0.137274 0.373805 0.876466 0.152941
H3    H     H_    0.138258 0.260005 0.765071 0.132030
H4    H     H_    0.858029 0.240430 0.731283 0.131620
H5    H     H_    0.029502 0.896735 0.259399 0.163562
H6    H     H_    0.974644 0.721498 0.359948 0.134926
H7    H     H_    0.969875 0.609292 0.242293 0.147597
H8    H     H_    0.900630 0.629625 0.832732 0.234251
H9    H     H_    0.635125 0.513774 0.774007 0.148401
H10   H     H_    0.594441 0.402495 0.697223 0.174709
H11   H     H_    0.699669 0.393220 0.791867 0.147743
H12   H     H_    0.732442 0.499873 0.872608 0.143253
H13   H     H_    0.254802 0.390002 0.528186 0.149227
H14   H     H_    0.523544 0.258672 0.515378 0.362509
H15   H     H_    0.364520 0.639452 0.378263 0.148240
H16   H     H_    0.251776 0.636603 0.262312 0.144413
H17   H     H_    0.045972 0.256530 0.944689 0.374845
H18   H     H_    0.245630 0.359592 0.235363 0.179053
H19   H     H_    0.904744 0.984392 0.809727 0.389218
H20   H     H_    0.753588 0.729383 0.366763 0.132774
H21   H     H_    0.859104 0.129060 0.617301 0.154233
H22   H     H_    0.963259 0.869202 0.098156 0.340208
H23   H     H_    0.747239 0.640550 0.774003 0.147900
H24   H     H_    0.773147 0.372739 0.706269 0.105182
H25   H     H_    0.974082 0.577501 0.698804 0.383219
H26   H     H_    0.797235 0.614109 0.710903 0.170464
H27   H     H_    0.835987 0.632128 0.883301 0.157234
H28   H     H_    0.139005 0.278151 0.525624 0.140386
H29   H     H_    0.241658 0.104448 0.471756 0.169429
H30   H     H_    0.665415 0.369469 0.603913 0.117582
H31   H     H_    0.746639 0.772616 0.638025 0.183584
H32   H     H_    0.640975 0.614408 0.364496 0.147332
O1    O     O_R   0.410130 0.357660 0.448070 -0.424543
O2    O     O_R   0.053050 0.909790 0.462730 -0.507079
O3    O     O_R   0.037720 0.090080 0.447430 -0.502341
O4    O     O_R   0.409500 0.461990 0.551910 -0.526930
O5    O     O_R   0.142660 0.090100 0.552410 -0.515231
O6    O     O_R   0.946950 0.090030 0.537090 -0.515311
O7    O     O_R   0.051890 0.090040 0.642060 -0.474147
O8    O     O_R   0.857350 0.909730 0.447410 -0.515378
O9    O     O_R   0.962280 0.909740 0.552390 -0.455029
O10   O     O_R   0.590970 0.447820 0.538740 -0.495071
O11   O     O_R   0.590340 0.552140 0.642570 -0.517879
O12   O     O_R   0.049990 0.461930 0.907530 -0.478838
O13   O     O_R   0.590500 0.538010 0.448090 -0.511062
O14   O     O_R   0.589870 0.642340 0.551930 -0.512306
O15   O     O_R   0.409660 0.447860 0.357430 -0.507266
O16   O     O_R   0.409030 0.552180 0.461260 -0.509124
O17   O     O_R   0.945590 0.357610 0.907590 -0.496830
O18   O     O_2   0.376802 0.118795 0.467673 -0.273137
O19   O     O_2   0.366445 0.181638 0.371400 -0.224035
O20   O     O_3   0.487527 0.281052 0.532565 -0.549832
O21   O     O_2   0.122619 0.243497 0.085821 -0.255377
O22   O     O_2   0.014267 0.290069 0.081490 -0.245847
O23   O     O_R   0.854450 0.447820 0.906640 -0.543714
O24   O     O_3   0.089537 0.316841 0.992500 -0.542980
O25   O     O_2   0.977891 0.934772 0.712419 -0.235740
O26   O     O_2   0.892563 0.003893 0.669999 -0.308691
O27   O     O_3   0.860539 0.927193 0.757158 -0.519767
O28   O     O_2   0.127447 0.822447 0.133761 -0.190099
O29   O     O_2   0.974950 0.727371 0.022239 -0.319668
O30   O     O_3   0.026043 0.889709 0.121373 -0.473870
O31   O     O_2   0.956445 0.461086 0.759348 -0.266204
O32   O     O_2   0.857040 0.404365 0.607657 -0.277897
O33   O     O_3   0.926286 0.569598 0.712007 -0.539760
O34   O     O_R   0.958850 0.552130 0.906580 -0.435870
O35   O     O_R   0.944620 0.537990 0.086990 -0.536801
O36   O     O_R   0.049020 0.642300 0.086930 -0.442119
O37   O     O_R   0.035760 0.447780 0.087940 -0.454685
O38   O     O_R   0.140150 0.552090 0.087880 -0.526213
O39   O     O_R   0.948110 0.909780 0.357760 -0.515242
S1    S     S_3+6 0.385573 0.199645 0.461473 0.036538
S2    S     S_3+6 0.099203 0.312952 0.082841 0.037184
S3    S     S_3+6 0.889625 0.927140 0.681939 0.030452
S4    S     S_3+6 0.036324 0.801115 0.113344 0.045919
S5    S     S_3+6 0.886461 0.468089 0.698878 -0.015403

loop_
_geom_bond_atom_site_label_1
_geom_bond_atom_site_label_2
_ccdc_geom_bond_type
Cu6   O7    S    
Cu5   Cu6   S    
C11   S3    S    
C19   O34   A    
C42   H24   S    
C4    O10   A    
C27   C29   A    
C11   C13   A    
C44   H10   S    
C35   C36   A    
C20   C41   S    
C7    C8    A    
C39   C41   A    
C4    C46   S    
Cu3   Cu4   S    
C27   C33   A    
C40   C46   S    
Cu4   O38   S    
C12   C23   S    
Cu2   O14   S    
C29   C30   A    
C23   H27   S    
C36   C37   A    
H22   O30   S    
C18   O17   A    
O19   S1    D    
C5    H16   S    
C30   C31   A    
C10   C17   A    
C43   H23   S    
O18   S1    D    
C23   C43   S    
O22   S2    D    
C1    C2    S    
C40   H30   S    
C20   O35   A    
Cu5   O3    S    
O30   S4    S    
C2    C50   A    
C29   H3    S    
C16   C17   S    
C12   C42   S    
O24   S2    S    
Cu3   O23   S    
Cu1   O10   S    
C40   C42   S    
Cu4   O34   S    
C25   O6    A    
C13   C14   A    
C21   O37   A    
O26   S3    D    
Cu4   O12   S    
C44   H9    S    
C18   O12   A    
Cu6   O9    S    
Cu5   O6    S    
C35   C41   A    
C43   C46   S    
C44   C46   S    
C31   H21   S    
C45   C47   A    
C2    C45   A    
C26   O8    A    
Cu6   O5    S    
C10   H31   S    
C7    S2    S    
O25   S3    D    
C45   H13   S    
Cu1   Cu2   S    
C24   C48   S    
C49   H29   S    
C34   C44   S    
Cu3   O35   S    
C34   H12   S    
C8    C9    A    
C22   C37   S    
H25   O33   S    
C14   H20   S    
C3    H15   S    
C37   C38   A    
C3    C9    A    
C28   O16   A    
C47   C48   A    
C8    H18   S    
O31   S5    D    
C22   O2    A    
C47   H28   S    
O20   S1    S    
Cu3   O37   S    
C16   O14   A    
C48   C49   A    
Cu5   O39   S    
C25   O7    A    
C1    O4    A    
O21   S2    D    
C13   C26   S    
Cu2   O4    S    
H19   O27   S    
C32   H4    S    
O33   S5    S    
C12   C34   S    
C36   H5    S    
C24   O3    A    
C35   S4    S    
H17   O24   S    
C25   C30   S    
C15   C17   A    
Cu4   O36   S    
Cu2   O16   S    
C1    O1    A    
C40   H1    S    
O32   S5    D    
C31   C32   A    
Cu5   O8    S    
C3    C5    A    
C27   H2    S    
C34   H11   S    
C6    C7    A    
C19   O23   A    
Cu1   O13   S    
C39   H7    S    
Cu2   O11   S    
C32   C33   A    
C23   H8    S    
H14   O20   S    
C24   O5    A    
Cu1   O1    S    
C6    C21   S    
C28   O15   A    
C22   O39   A    
C5    C6    A    
O28   S4    D    
C38   C39   A    
C12   C19   S    
Cu6   O2    S    
O29   S4    D    
C18   C33   S    
C20   O36   A    
C10   C11   A    
C26   O9    A    
Cu3   O17   S    
C16   O13   A    
C50   S1    S    
C49   C50   A    
C4    O11   A    
C43   H26   S    
C14   C15   A    
C42   S5    S    
C21   O38   A    
Cu1   O15   S    
C9    C28   S    
C15   H32   S    
C38   H6    S    
O27   S3    S    
