data_mof_unit_60859.cif
_audit_creation_date              2012-12-10T17:00:47-0500
_audit_creation_method            fapswitch 2.2
_symmetry_space_group_name_H-M    P1
_symmetry_Int_Tables_number       1
_space_group_crystal_system       triclinic
_cell_length_a                    13.130177
_cell_length_b                    13.126243
_cell_length_c                    19.523715
_cell_angle_alpha                 100.324723
_cell_angle_beta                  80.513638
_cell_angle_gamma                 90.931272
_cell_volume                      3264.84830079

loop_
_atom_site_label
_atom_site_type_symbol
_atom_type_description
_atom_site_fract_x
_atom_site_fract_y
_atom_site_fract_z
_atom_type_partial_charge
C1    C     C_R   0.223145 0.536168 0.526787 0.516922
C2    C     C_2   0.492882 0.532275 0.985453 -0.125697
C3    C     C_2   0.521910 0.452519 0.012573 -0.131909
C4    C     C_R   0.775891 0.463081 0.472929 0.486126
C5    C     C_R   0.516049 0.477714 0.233498 0.040901
C6    C     C_2   0.887492 0.447313 0.460526 0.268544
C7    C     C_2   0.941826 0.498625 0.507668 -0.075203
C8    C     C_2   0.110663 0.548586 0.538921 -0.127193
C9    C     C_2   0.054558 0.488718 0.496795 -0.113202
C10   C     C_2   0.544560 0.887837 0.529948 -0.078914
C11   C     C_2   0.506729 0.940381 0.487114 -0.147665
C12   C     C_R   0.485927 0.524663 0.910053 0.011694
C13   C     C_2   0.458320 0.110202 0.466911 -0.101803
C14   C     C_2   0.511451 0.053562 0.499818 -0.145217
C15   C     C_R   0.467122 0.223214 0.478874 0.516940
C16   C     C_R   0.533486 0.776305 0.521130 0.506192
C17   C     C_R   0.510452 0.486277 0.309629 0.502741
C18   C     C_R   0.488870 0.512922 0.690314 0.542999
C19   C     C_R   0.482678 0.516373 0.766040 0.081422
C20   C     C_R   0.479627 0.423831 0.793089 0.243858
C21   C     C_R   0.479833 0.428755 0.865338 -0.095537
C22   C     C_R   0.484503 0.616189 0.882756 -0.132519
C23   C     C_R   0.482320 0.612156 0.811276 -0.173037
C24   C     C_R   0.562585 0.549382 0.126912 -0.109091
C25   C     C_R   0.560057 0.556936 0.199221 -0.122795
C26   C     C_R   0.477377 0.389600 0.194517 -0.118134
C27   C     C_R   0.482098 0.381035 0.122040 -0.112648
C28   C     C_R   0.522688 0.461653 0.088257 0.038747
H1    H     H_    0.451772 0.312661 0.092552 0.109479
H2    H     H_    0.444237 0.327091 0.220003 0.132671
H3    H     H_    0.540674 0.377059 0.980250 0.118101
H4    H     H_    0.487200 0.690937 0.916558 0.116565
H5    H     H_    0.596139 0.611459 0.101163 0.111343
H6    H     H_    0.483798 0.683742 0.790836 0.128287
H7    H     H_    0.474216 0.606563 0.019940 0.123250
H8    H     H_    0.474201 0.357361 0.885813 0.087763
H9    H     H_    0.473210 0.273089 0.775695 0.316036
H10   H     H_    0.882920 0.354950 0.371925 0.324648
H11   H     H_    0.092597 0.431675 0.453067 0.217683
H12   H     H_    0.902422 0.550033 0.554201 0.078576
H13   H     H_    0.073611 0.606350 0.582567 0.111433
H14   H     H_    0.558832 0.091143 0.537535 0.170769
H15   H     H_    0.469688 0.899902 0.444296 0.133293
H16   H     H_    0.409394 0.072996 0.430182 0.110588
H17   H     H_    0.576027 0.927918 0.575397 0.096618
H18   H     H_    0.590716 0.625259 0.228495 0.131126
O1    O     O_3   0.500000 0.500000 0.500000 -0.449381
O2    O     O_R   0.441420 0.437150 0.344000 -0.544458
O3    O     O_R   0.438960 0.578560 0.667440 -0.559242
O4    O     O_R   0.575450 0.541060 0.341470 -0.543427
O5    O     O_R   0.544160 0.443230 0.647100 -0.487289
O6    O     O_3   0.474622 0.330078 0.748389 -0.681422
O7    O     O_3   0.936499 0.384779 0.399757 -0.710336
O8    O     O_R   0.530110 0.266880 0.518530 -0.527353
O9    O     O_R   0.465470 0.738830 0.563940 -0.537063
O10   O     O_R   0.266890 0.467300 0.476120 -0.537198
O11   O     O_R   0.737530 0.526990 0.441410 -0.541338
O12   O     O_R   0.276880 0.592620 0.567490 -0.531443
O13   O     O_R   0.718700 0.413090 0.514970 -0.548251
O14   O     O_R   0.414920 0.276880 0.447500 -0.538705
O15   O     O_R   0.589510 0.717410 0.470040 -0.532031
Zn1   Zn    Zn3+2 0.571990 0.407410 0.544380 0.969494
Zn2   Zn    Zn3+2 0.407420 0.421690 0.442900 0.948925
Zn3   Zn    Zn3+2 0.598910 0.570150 0.439280 0.939494
Zn4   Zn    Zn3+2 0.421690 0.600750 0.573440 0.946273

loop_
_geom_bond_atom_site_label_1
_geom_bond_atom_site_label_2
_ccdc_geom_bond_type
C2    H7    S    
C4    O11   A    
O15   Zn3   S    
C19   C23   A    
C7    H12   S    
C11   H15   S    
C6    C7    D    
O3    Zn4   S    
C17   O4    A    
C27   H1    S    
C1    C8    S    
O4    Zn3   S    
C15   O14   A    
O12   Zn4   S    
C19   C20   A    
C17   O2    A    
C14   H14   S    
C23   H6    S    
C2    C12   S    
O1    Zn1   S    
C2    C3    D    
O10   Zn2   S    
C8    H13   S    
C20   O6    S    
C21   H8    S    
C10   C16   S    
C13   C14   D    
C24   C25   A    
O2    Zn2   S    
C3    H3    S    
H10   O7    S    
C26   C27   A    
O5    Zn1   S    
C22   H4    S    
C10   H17   S    
O14   Zn2   S    
C5    C25   A    
C25   H18   S    
C4    O13   A    
C3    C28   S    
O9    Zn4   S    
C1    O10   A    
C18   O5    A    
C26   H2    S    
C13   C15   S    
O1    Zn2   S    
C11   C14   S    
C16   O9    A    
C5    C17   S    
C10   C11   D    
C6    O7    S    
C5    C26   A    
C15   O8    A    
C12   C22   A    
C9    H11   S    
C20   C21   A    
C24   H5    S    
O11   Zn3   S    
C4    C6    S    
C18   C19   S    
C16   O15   A    
O1    Zn3   S    
C7    C9    S    
H9    O6    S    
C22   C23   A    
O13   Zn1   S    
O8    Zn1   S    
C1    O12   A    
C12   C21   A    
O1    Zn4   S    
C13   H16   S    
C24   C28   A    
C18   O3    A    
C8    C9    D    
C27   C28   A    
