data_mof_unit_41731.cif
_audit_creation_date              2012-12-11T18:37:20-0500
_audit_creation_method            fapswitch 2.2
_symmetry_space_group_name_H-M    P1
_symmetry_Int_Tables_number       1
_space_group_crystal_system       triclinic
_cell_length_a                    8.191503
_cell_length_b                    14.328123
_cell_length_c                    27.02123
_cell_angle_alpha                 93.207995
_cell_angle_beta                  92.719543
_cell_angle_gamma                 88.139183
_cell_volume                      3161.50113629

loop_
_atom_site_label
_atom_site_type_symbol
_atom_type_description
_atom_site_fract_x
_atom_site_fract_y
_atom_site_fract_z
_atom_type_partial_charge
Ba1   Ba    Ba6+2 0.849670 0.455410 0.524690 1.678953
Ba2   Ba    Ba6+2 0.340150 0.544510 0.475310 1.656696
C1    C     C_3   0.551669 0.143063 0.644817 -0.363298
C2    C     C_3   0.506648 0.242832 0.663437 0.330071
C3    C     C_3   0.525265 0.691689 0.622820 0.300567
C4    C     C_3   0.503010 0.728562 0.676055 -0.367984
C5    C     C_3   0.084959 0.744228 0.332810 0.340287
C6    C     C_3   0.102482 0.769538 0.279454 -0.307561
C7    C     C_3   0.550270 0.795552 0.354899 0.350362
C8    C     C_3   0.518435 0.890587 0.333321 -0.344915
C9    C     C_R   0.012977 0.433720 0.180502 0.608620
C10   C     C_R   0.919986 0.593337 0.175615 0.573440
C11   C     C_2   0.764143 0.559878 0.270460 -0.049402
C12   C     C_3   0.037880 0.096925 0.642380 0.310113
C13   C     C_3   0.750269 0.592276 0.324088 -0.054546
C14   C     C_1   0.981121 0.485813 0.343485 0.030329
C15   C     C_2   0.022464 0.481660 0.295978 -0.108450
C16   C     C_2   0.905881 0.518063 0.255789 0.193280
C17   C     C_R   0.026362 0.510507 0.101912 -0.079224
C18   C     C_R   0.055448 0.431151 0.129996 -0.034813
C19   C     C_R   0.125011 0.350456 0.106831 -0.052930
C20   C     C_R   0.957398 0.591766 0.125049 -0.022363
C21   C     C_2   0.851731 0.534254 0.359318 -0.294964
C22   C     C_2   0.352284 0.479257 0.642454 -0.233178
C23   C     C_3   0.007321 0.082963 0.696499 -0.338404
C24   C     C_R   0.184905 0.426855 0.977386 0.020299
C25   C     C_R   0.064780 0.586024 0.971098 0.020226
C26   C     C_R   0.144560 0.505773 0.948936 0.051391
C27   C     C_R   0.269953 0.350330 0.953913 -0.098991
C28   C     C_R   0.310576 0.350549 0.904395 -0.053359
C29   C     C_R   0.268259 0.426870 0.875641 -0.037973
C30   C     C_R   0.184723 0.504547 0.897766 -0.077669
C31   C     C_R   0.142047 0.581186 0.868773 -0.030172
C32   C     C_R   0.183160 0.579222 0.818316 0.582264
C33   C     C_R   0.308489 0.426863 0.825216 0.592256
C34   C     C_3   0.162634 0.257160 0.422785 0.331443
C35   C     C_2   0.461403 0.482037 0.730506 -0.085564
C36   C     C_3   0.503640 0.486171 0.676506 -0.113707
C37   C     C_1   0.215398 0.520294 0.656932 0.055483
C38   C     C_2   0.177091 0.522440 0.704379 -0.036615
C39   C     C_2   0.305838 0.501245 0.744421 0.232166
C40   C     C_R   0.140320 0.427171 0.028075 0.019595
C41   C     C_R   0.065928 0.508752 0.050670 0.050445
C42   C     C_R   0.030706 0.588761 0.022617 0.020542
C43   C     C_R   0.166776 0.348409 0.057263 -0.095631
C44   C     C_R   0.928017 0.670856 0.097346 -0.057655
C45   C     C_3   0.162314 0.151901 0.411613 -0.362252
C46   C     C_R   0.021040 0.660967 0.940570 -0.099935
C47   C     C_R   0.059013 0.658497 0.890792 -0.058819
C48   C     C_R   0.963487 0.669545 0.047485 -0.101475
C49   C     C_R   0.687754 0.064744 0.471527 -0.040675
C50   C     C_R   0.508203 0.198123 0.501100 0.055299
C51   C     C_R   0.371025 0.229140 0.527055 -0.266183
C52   C     C_R   0.267212 0.165760 0.545961 -0.017349
C53   C     C_R   0.307408 0.070375 0.542150 -0.154863
C54   C     C_R   0.452280 0.038313 0.520146 0.008793
C55   C     C_R   0.550879 0.101184 0.497257 -0.024646
C56   C     C_3   0.031099 0.741051 0.574107 0.319327
C57   C     C_R   0.635842 0.907692 0.496034 -0.024819
C58   C     C_R   0.731900 0.969102 0.471247 -0.008279
C59   C     C_R   0.681599 0.811858 0.495688 0.029470
C60   C     C_R   0.816229 0.777983 0.470028 -0.289920
C61   C     C_R   0.917274 0.838656 0.448529 0.019637
C62   C     C_R   0.874449 0.934210 0.448192 -0.144439
C63   C     C_R   0.497353 0.943565 0.520384 -0.035243
C64   C     C_3   0.025747 0.846742 0.584020 -0.404573
C65   C     C_3   0.661763 0.338713 0.379702 0.265842
C66   C     C_3   0.672714 0.312942 0.324230 -0.213791
H1    H     H_    0.440540 0.277308 0.632103 -0.074814
H2    H     H_    0.249364 0.131589 0.382337 0.165383
H3    H     H_    0.198811 0.114489 0.445304 0.050284
H4    H     H_    0.037697 0.130525 0.398626 0.111107
H5    H     H_    0.908607 0.717376 0.561752 0.001610
H6    H     H_    0.117785 0.723145 0.544585 0.074215
H7    H     H_    0.932408 0.867071 0.611442 0.127593
H8    H     H_    0.994522 0.882306 0.549328 0.060848
H9    H     H_    0.147182 0.870385 0.598869 0.109907
H10   H     H_    0.784276 0.358050 0.394876 0.001043
H11   H     H_    0.575599 0.399485 0.385020 0.057276
H12   H     H_    0.624424 0.144679 0.611238 0.123394
H13   H     H_    0.750913 0.248683 0.318756 0.086538
H14   H     H_    0.731007 0.370050 0.306251 0.022270
H15   H     H_    0.439908 0.102993 0.635487 0.050195
H16   H     H_    0.403658 0.672216 0.606344 0.023717
H17   H     H_    0.609005 0.629174 0.622776 0.031273
H18   H     H_    0.425886 0.793799 0.676417 0.137616
H19   H     H_    0.441724 0.676417 0.696957 0.070842
H20   H     H_    0.623840 0.743555 0.694678 0.126841
H21   H     H_    0.625323 0.106133 0.673656 0.133395
H22   H     H_    0.900233 0.126564 0.708426 0.155318
H23   H     H_    0.155708 0.677957 0.338716 0.088878
H24   H     H_    0.953771 0.734080 0.338514 -0.056096
H25   H     H_    0.222593 0.800740 0.274855 0.149282
H26   H     H_    0.095039 0.705432 0.254728 0.117857
H27   H     H_    0.004057 0.820463 0.268503 0.122257
H28   H     H_    0.684627 0.781538 0.355882 -0.065718
H29   H     H_    0.507380 0.799181 0.393377 0.079329
H30   H     H_    0.587898 0.944429 0.355902 0.075870
H31   H     H_    0.386459 0.910365 0.333633 0.154512
H32   H     H_    0.152421 0.057676 0.633412 -0.028109
H33   H     H_    0.558618 0.888663 0.294590 0.125362
H34   H     H_    0.141986 0.453833 0.286224 0.143436
H35   H     H_    0.148095 0.287887 0.127116 0.124853
H36   H     H_    0.559015 0.470144 0.758231 0.100784
H37   H     H_    0.375981 0.289895 0.888609 0.134738
H38   H     H_    0.309816 0.289087 0.972988 0.072296
H39   H     H_    0.217607 0.282855 0.042747 0.071688
H40   H     H_    0.672074 0.583967 0.243502 0.123800
H41   H     H_    0.876708 0.734966 0.114213 0.124606
H42   H     H_    0.954562 0.722753 0.953692 0.071426
H43   H     H_    0.933095 0.068206 0.619313 0.037587
H44   H     H_    0.022532 0.718143 0.869456 0.124507
H45   H     H_    0.052527 0.539133 0.714462 0.111207
H46   H     H_    0.938957 0.734274 0.029780 0.070994
H47   H     H_    0.837563 0.549841 0.398672 0.084273
H48   H     H_    0.357449 0.443892 0.605922 0.068821
H49   H     H_    0.339095 0.303045 0.529714 0.062628
H50   H     H_    0.225812 0.020969 0.555862 0.048370
H51   H     H_    0.953440 0.980947 0.431105 0.072890
H52   H     H_    0.849960 0.704334 0.470248 0.060007
H53   H     H_    0.762630 0.109588 0.451919 0.098099
H54   H     H_    0.983334 0.008256 0.701384 0.075698
H55   H     H_    0.422019 0.898579 0.539806 0.100879
H56   H     H_    0.116192 0.103256 0.720238 0.144215
H57   H     H_    0.288646 0.278483 0.432665 0.001596
H58   H     H_    0.082794 0.274882 0.454216 0.044975
N1    N     N_R   0.946966 0.514655 0.203259 -0.420485
N2    N     N_R   0.264939 0.502259 0.796720 -0.429020
O1    O     O_2   0.918080 0.549800 0.616640 -0.467216
O2    O     O_3   0.610066 0.261139 0.403355 -0.625359
O3    O     O_3   0.053789 0.192851 0.635999 -0.538878
O4    O     O_2   0.271610 0.450170 0.383330 -0.457796
O5    O     O_3   0.039630 0.450200 0.443530 -0.503949
O6    O     O_3   0.531440 0.620360 0.408460 -0.480159
O7    O     O_3   0.105664 0.300880 0.380162 -0.605986
O8    O     O_3   0.643350 0.612530 0.521650 -0.474657
O9    O     O_3   0.127390 0.668260 0.431510 -0.493395
O10   O     O_2   0.256301 0.833921 0.456560 -0.490863
O11   O     O_3   0.145550 0.816515 0.364956 -0.599629
O12   O     O_3   0.150070 0.549720 0.556460 -0.499907
O13   O     O_3   0.546340 0.387390 0.478340 -0.488583
O14   O     O_2   0.398940 0.728800 0.517420 -0.471978
O15   O     O_3   0.592966 0.761903 0.596952 -0.645416
O16   O     O_2   0.414034 0.545851 0.321717 -0.474777
O17   O     O_3   0.465661 0.726544 0.325666 -0.595880
O18   O     O_2   0.032456 0.363283 0.203819 -0.599092
O19   O     O_2   0.381747 0.359135 0.806680 -0.563421
O20   O     O_2   0.864119 0.665730 0.195066 -0.621371
O21   O     O_2   0.148287 0.646906 0.793883 -0.601047
O22   O     O_3   0.658250 0.379560 0.591530 -0.465229
O23   O     O_2   0.837116 0.426409 0.672418 -0.446173
O24   O     O_3   0.080152 0.699501 0.618140 -0.632529
O25   O     O_3   0.651161 0.287250 0.680713 -0.579881
O26   O     O_2   0.790750 0.271170 0.482550 -0.472604
O27   O     O_3   0.062300 0.331660 0.568480 -0.440230
O28   O     O_2   0.922100 0.169725 0.545602 -0.510729
P1    P     P_3+3 0.090020 0.577590 0.608380 0.991611
P2    P     P_3+3 0.614340 0.285150 0.467650 0.985049
P3    P     P_3+3 0.075737 0.210629 0.573098 0.992828
P4    P     P_3+3 0.099670 0.422330 0.391610 1.001590
P5    P     P_3+3 0.111872 0.789845 0.425879 0.942660
P6    P     P_3+3 0.661785 0.397317 0.656075 1.035851
P7    P     P_3+3 0.584259 0.729696 0.533524 0.933988
P8    P     P_3+3 0.538504 0.617248 0.344132 0.959832
C67   C     C_2   0.507182 0.297711 0.299343 0.911882
O29   O     O_2   0.423564 0.234255 0.311330 -0.585923
O30   O     O_R   0.450913 0.355363 0.261739 -0.746745
H59   H     H_    0.339692 0.337142 0.246983 0.331787
C68   C     C_2   0.393536 0.241254 0.705525 0.880392
O31   O     O_2   0.432045 0.196555 0.741767 -0.568683
O32   O     O_R   0.245340 0.292209 0.703331 -0.749707
H60   H     H_    0.178201 0.285024 0.733371 0.335612

loop_
_geom_bond_atom_site_label_1
_geom_bond_atom_site_label_2
_ccdc_geom_bond_type
C25   C46   A    
C46   H42   S    
C53   C54   A    
C67   O29   D    
C14   P4    S    
C68   O31   D    
C17   C18   A    
O32   H60   S    
O1    P1    D    
C5    C6    S    
C10   N1    Am   
C29   C30   A    
C51   C52   A    
C6    H27   S    
C24   C40   A    
C23   H22   S    
O4    P4    D    
C62   H51   S    
C11   C16   D    
C66   H13   S    
Ba1   P2    S    
O26   P2    D    
Ba1   O1    S    
C28   C29   A    
O12   P1    S    
C51   H49   S    
C3    O15   S    
C5    H24   S    
C31   C47   A    
C54   C63   A    
C10   C20   A    
C22   C37   D    
C4    H20   S    
C54   C55   A    
C34   C45   S    
C8    H30   S    
Ba1   Ba2   S    
Ba1   O27   S    
C52   P3    S    
C52   C53   A    
C25   C42   A    
C56   C64   S    
C34   H57   S    
C56   O24   S    
C14   C15   D    
C22   C36   S    
C49   C55   A    
Ba1   O8    S    
C7    C8    S    
C60   H52   S    
C3    H17   S    
C66   C67   S    
C13   C21   S    
C2    O25   S    
C64   H8    S    
C57   C58   A    
C67   O30   S    
O16   P8    D    
C68   O32   S    
C39   N2    S    
C33   N2    Am   
C65   H10   S    
C11   H40   S    
Ba1   O5    S    
C1    H12   S    
O15   P7    S    
C2    H1    S    
C32   O21   D    
C17   C41   A    
C58   C62   A    
C31   C32   A    
C19   C43   A    
C12   O3    S    
O28   P3    D    
C50   P2    S    
C12   H43   S    
O22   P6    S    
C9    C18   A    
C57   C59   A    
Ba2   O5    S    
C2    C68   S    
O27   P3    S    
C65   C66   S    
C13   P8    S    
O11   P5    S    
C17   C20   A    
C65   H11   S    
C37   C38   D    
C3    H16   S    
C21   H47   S    
Ba2   O8    S    
C4    H19   S    
C48   H46   S    
C40   C43   A    
C9    N1    Am   
C15   H34   S    
C45   H2    S    
C35   C36   S    
C16   N1    S    
Ba2   O4    S    
C38   H45   S    
C26   C30   A    
O23   P6    D    
C5    H23   S    
O9    P5    S    
C60   C61   A    
C15   C16   S    
C6    H26   S    
Ba1   O22   S    
C33   O19   D    
O3    P3    S    
C7    H28   S    
C45   H3    S    
Ba1   O12   S    
C47   H44   S    
Ba2   P4    S    
C46   C47   A    
C20   C44   A    
O30   H59   S    
C22   H48   S    
C14   C21   D    
C11   C13   S    
C41   C42   A    
C1    H15   S    
Ba2   O14   S    
C29   C33   A    
C27   H38   S    
C65   O2    S    
C40   C41   A    
C1    C2    S    
C34   O7    S    
O14   P7    D    
C50   C51   A    
C56   H6    S    
C23   H54   S    
C42   C48   A    
C61   P5    S    
C64   H9    S    
O24   P1    S    
C38   C39   S    
C7    H29   S    
O7    P4    S    
C59   P7    S    
Ba2   O9    S    
C8    H33   S    
C34   H58   S    
C6    H25   S    
C35   H36   S    
Ba1   O26   S    
Ba2   O6    S    
C9    O18   D    
C12   H32   S    
O17   P8    S    
C44   C48   A    
C24   C26   A    
C4    H18   S    
C1    H21   S    
O25   P6    S    
O2    P2    S    
O5    P4    S    
Ba2   O12   S    
C30   C31   A    
C10   O20   D    
Ba1   P1    S    
C66   H14   S    
C28   H37   S    
C57   C63   A    
C5    O11   S    
C3    C4    S    
C49   H53   S    
C64   H7    S    
C7    O17   S    
O6    P8    S    
C8    H31   S    
O10   P5    D    
C63   H55   S    
C12   C23   S    
C35   C39   D    
C59   C60   A    
C23   H56   S    
C45   H4    S    
Ba1   O13   S    
C50   C55   A    
C27   C28   A    
C61   C62   A    
C19   H35   S    
O13   P2    S    
C36   P6    S    
C18   C19   A    
C24   C27   A    
C32   N2    Am   
C44   H41   S    
C25   C26   A    
Ba2   O13   S    
C49   C58   A    
O8    P7    S    
C37   P1    S    
C43   H39   S    
C56   H5    S    
C53   H50   S    
