data_mof_unit_43833.cif
_audit_creation_date              2012-12-10T17:40:28-0500
_audit_creation_method            fapswitch 2.2
_symmetry_space_group_name_H-M    P1
_symmetry_Int_Tables_number       1
_space_group_crystal_system       triclinic
_cell_length_a                    13.851926
_cell_length_b                    15.025468
_cell_length_c                    15.803882
_cell_angle_alpha                 86.039134
_cell_angle_beta                  70.111564
_cell_angle_gamma                 89.384658
_cell_volume                      3085.43129162

loop_
_atom_site_label
_atom_site_type_symbol
_atom_type_description
_atom_site_fract_x
_atom_site_fract_y
_atom_site_fract_z
_atom_type_partial_charge
C1    C     C_R   0.499864 0.671158 0.500646 0.836364
C2    C     C_R   0.501103 0.329179 0.498688 0.845057
C3    C     C_R   0.378007 0.515042 0.096002 -0.243374
C4    C     C_R   0.621625 0.498216 0.904446 -0.271028
C5    C     C_R   0.305324 0.530950 0.053147 0.277839
C6    C     C_R   0.691392 0.473975 0.947985 0.268173
C7    C     C_R   0.533942 0.183624 0.559141 -0.302045
C8    C     C_R   0.499790 0.818772 0.425562 -0.296068
C9    C     C_R   0.506082 0.233015 0.493802 -0.133922
C10   C     C_R   0.502811 0.768242 0.501399 -0.147724
C11   C     C_R   0.491458 0.192260 0.421807 0.369824
C12   C     C_R   0.523439 0.808779 0.571080 0.360601
C13   C     C_R   0.508277 0.099339 0.414609 -0.087458
C14   C     C_R   0.539737 0.902731 0.564290 -0.080001
C15   C     C_R   0.525565 0.048147 0.487498 -0.060477
C16   C     C_R   0.525161 0.954107 0.490217 -0.063834
C17   C     C_R   0.542729 0.091133 0.557986 0.029336
C18   C     C_R   0.509849 0.911443 0.418706 0.030752
C19   C     C_R   0.510122 0.055412 0.337546 0.391360
C20   C     C_R   0.571318 0.947747 0.626959 0.392278
C21   C     C_R   0.507509 0.962105 0.340621 0.170757
C22   C     C_R   0.570151 0.041191 0.625128 0.167313
C23   C     C_R   0.437079 0.506255 0.671793 0.830890
C24   C     C_R   0.562448 0.496205 0.328077 0.852798
C25   C     C_R   0.227019 0.559913 0.442852 0.378076
C26   C     C_R   0.777491 0.429166 0.542630 0.349962
C27   C     C_R   0.183164 0.440488 0.557296 0.371435
C28   C     C_R   0.810596 0.568073 0.454217 0.361990
C29   C     C_R   0.085360 0.432719 0.547312 -0.051038
C30   C     C_R   0.912990 0.569685 0.455057 -0.074717
C31   C     C_R   0.051225 0.500604 0.499963 -0.025313
C32   C     C_R   0.948423 0.498573 0.498836 -0.003530
C33   C     C_R   0.120729 0.569275 0.452200 -0.094269
C34   C     C_R   0.882181 0.424954 0.540060 -0.113239
C35   C     C_R   0.023083 0.356598 0.581162 -0.185397
C36   C     C_R   0.980506 0.641504 0.413613 -0.246262
C37   C     C_R   0.923769 0.350305 0.576479 0.263797
C38   C     C_R   0.082478 0.642229 0.411747 0.267945
C39   C     C_R   0.399159 0.521460 0.769514 -0.147310
C40   C     C_R   0.598662 0.484778 0.230249 -0.134426
C41   C     C_R   0.270004 0.562571 0.909749 0.383116
C42   C     C_R   0.720580 0.431411 0.092553 0.362984
C43   C     C_R   0.300896 0.555454 0.815935 0.181443
C44   C     C_R   0.690048 0.440050 0.186396 0.177194
C45   C     C_R   0.468257 0.508131 0.815752 -0.231151
C46   C     C_R   0.533412 0.510346 0.182657 -0.267733
C47   C     C_R   0.441915 0.519893 0.908080 0.025012
C48   C     C_R   0.557403 0.494776 0.091481 0.020444
C49   C     C_R   0.337980 0.538588 0.957744 -0.055943
C50   C     C_R   0.657934 0.466168 0.043273 -0.004689
C51   C     C_R   0.515913 0.508460 0.952344 0.077570
C52   C     C_R   0.483812 0.508361 0.047205 0.059745
Cu1   Cu    Cu3+1 0.402580 0.500010 0.499990 0.973037
Cu2   Cu    Cu3+1 0.597420 0.499990 0.500010 1.003141
H1    H     H_    0.054832 0.299080 0.606533 0.186857
H2    H     H_    0.954486 0.699600 0.383639 0.163372
H3    H     H_    0.464026 0.544482 0.217487 0.178089
H4    H     H_    0.542950 0.485749 0.778219 0.168355
H5    H     H_    0.349512 0.501679 0.168126 0.162138
H6    H     H_    0.653719 0.510800 0.832369 0.146667
H7    H     H_    0.544583 0.218668 0.612916 0.159743
H8    H     H_    0.490911 0.784580 0.371300 0.141934
N1    N     N_R   0.256170 0.500070 0.500040 -0.224637
N2    N     N_R   0.743830 0.499930 0.499960 -0.206511
O1    O     O_R   0.417730 0.629750 0.499970 -0.596396
O2    O     O_R   0.582270 0.370250 0.500030 -0.572915
O3    O     O_R   0.582270 0.629730 0.499980 -0.525333
O4    O     O_R   0.417730 0.370270 0.500020 -0.564028
O5    O     O_R   0.371590 0.500020 0.629830 -0.617390
O6    O     O_R   0.628410 0.499980 0.370170 -0.552512
O7    O     O_R   0.536130 0.499990 0.629840 -0.543835
O8    O     O_R   0.463870 0.500010 0.370160 -0.536803
N3    N     N_2   0.198437 0.525268 0.104998 -0.370451
H9    H     H_    0.161632 0.468036 0.098844 0.272686
C53   C     C_3   0.161369 0.560822 0.192915 -0.635524
H10   H     H_    0.078867 0.576970 0.209834 0.238187
H11   H     H_    0.203727 0.623162 0.193059 0.229512
H12   H     H_    0.168713 0.510187 0.244863 0.200598
N4    N     N_2   0.796542 0.464947 0.894389 -0.381678
H13   H     H_    0.807724 0.440591 0.832328 0.246308
C54   C     C_3   0.859416 0.543226 0.887414 -0.548722
H14   H     H_    0.940798 0.528793 0.849073 0.236978
H15   H     H_    0.854651 0.562113 0.955436 0.249484
H16   H     H_    0.834064 0.599937 0.851449 0.209714
N5    N     N_2   0.301916 0.589283 0.359000 -0.385835
H17   H     H_    0.283642 0.575073 0.303532 0.217066
C55   C     C_3   0.351639 0.675032 0.349132 -0.587278
H18   H     H_    0.337723 0.717191 0.294044 0.205369
H19   H     H_    0.435517 0.664990 0.328417 0.203706
H20   H     H_    0.323729 0.710260 0.412230 0.246142
N6    N     N_2   0.705930 0.360270 0.589381 -0.369350
H21   H     H_    0.714946 0.300240 0.559962 0.247736
C56   C     C_3   0.668576 0.355407 0.686975 -0.627465
H22   H     H_    0.692812 0.292676 0.714409 0.233178
H23   H     H_    0.583523 0.353881 0.711495 0.210705
H24   H     H_    0.697194 0.412552 0.713072 0.207088
N7    N     N_2   0.204507 0.383756 0.625404 -0.435018
H25   H     H_    0.278298 0.373383 0.622383 0.303396
C57   C     C_3   0.132728 0.382563 0.717327 -0.718383
H26   H     H_    0.174264 0.394455 0.764570 0.230464
H27   H     H_    0.095451 0.315756 0.737396 0.249115
H28   H     H_    0.072714 0.434118 0.725030 0.235536
N8    N     N_2   0.774704 0.639414 0.409245 -0.373330
H29   H     H_    0.772003 0.699520 0.437809 0.253590
C58   C     C_3   0.815952 0.646753 0.311467 -0.681330
H30   H     H_    0.755153 0.629694 0.284149 0.247896
H31   H     H_    0.882599 0.602553 0.284919 0.210916
H32   H     H_    0.842121 0.716403 0.286686 0.214404
N9    N     N_2   0.871292 0.266138 0.598828 -0.449049
H33   H     H_    0.874596 0.232177 0.543424 0.252018
C59   C     C_3   0.880728 0.209849 0.673794 -0.676978
H34   H     H_    0.817220 0.159753 0.696366 0.246584
H35   H     H_    0.875429 0.250274 0.731488 0.245713
H36   H     H_    0.954363 0.173428 0.652746 0.229869
N10   N     N_2   0.141573 0.721531 0.377593 -0.442787
H37   H     H_    0.132893 0.749822 0.319277 0.252144
C60   C     C_3   0.127974 0.786017 0.444525 -0.679420
H38   H     H_    0.179521 0.844412 0.414535 0.223585
H39   H     H_    0.147288 0.756134 0.503005 0.234271
H40   H     H_    0.047368 0.809423 0.468223 0.238906
N11   N     N_2   0.744980 0.396047 0.238351 -0.394100
H41   H     H_    0.743008 0.327373 0.239355 0.293977
C61   C     C_3   0.844836 0.433019 0.227941 -0.570795
H42   H     H_    0.848878 0.442577 0.295639 0.216862
H43   H     H_    0.859548 0.498015 0.187327 0.227680
H44   H     H_    0.906170 0.386196 0.193973 0.246184
N12   N     N_2   0.232652 0.586423 0.770446 -0.404616
H45   H     H_    0.214714 0.542642 0.730906 0.275443
C62   C     C_3   0.251188 0.676706 0.730233 -0.509535
H46   H     H_    0.185160 0.698708 0.709663 0.202458
H47   H     H_    0.321176 0.679761 0.669471 0.229327
H48   H     H_    0.259810 0.722861 0.779279 0.264315
Cl1   Cl    Cl    0.147961 0.609872 0.962032 -0.581623
Cl2   Cl    Cl    0.829576 0.365953 0.042025 -0.574972
Cl3   Cl    Cl    0.442457 0.258720 0.348679 -0.542740
Cl4   Cl    Cl    0.515256 0.739638 0.669022 -0.583608
Cl5   Cl    Cl    0.534288 0.112135 0.230006 -0.491624
Cl6   Cl    Cl    0.629113 0.893125 0.700276 -0.502508
N13   N     N_2   0.505795 0.920499 0.262674 -0.380587
H49   H     H_    0.551640 0.865508 0.245568 0.251310
C63   C     C_3   0.404567 0.910753 0.256871 -0.611867
H50   H     H_    0.410099 0.877509 0.194818 0.228918
H51   H     H_    0.369408 0.977147 0.253883 0.269094
H52   H     H_    0.354539 0.870028 0.316528 0.196958
N14   N     N_2   0.602495 0.084055 0.688961 -0.395456
H53   H     H_    0.650950 0.138361 0.663128 0.246177
C64   C     C_3   0.521746 0.097936 0.773347 -0.586703
H54   H     H_    0.463976 0.144767 0.762148 0.197462
H55   H     H_    0.555186 0.126737 0.820227 0.231263
H56   H     H_    0.483346 0.033523 0.805157 0.266957

loop_
_geom_bond_atom_site_label_1
_geom_bond_atom_site_label_2
_ccdc_geom_bond_type
C55   H18   S    
C56   H22   S    
C27   C29   A    
C34   C37   A    
Cu1   N1    S    
N3    H9    S    
C23   O5    A    
C64   H54   S    
Cu1   O5    S    
C41   Cl1   S    
C54   H14   S    
C24   O6    A    
C61   H42   S    
C47   C49   A    
Cu1   Cu2   S    
C40   C46   A    
C58   H31   S    
C19   C21   A    
C2    O4    A    
C60   H39   S    
N14   H53   S    
C61   H43   S    
C15   C16   A    
C18   C21   A    
C44   N11   S    
C7    C9    A    
C25   N1    A    
C20   Cl6   S    
Cu1   O4    S    
C26   N2    A    
C7    H7    S    
N7    C57   S    
C26   C34   A    
Cu2   O7    S    
C57   H26   S    
C7    C17   A    
C1    O1    A    
C31   C33   A    
Cu1   O1    S    
C41   C43   A    
C37   N9    S    
C39   C45   A    
C62   H48   S    
N13   C63   S    
C45   C47   A    
C56   H23   S    
N3    C53   S    
C5    C49   A    
C42   C44   A    
C41   C49   A    
C54   H15   S    
N7    H25   S    
N5    C55   S    
C58   H32   S    
C46   C48   A    
C45   H4    S    
C13   C19   A    
C4    C51   A    
C35   H1    S    
C51   C52   A    
C23   O7    A    
C64   H56   S    
C4    C6    A    
C60   H40   S    
C43   N12   S    
N6    H21   S    
N4    C54   S    
C61   H44   S    
C39   C43   A    
Cu2   O3    S    
N10   C60   S    
C26   N6    S    
N5    H17   S    
C8    C18   A    
C1    O3    A    
C63   H51   S    
C32   C34   A    
C2    C9    S    
C53   H10   S    
N12   C62   S    
C36   H2    S    
C14   C20   A    
N6    C56   S    
C53   H11   S    
C31   C32   A    
Cu2   O6    S    
C22   N14   S    
C40   C44   A    
N13   H49   S    
C19   Cl5   S    
C4    H6    S    
C25   N5    S    
C59   H35   S    
C6    C50   A    
C48   C50   A    
C9    C11   A    
N11   H41   S    
C10   C12   A    
C42   C50   A    
C28   N2    A    
C16   C18   A    
C57   H27   S    
C12   C14   A    
C56   H24   S    
C13   C15   A    
C46   H3    S    
N8    C58   S    
C14   C16   A    
C63   H52   S    
C21   N13   S    
N12   H45   S    
C3    C5    A    
C54   H16   S    
C24   O8    A    
C62   H46   S    
C1    C10   S    
C35   C37   A    
C15   C17   A    
C27   N7    S    
C59   H34   S    
C64   H55   S    
C11   Cl3   S    
C17   C22   A    
C20   C22   A    
C2    O2    A    
C47   C51   A    
C3    C52   A    
Cu2   O2    S    
C58   H30   S    
C29   C35   A    
C33   C38   A    
C30   C36   A    
C42   Cl2   S    
N9    C59   S    
C28   C30   A    
C29   C31   A    
C63   H50   S    
C30   C32   A    
C38   N10   S    
C11   C13   A    
C28   N8    S    
C6    N4    S    
Cu2   N2    S    
C23   C39   S    
N14   C64   S    
C36   C38   A    
C24   C40   S    
C59   H36   S    
C5    N3    S    
C53   H12   S    
N11   C61   S    
C25   C33   A    
N4    H13   S    
C48   C52   A    
C57   H28   S    
C8    C10   A    
C12   Cl4   S    
C55   H20   S    
N9    H33   S    
N8    H29   S    
C55   H19   S    
C27   N1    A    
C60   H38   S    
Cu1   O8    S    
N10   H37   S    
C8    H8    S    
C62   H47   S    
C3    H5    S    
