data_mof_unit_41876.cif
_audit_creation_date              2012-12-11T15:42:38-0500
_audit_creation_method            fapswitch 2.2
_symmetry_space_group_name_H-M    P1
_symmetry_Int_Tables_number       1
_space_group_crystal_system       triclinic
_cell_length_a                    6.95675
_cell_length_b                    14.501752
_cell_length_c                    16.193841
_cell_angle_alpha                 90.558555
_cell_angle_beta                  90.986976
_cell_angle_gamma                 90.457531
_cell_volume                      1633.34235795

loop_
_atom_site_label
_atom_site_type_symbol
_atom_type_description
_atom_site_fract_x
_atom_site_fract_y
_atom_site_fract_z
_atom_type_partial_charge
O1    O     O_R   0.505810 0.583360 0.413880 -0.544004
O2    O     O_R   0.175870 0.595480 0.585520 -0.517102
O3    O     O_R   0.005540 0.416640 0.586120 -0.551662
C1    C     C_R   0.347371 0.619896 0.613021 0.800212
O4    O     O_R   0.176100 0.594390 0.414490 -0.535742
O5    O     O_R   0.005770 0.415540 0.413870 -0.549511
C2    C     C_R   0.344719 0.616471 0.385823 0.726267
O6    O     O_R   0.505580 0.584460 0.586130 -0.506890
O7    O     O_3   0.339190 0.441320 0.500000 -0.392852
V1    V     V_3+5 0.064350 0.510890 0.500000 1.541403
O8    O     O_R   0.676050 0.404520 0.414480 -0.548212
C3    C     C_R   0.843681 0.382513 0.385628 0.688265
O9    O     O_R   0.675830 0.405610 0.585510 -0.549100
C4    C     C_R   0.845731 0.384231 0.614042 0.766572
V2    V     V_3+5 0.564340 0.489110 0.500000 1.499040
O10   O     O_3   0.839370 0.558680 0.500000 -0.335030
C5    C     C_2   0.716120 0.218782 0.791906 0.436962
C6    C     C_2   0.880176 0.177558 0.818641 -0.325993
H1    H     H_    0.013698 0.188835 0.786579 0.102875
C7    C     C_2   0.710575 0.275026 0.714695 -0.223269
C8    C     C_2   0.862340 0.320977 0.684762 -0.365044
H2    H     H_    0.571747 0.282033 0.683782 0.150836
H3    H     H_    0.002321 0.316345 0.714883 0.125243
C9    C     C_R   0.019027 0.260501 0.192831 0.435931
C10   C     C_R   0.005059 0.321880 0.260034 -0.249015
H4    H     H_    0.110420 0.376781 0.267727 0.158822
C11   C     C_R   0.853624 0.315700 0.315964 -0.103596
C12   C     C_R   0.715124 0.245991 0.304530 -0.102104
H5    H     H_    0.596782 0.239625 0.346748 0.132426
C13   C     C_R   0.731400 0.181908 0.239906 -0.121370
H6    H     H_    0.624890 0.127189 0.234479 0.155117
C14   C     C_R   0.883101 0.187311 0.183413 -0.164132
C15   C     C_R   0.204919 0.752434 0.693306 0.379184
C16   C     C_R   0.201779 0.800071 0.770097 -0.252360
H7    H     H_    0.072319 0.832299 0.790116 0.226023
C17   C     C_R   0.375838 0.817003 0.814210 -0.310867
C18   C     C_R   0.542244 0.798521 0.770381 0.330042
C19   C     C_R   0.535999 0.717759 0.720545 0.411350
C20   C     C_R   0.362964 0.695594 0.676877 -0.315895
C21   C     C_R   0.189003 0.723964 0.283464 -0.118575
H8    H     H_    0.048707 0.706170 0.306793 0.125139
C22   C     C_R   0.200817 0.787027 0.218679 -0.147639
H9    H     H_    0.068764 0.815953 0.194325 0.115216
C23   C     C_R   0.379966 0.812456 0.185961 -0.040557
C24   C     C_R   0.546949 0.772998 0.220019 -0.152275
H10   H     H_    0.687257 0.790826 0.196726 0.112250
C25   C     C_R   0.535130 0.709920 0.284793 -0.118999
H11   H     H_    0.667179 0.681000 0.309163 0.122501
C26   C     C_R   0.355973 0.684458 0.317470 -0.032280
O11   O     O_R   0.230120 0.912300 0.917180 -0.545336
O12   O     O_R   0.559740 0.902430 0.088770 -0.560003
O13   O     O_R   0.729930 0.081310 0.089370 -0.540810
C27   C     C_R   0.391161 0.880364 0.117512 0.643197
O14   O     O_R   0.559840 0.901330 0.917750 -0.533175
O15   O     O_R   0.730030 0.080210 0.917120 -0.499214
C28   C     C_R   0.388785 0.880049 0.887951 0.809460
O16   O     O_R   0.230020 0.913400 0.089430 -0.555207
O17   O     O_3   0.396460 0.055470 0.003290 -0.328713
V3    V     V_3+5 0.671360 0.985960 0.003250 1.536294
O18   O     O_R   0.059740 0.091300 0.917690 -0.530179
C29   C     C_R   0.889842 0.113201 0.889337 0.858825
O19   O     O_R   0.059640 0.092400 0.088720 -0.500295
C30   C     C_R   0.891986 0.116617 0.116068 0.742701
V4    V     V_3+5 0.171350 0.007820 0.003190 1.600505
O20   O     O_3   0.896380 0.938200 0.003220 -0.401973
O21   O     O_3   0.545303 0.200769 0.832629 -0.552988
C31   C     C_3   0.451288 0.283502 0.854933 0.079310
H12   H     H_    0.304794 0.264506 0.875438 0.174967
H13   H     H_    0.429369 0.330603 0.801914 0.082225
C32   C     C_3   0.555811 0.333431 0.926997 -0.264171
H14   H     H_    0.556364 0.288509 0.982224 0.255863
H15   H     H_    0.707296 0.348529 0.910738 0.169624
C33   C     C_3   0.458120 0.424402 0.947582 -0.748666
H16   H     H_    0.464154 0.471201 0.893997 0.180820
H17   H     H_    0.532987 0.458114 0.001068 0.245539
H18   H     H_    0.305212 0.412647 0.963011 0.273600
S1    S     S_3+6 0.628048 0.900888 0.723330 0.062802
O22   O     O_2   0.816353 0.930368 0.761742 -0.344295
O23   O     O_2   0.647855 0.885794 0.632036 -0.247837
O24   O     O_3   0.470941 0.987263 0.737046 -0.514197
H19   H     H_    0.528944 0.041080 0.709350 0.366173
O25   O     O_3   0.691162 0.658947 0.720708 -0.523602
C34   C     C_3   0.676549 0.597761 0.788274 0.085731
H20   H     H_    0.646826 0.526989 0.763986 0.128504
H21   H     H_    0.558140 0.614308 0.831774 0.017467
C35   C     C_3   0.864471 0.598844 0.838886 -0.286839
H22   H     H_    0.910642 0.671398 0.850759 0.187225
H23   H     H_    0.839809 0.565875 0.899537 0.153717
C36   C     C_3   0.023856 0.546898 0.795291 -0.739631
H24   H     H_    0.990491 0.471939 0.793530 0.205311
H25   H     H_    0.162344 0.557830 0.829219 0.189926
H26   H     H_    0.038879 0.571945 0.731364 0.252642
S2    S     S_3+6 0.199171 0.283112 0.119560 -0.043165
O26   O     O_2   0.358034 0.214410 0.129475 -0.323938
O27   O     O_2   0.115475 0.274943 0.033561 -0.389149
O28   O     O_3   0.292129 0.389649 0.133792 -0.515127
H27   H     H_    0.187362 0.432023 0.117559 0.318194
S3    S     S_3+6 0.070475 0.795046 0.608432 0.132258
O29   O     O_2   0.179465 0.782342 0.529779 -0.338544
O30   O     O_2   0.882787 0.744102 0.599885 -0.247294
O31   O     O_3   0.032722 0.908452 0.621778 -0.412658
H28   H     H_    0.162723 0.936845 0.623586 0.366526

loop_
_geom_bond_atom_site_label_1
_geom_bond_atom_site_label_2
_ccdc_geom_bond_type
S2    O26   D    
O15   V3    S    
O11   V4    S    
C33   H16   S    
C1    O6    A    
C25   C26   A    
S1    O22   D    
C5    O21   S    
C15   C20   A    
C4    C8    S    
C17   C18   A    
C18   C19   A    
C15   S3    S    
O5    C3    A    
C13   H6    S    
C35   H23   S    
C21   C26   A    
C5    C7    S    
C16   H7    S    
C24   C25   A    
O19   V4    S    
O8    V2    S    
C23   C27   S    
C34   H20   S    
C32   H14   S    
O1    V2    S    
C36   H25   S    
O7    V1    S    
C21   C22   A    
O21   C31   S    
S2    O27   D    
O9    C4    A    
C19   O25   S    
C33   H17   S    
C22   C23   A    
C15   C16   A    
O14   V3    S    
S1    O23   D    
O17   V4    S    
O14   C28   A    
C3    C11   S    
C31   H12   S    
O31   H28   S    
C9    C10   A    
C2    C26   S    
O4    C2    A    
C27   O16   A    
C35   H22   S    
C6    H1    S    
O17   V3    S    
C24   H10   S    
C18   S1    S    
O13   C30   A    
O11   C28   A    
O18   C29   A    
O12   C27   A    
O2    C1    A    
C9    C14   A    
O19   C30   A    
C17   C28   S    
O13   V3    S    
C25   H11   S    
C1    C20   S    
O28   H27   S    
C32   C33   S    
C5    C6    D    
C36   H26   S    
O3    C4    A    
C21   H8    S    
C34   H21   S    
C7    H2    S    
S3    O29   D    
S2    O28   S    
S3    O30   D    
O9    V2    S    
C10   C11   A    
C33   H18   S    
O12   V3    S    
C22   H9    S    
O2    V1    S    
C23   C24   A    
O16   V4    S    
S1    O24   S    
C12   H5    S    
O1    C2    A    
C14   C30   S    
O24   H19   S    
C35   C36   S    
O5    V1    S    
O8    C3    A    
C6    C29   S    
O6    V2    S    
S3    O31   S    
O18   V4    S    
C31   C32   S    
V4    O20   S    
C8    H3    S    
C10   H4    S    
O4    V1    S    
O3    V1    S    
V1    O10   S    
C9    S2    S    
V3    O20   S    
C13   C14   A    
C19   C20   A    
O15   C29   A    
C12   C13   A    
C16   C17   A    
O7    V2    S    
C34   C35   S    
C7    C8    D    
O25   C34   S    
C11   C12   A    
C32   H15   S    
C31   H13   S    
C36   H24   S    
V2    O10   S    
