data_mof_unit_47909.cif
_audit_creation_date              2012-12-11T16:15:12-0500
_audit_creation_method            fapswitch 2.2
_symmetry_space_group_name_H-M    P1
_symmetry_Int_Tables_number       1
_space_group_crystal_system       triclinic
_cell_length_a                    13.541424
_cell_length_b                    13.676721
_cell_length_c                    28.383438
_cell_angle_alpha                 90.673544
_cell_angle_beta                  90.934746
_cell_angle_gamma                 59.803812
_cell_volume                      4542.74676009

loop_
_atom_site_label
_atom_site_type_symbol
_atom_type_description
_atom_site_fract_x
_atom_site_fract_y
_atom_site_fract_z
_atom_type_partial_charge
C1    C     C_R   0.279891 0.620743 0.566331 0.529030
C2    C     C_1   0.609175 0.600398 0.662330 -0.013727
C3    C     C_3   0.130735 0.955244 0.354467 -0.244075
C4    C     C_3   0.222644 0.986237 0.364734 -0.484291
C5    C     C_3   0.922913 0.901563 0.210794 0.030230
C6    C     C_3   0.877509 0.843037 0.177717 -0.287474
C7    C     C_3   0.750110 0.890734 0.183840 -0.499643
C8    C     C_3   0.168224 0.425870 0.183310 0.046647
C9    C     C_3   0.157707 0.344449 0.217119 -0.262243
C10   C     C_3   0.050753 0.404139 0.247007 -0.393810
C11   C     C_3   0.912941 0.474443 0.711994 0.020304
C12   C     C_3   0.896196 0.508736 0.660037 -0.258938
C13   C     C_1   0.641080 0.219273 0.609198 -0.006798
C14   C     C_3   0.008382 0.484694 0.637879 -0.490374
C15   C     C_3   0.515883 0.048804 0.795081 0.017872
C16   C     C_3   0.499268 0.001526 0.840839 -0.234209
C17   C     C_3   0.378259 0.074526 0.859307 -0.460193
C18   C     C_R   0.597472 0.568882 0.571681 0.564175
C19   C     C_R   0.741606 0.189956 0.726187 0.248109
C20   C     C_R   0.759156 0.159905 0.774586 0.204281
C21   C     C_R   0.669799 0.044949 0.761513 0.208903
C22   C     C_R   0.660158 0.068699 0.713453 -0.173607
C23   C     C_R   0.694716 0.141579 0.695908 0.001824
C24   C     C_R   0.720445 0.089518 0.791847 0.041317
C25   C     C_1   0.729623 0.063958 0.841136 0.039647
C26   C     C_1   0.603994 0.586394 0.620837 -0.007141
C27   C     C_1   0.668015 0.179189 0.647954 -0.007091
C28   C     C_1   0.734740 0.039551 0.881915 -0.000952
C29   C     C_1   0.229218 0.638107 0.611613 -0.014660
C30   C     C_R   0.601825 0.278249 0.565569 0.533416
C31   C     C_R   0.256799 0.563889 0.731285 0.232574
C32   C     C_R   0.240046 0.576311 0.780022 -0.115827
C33   C     C_R   0.053136 0.741673 0.767652 -0.128532
C34   C     C_R   0.071179 0.734359 0.719008 0.219917
C35   C     C_R   0.174117 0.646860 0.700861 0.027706
C36   C     C_R   0.138735 0.664798 0.798204 -0.068133
C37   C     C_3   0.711805 0.668786 0.761474 -0.101482
C38   C     C_1   0.122538 0.680246 0.848243 -0.059068
C39   C     C_1   0.199012 0.645475 0.651711 -0.005817
C40   C     C_1   0.099798 0.699221 0.889391 -0.004441
C41   C     C_1   0.629662 0.627242 0.386603 -0.013165
C42   C     C_R   0.276514 0.621041 0.434488 0.542409
C43   C     C_R   0.745534 0.641797 0.277229 0.284504
C44   C     C_R   0.751936 0.648426 0.228405 -0.140471
C45   C     C_R   0.550054 0.709015 0.218618 0.274732
C46   C     C_R   0.544240 0.698610 0.267821 -0.146895
C47   C     C_R   0.641090 0.664688 0.296719 -0.000178
C48   C     C_3   0.640539 0.661358 0.801856 0.005013
C49   C     C_R   0.655980 0.680851 0.199234 0.010154
C50   C     C_1   0.668561 0.689956 0.149492 -0.010812
C51   C     C_1   0.634313 0.645574 0.345731 -0.036345
C52   C     C_1   0.688732 0.700293 0.109280 -0.015813
C53   C     C_1   0.625523 0.238459 0.385811 -0.019199
C54   C     C_R   0.618929 0.598891 0.433522 0.552689
C55   C     C_R   0.553202 0.208974 0.267000 0.273754
C56   C     C_R   0.558132 0.210245 0.217562 0.285379
C57   C     C_R   0.741747 0.203330 0.222329 0.240829
C58   C     C_R   0.740463 0.197928 0.271450 0.260310
C59   C     C_3   0.726799 0.556217 0.741974 0.257577
C60   C     C_R   0.645798 0.202115 0.294189 -0.081963
C61   C     C_R   0.652797 0.204483 0.195354 -0.061892
C62   C     C_1   0.670581 0.170503 0.146593 -0.038326
C63   C     C_1   0.637215 0.217398 0.344397 -0.044345
C64   C     C_1   0.689313 0.126005 0.108443 -0.020324
C65   C     C_1   0.222926 0.638105 0.389813 -0.021649
C66   C     C_R   0.598901 0.279723 0.432860 0.543262
C67   C     C_R   0.117049 0.752094 0.277585 0.220850
C68   C     C_R   0.102192 0.755801 0.228634 0.221932
C69   C     C_R   0.204733 0.549791 0.224963 0.293241
C70   C     C_3   0.617177 0.619660 0.712346 0.011541
C71   C     C_R   0.213018 0.545308 0.274246 0.224350
C72   C     C_R   0.169596 0.647171 0.300405 -0.070587
C73   C     C_R   0.154541 0.655124 0.202378 -0.054821
C74   C     C_1   0.141313 0.664336 0.152296 0.006173
C75   C     C_1   0.192084 0.644611 0.349769 -0.040198
C76   C     C_1   0.111988 0.686769 0.112021 -0.004359
C77   C     C_R   0.741491 0.005141 0.929589 0.547020
C78   C     C_3   0.599921 0.732540 0.732184 0.282921
C79   C     C_R   0.729445 0.717845 0.932463 0.541873
C80   C     C_R   0.055938 0.729907 0.936111 0.535780
C81   C     C_3   0.657454 0.547791 0.782871 -0.122056
C82   C     C_R   0.713575 0.058961 0.066608 0.551057
C83   C     C_R   0.724880 0.717137 0.064491 0.542376
C84   C     C_R   0.056368 0.726225 0.067804 0.532579
C85   C     C_3   0.529958 0.725951 0.772761 0.269043
C86   C     C_1   0.688700 0.697558 0.888964 -0.011740
C87   C     C_3   0.331606 0.821173 0.779556 -0.003995
C88   C     C_3   0.231398 0.939346 0.790152 -0.269566
C89   C     C_3   0.116439 0.948884 0.779408 -0.450564
C90   C     C_3   0.348668 0.397367 0.688635 0.030707
C91   C     C_3   0.371532 0.296799 0.719617 -0.259876
C92   C     C_3   0.545458 0.612754 0.752940 -0.194313
C93   C     C_3   0.262393 0.311759 0.741493 -0.451791
C94   C     C_3   0.906123 0.799984 0.676200 0.008004
C95   C     C_3   0.857624 0.857000 0.628746 -0.253522
C96   C     C_3   0.761020 0.838598 0.611394 -0.490259
C97   C     C_3   0.848775 0.672593 0.336409 0.004346
C98   C     C_3   0.849765 0.771980 0.312779 -0.289417
C99   C     C_3   0.862292 0.848297 0.349189 -0.453423
C100  C     C_3   0.355563 0.827708 0.204833 -0.004527
C101  C     C_3   0.269211 0.875764 0.163942 -0.241270
C102  C     C_3   0.168035 0.992828 0.175363 -0.437068
C103  C     C_1   0.662062 0.681208 0.850439 -0.026174
C104  C     C_3   0.455721 0.156795 0.321651 0.017796
C105  C     C_3   0.529716 0.030133 0.310194 -0.307897
C106  C     C_3   0.537443 0.959078 0.352581 -0.481176
C107  C     C_3   0.460560 0.881832 0.688413 0.022359
C108  C     C_3   0.445594 0.956381 0.646162 -0.275566
C109  C     C_3   0.321087 0.021868 0.629671 -0.477492
C110  C     C_3   0.454790 0.129716 0.188131 0.024282
C111  C     C_3   0.461557 0.092671 0.136809 -0.266656
C112  C     C_3   0.418055 0.010753 0.129387 -0.487183
C113  C     C_3   0.160087 0.878942 0.311106 0.031492
Cr1   Cr    Cr6+3 0.413560 0.417690 0.499580 1.008218
Cr2   Cr    Cr6+3 0.418030 0.668340 0.500400 1.013090
Cr3   Cr    Cr6+3 0.668390 0.413960 0.499990 1.035818
Cr4   Cr    Cr6+3 0.919710 0.916540 0.003080 1.037541
Cr5   Cr    Cr6+3 0.665300 0.919470 0.999630 1.003830
Cr6   Cr    Cr6+3 0.916060 0.665490 0.000390 1.025605
H1    H     H_    0.621049 0.034304 0.690260 0.135354
H2    H     H_    0.328727 0.802781 0.741381 0.118149
H3    H     H_    0.517339 0.914196 0.835018 0.231926
H4    H     H_    0.560468 0.997939 0.868026 0.175239
H5    H     H_    0.363408 0.159456 0.869600 0.150308
H6    H     H_    0.366548 0.033891 0.890698 0.159828
H7    H     H_    0.314497 0.084696 0.831893 0.143882
H8    H     H_    0.234299 0.959646 0.828001 0.181907
H9    H     H_    0.239107 0.002548 0.768663 0.149395
H10   H     H_    0.113691 0.921021 0.742752 0.186907
H11   H     H_    0.047508 0.038260 0.783367 0.175876
H12   H     H_    0.101109 0.897129 0.804792 0.166261
H13   H     H_    0.414416 0.365374 0.660761 0.154383
H14   H     H_    0.265392 0.431026 0.669549 0.115616
H15   H     H_    0.409119 0.218754 0.697636 0.112740
H16   H     H_    0.434488 0.285029 0.747750 0.178731
H17   H     H_    0.306460 0.516943 0.803601 0.138965
H18   H     H_    0.222106 0.387567 0.764538 0.166278
H19   H     H_    0.282665 0.236760 0.763110 0.121994
H20   H     H_    0.200838 0.319870 0.713364 0.130905
H21   H     H_    0.838022 0.835945 0.703163 0.170284
H22   H     H_    0.935680 0.708433 0.672011 0.121894
H23   H     H_    0.825291 0.949037 0.632143 0.183916
H24   H     H_    0.926754 0.822018 0.602218 0.173883
H25   H     H_    0.794525 0.748019 0.602789 0.155463
H26   H     H_    0.721465 0.889191 0.579087 0.143424
H27   H     H_    0.694635 0.865616 0.638705 0.188902
H28   H     H_    0.974908 0.811118 0.781691 0.139835
H29   H     H_    0.928927 0.625598 0.357470 0.158081
H30   H     H_    0.778516 0.704315 0.362042 0.129074
H31   H     H_    0.920903 0.738819 0.287396 0.168480
H32   H     H_    0.768297 0.823096 0.293425 0.139327
H33   H     H_    0.793021 0.878895 0.375475 0.132278
H34   H     H_    0.856304 0.923087 0.331518 0.178729
H35   H     H_    0.946091 0.801527 0.367730 0.178877
H36   H     H_    0.370036 0.895640 0.219492 0.106793
H37   H     H_    0.318647 0.798851 0.232274 0.128545
H38   H     H_    0.311922 0.882059 0.132029 0.176312
H39   H     H_    0.832821 0.628230 0.213048 0.112454
H40   H     H_    0.237322 0.816962 0.155425 0.204362
H41   H     H_    0.197440 0.052725 0.185419 0.118760
H42   H     H_    0.118194 0.988649 0.204904 0.222946
H43   H     H_    0.110752 0.026455 0.144024 0.171362
H44   H     H_    0.367244 0.173789 0.326702 0.149459
H45   H     H_    0.478772 0.178486 0.356081 0.153580
H46   H     H_    0.490820 0.007784 0.280329 0.138297
H47   H     H_    0.617387 0.008995 0.300718 0.144415
H48   H     H_    0.577296 0.978136 0.383162 0.148711
H49   H     H_    0.590644 0.868372 0.343640 0.149552
H50   H     H_    0.465946 0.712586 0.283636 0.102235
H51   H     H_    0.451143 0.976208 0.362384 0.146821
H52   H     H_    0.404524 0.936688 0.717001 0.167974
H53   H     H_    0.433174 0.820597 0.677254 0.125051
H54   H     H_    0.473316 0.017751 0.655937 0.154783
H55   H     H_    0.499278 0.902601 0.616718 0.173668
H56   H     H_    0.291249 0.962504 0.619002 0.165604
H57   H     H_    0.313026 0.074911 0.598905 0.150173
H58   H     H_    0.266098 0.078024 0.658312 0.144552
H59   H     H_    0.370890 0.150423 0.202382 0.151111
H60   H     H_    0.520633 0.056979 0.208869 0.089007
H61   H     H_    0.478875 0.588549 0.748972 0.153508
H62   H     H_    0.412269 0.167457 0.113707 0.196195
H63   H     H_    0.551839 0.048468 0.126679 0.184866
H64   H     H_    0.461886 0.938565 0.154087 0.168043
H65   H     H_    0.435559 0.977497 0.092747 0.171033
H66   H     H_    0.324564 0.055835 0.134692 0.141267
H67   H     H_    0.819537 0.219465 0.168103 0.322396
H68   H     H_    0.833655 0.168424 0.328799 0.312657
H69   H     H_    0.163901 0.925706 0.280245 0.147808
H70   H     H_    0.246264 0.802949 0.317033 0.115218
H71   H     H_    0.047453 0.033884 0.348568 0.191234
H72   H     H_    0.683015 0.471356 0.804474 0.151813
H73   H     H_    0.122933 0.910800 0.385487 0.176617
H74   H     H_    0.305969 0.908737 0.372097 0.152030
H75   H     H_    0.198518 0.042575 0.396088 0.152541
H76   H     H_    0.231685 0.031211 0.334226 0.140716
H77   H     H_    0.880200 0.991352 0.200587 0.191476
H78   H     H_    0.898858 0.900230 0.247877 0.155889
H79   H     H_    0.892886 0.856789 0.140725 0.188779
H80   H     H_    0.921311 0.750845 0.184732 0.144494
H81   H     H_    0.733064 0.857705 0.216132 0.134771
H82   H     H_    0.714810 0.867677 0.153034 0.162270
H83   H     H_    0.775747 0.696490 0.765626 0.113761
H84   H     H_    0.705976 0.983372 0.186607 0.133914
H85   H     H_    0.196505 0.382399 0.148709 0.148196
H86   H     H_    0.083418 0.502635 0.176100 0.089558
H87   H     H_    0.154288 0.276564 0.196478 0.105062
H88   H     H_    0.233330 0.303452 0.240972 0.250728
H89   H     H_    0.047414 0.477122 0.265931 0.198660
H90   H     H_    0.051504 0.344278 0.273299 0.176359
H91   H     H_    0.973642 0.433751 0.224248 0.166937
H92   H     H_    0.253372 0.447547 0.329562 0.323338
H93   H     H_    0.993937 0.392542 0.715854 0.159960
H94   H     H_    0.323939 0.757564 0.800855 0.158466
H95   H     H_    0.923849 0.535644 0.734368 0.104046
H96   H     H_    0.862987 0.460672 0.640074 0.214582
H97   H     H_    0.832308 0.600233 0.657308 0.150271
H98   H     H_    0.052096 0.519069 0.660106 0.131038
H99   H     H_    0.991095 0.524045 0.602472 0.156206
H100  H     H_    0.066331 0.392001 0.633984 0.150612
H101  H     H_    0.745159 0.328083 0.732713 0.358735
H102  H     H_    0.858296 0.222161 0.787735 0.338421
H103  H     H_    0.455654 0.050043 0.767759 0.158623
H104  H     H_    0.493585 0.138012 0.802415 0.106783
O1    O     O_R   0.503010 0.303330 0.550820 -0.523212
O2    O     O_R   0.827060 0.642880 0.947470 -0.498742
O3    O     O_R   0.013800 0.673690 0.954100 -0.495741
O4    O     O_R   0.320040 0.522690 0.547470 -0.504092
O5    O     O_R   0.031250 0.825430 0.055080 -0.503833
O6    O     O_R   0.814180 0.011990 0.050320 -0.486627
O7    O     O_R   0.640680 0.032900 0.051920 -0.520625
O8    O     O_R   0.671090 0.815590 0.046300 -0.502377
O9    O     O_R   0.822940 0.642440 0.050310 -0.503250
O10   O     O_R   0.009970 0.673280 0.049430 -0.499946
O11   O     O_3   0.833690 0.833830 0.001040 -0.271248
O12   O     O_R   0.522480 0.657560 0.452870 -0.496349
O13   O     O_R   0.303930 0.694040 0.551750 -0.514441
O14   O     O_R   0.523510 0.657900 0.548240 -0.500109
O15   O     O_R   0.694770 0.503160 0.551780 -0.510068
O16   O     O_R   0.657990 0.319990 0.547370 -0.499568
O17   O     O_R   0.501900 0.302960 0.447930 -0.512725
O18   O     O_R   0.319020 0.522350 0.452090 -0.492336
O19   O     O_R   0.302820 0.693680 0.448870 -0.512306
O20   O     O_3   0.433105 0.820250 0.792124 -0.592300
O21   O     O_3   0.361319 0.479298 0.714917 -0.577657
O22   O     O_3   0.994819 0.820439 0.689897 -0.569878
O23   O     O_R   0.693670 0.502790 0.448900 -0.494929
O24   O     O_3   0.846659 0.594997 0.303377 -0.576650
O25   O     O_3   0.458392 0.734849 0.188244 -0.550609
O26   O     O_3   0.449239 0.231021 0.285638 -0.493255
O27   O     O_3   0.575415 0.827265 0.704244 -0.566669
O28   O     O_3   0.464645 0.228010 0.190285 -0.485133
O29   O     O_3   0.834839 0.201708 0.202072 -0.649396
O30   O     O_3   0.833058 0.191242 0.295820 -0.632849
O31   O     O_3   0.073461 0.851478 0.303415 -0.563125
O32   O     O_3   0.041474 0.858140 0.205529 -0.566186
O33   O     O_3   0.253464 0.450122 0.199193 -0.468221
O34   O     O_R   0.656970 0.319650 0.452000 -0.491016
O35   O     O_3   0.265591 0.440067 0.295152 -0.630254
O36   O     O_3   0.825119 0.455865 0.727132 -0.561537
O37   O     O_3   0.763906 0.269835 0.708086 -0.670270
O38   O     O_3   0.812040 0.198197 0.805666 -0.715033
O39   O     O_3   0.628890 0.978260 0.779009 -0.551374
O40   O     O_3   0.499990 0.499990 0.499990 -0.269954
O41   O     O_R   0.035380 0.825870 0.952240 -0.511228
O42   O     O_R   0.818010 0.012400 0.954990 -0.477283
O43   O     O_R   0.644810 0.033340 0.949080 -0.515091
O44   O     O_R   0.674910 0.816000 0.950960 -0.516996

loop_
_geom_bond_atom_site_label_1
_geom_bond_atom_site_label_2
_ccdc_geom_bond_type
C44   C49   A    
C4    H76   S    
C55   C56   A    
C99   H35   S    
Cr4   O5    S    
C95   H24   S    
C101  C102  S    
C90   O21   S    
C70   C78   S    
C53   C63   T    
C94   H21   S    
C73   C74   S    
C35   C39   S    
C95   C96   S    
C18   C26   S    
C85   O20   S    
C30   O16   A    
C87   C88   S    
C66   O34   A    
C76   C84   S    
C104  H44   S    
Cr2   O12   S    
C97   C98   S    
C90   C91   S    
C109  H57   S    
C89   H10   S    
C112  H65   S    
C107  H52   S    
C45   C46   A    
C77   O43   A    
C71   O35   S    
C4    H75   S    
C96   H26   S    
Cr3   O16   S    
C74   C76   T    
C60   C63   S    
C93   H20   S    
C32   C36   A    
C77   O42   A    
H101  O37   S    
C16   H4    S    
Cr5   O7    S    
C67   C72   A    
C88   H8    S    
H102  O38   S    
C9    H87   S    
C6    H80   S    
C20   O38   S    
C100  H36   S    
C17   H7    S    
C96   H25   S    
C83   O9    A    
C110  H59   S    
C1    O13   A    
C58   C60   A    
C15   C16   S    
C56   O28   S    
Cr3   O15   S    
C111  H62   S    
C33   C36   A    
C44   H39   S    
C48   C81   S    
C58   O30   S    
C34   C35   A    
C32   H17   S    
C7    H81   S    
C69   C71   A    
C15   H103  S    
C10   H89   S    
C110  C111  S    
C81   H72   S    
C62   C64   T    
C93   H19   S    
C92   H61   S    
Cr1   O4    S    
Cr5   O43   S    
C81   C92   S    
C87   O20   S    
C10   H91   S    
C20   C24   A    
C17   H5    S    
C43   O24   S    
C16   C17   S    
C108  H55   S    
C42   C65   S    
C50   C52   T    
C107  C108  S    
C55   O26   S    
C14   H98   S    
C69   C73   A    
C104  O26   S    
C108  C109  S    
H68   O30   S    
C33   H28   S    
C9    C10   S    
H67   O29   S    
C107  O27   S    
C18   O14   A    
C107  H53   S    
C90   H13   S    
C1    O4    A    
C105  H47   S    
C82   O7    A    
C101  H38   S    
Cr1   O40   S    
C55   C60   A    
C106  H51   S    
C59   O36   S    
C94   C95   S    
C37   C78   S    
C54   O12   A    
C72   C75   S    
C86   C103  T    
C45   O25   S    
C104  C105  S    
C85   C92   S    
Cr6   O10   S    
C112  H64   S    
C98   H32   S    
C22   C23   A    
C4    H74   S    
C80   O41   A    
C67   C68   A    
C31   O21   S    
C8    H85   S    
Cr6   O3    S    
C16   H3    S    
C24   C25   S    
C3    C113  S    
C3    H71   S    
C102  H41   S    
C112  H66   S    
C87   H2    S    
C90   H14   S    
C8    C9    S    
C47   C51   S    
C59   C70   S    
C68   C73   A    
C113  H69   S    
Cr2   O14   S    
C8    O33   S    
C111  H63   S    
C89   H11   S    
Cr5   O44   S    
C110  H60   S    
C57   O29   S    
C11   O36   S    
C52   C83   S    
C19   C23   A    
C43   C44   A    
C97   O24   S    
C100  O25   S    
C11   H93   S    
C91   C93   S    
Cr2   O19   S    
Cr5   O11   S    
C10   H90   S    
C79   O44   A    
C31   C32   A    
C45   C49   A    
Cr5   O8    S    
C102  H43   S    
C108  H54   S    
C29   C39   T    
C34   O22   S    
C1    C29   S    
C33   C34   A    
C87   H94   S    
C2    C26   T    
C40   C80   S    
C88   C89   S    
C37   C48   S    
C28   C77   S    
C64   C82   S    
C37   C59   S    
Cr2   O40   S    
Cr6   O9    S    
H92   O35   S    
C5    H77   S    
C78   C85   S    
C82   O6    A    
C12   C14   S    
C98   C99   S    
C23   C27   S    
C9    H88   S    
C78   O27   S    
C97   H29   S    
C31   C35   A    
C14   H100  S    
C7    H84   S    
C12   H97   S    
C42   O19   A    
C3    C4    S    
C84   O5    A    
C99   H33   S    
C19   O37   S    
C96   H27   S    
Cr6   O2    S    
Cr1   O17   S    
C98   H31   S    
C67   O31   S    
C46   C47   A    
C113  O31   S    
C42   O18   A    
C111  C112  S    
C66   O17   A    
C48   C85   S    
C94   H22   S    
C70   C92   S    
C59   C81   S    
Cr3   O23   S    
C89   H12   S    
C22   H1    S    
C104  H45   S    
C14   H99   S    
C30   O1    A    
C11   C12   S    
C109  H56   S    
C57   C61   A    
C6    C7    S    
C8    H86   S    
C41   C51   T    
C110  O28   S    
C113  H70   S    
C105  C106  S    
C37   H83   S    
C21   C22   A    
C65   C75   T    
C46   H50   S    
Cr6   O11   S    
Cr1   O1    S    
C106  H48   S    
C5    O32   S    
C19   C20   A    
C36   C38   S    
C84   O10   A    
C71   C72   A    
C88   H9    S    
C15   O39   S    
C53   C66   S    
C3    H73   S    
C38   C40   T    
C48   C103  S    
C68   O32   S    
C17   H6    S    
C57   C58   A    
C5    C6    S    
C91   H15   S    
C83   O8    A    
Cr4   O11   S    
Cr4   O41   S    
C102  H42   S    
C99   H34   S    
Cr4   O6    S    
C100  C101  S    
C105  H46   S    
C54   O23   A    
C15   H104  S    
C61   C62   S    
C94   O22   S    
C41   C54   S    
C93   H18   S    
C11   H95   S    
C25   C28   T    
Cr2   O13   S    
C109  H58   S    
C21   O39   S    
Cr1   O18   S    
C91   H16   S    
C13   C30   S    
C101  H40   S    
C95   H23   S    
C7    H82   S    
C49   C50   S    
C21   C24   A    
Cr3   O40   S    
C97   H30   S    
C56   C61   A    
C13   C27   T    
C12   H96   S    
C80   O3    A    
C2    C70   S    
C100  H37   S    
C43   C47   A    
C5    H78   S    
C79   O2    A    
C79   C86   S    
Cr4   O42   S    
Cr3   O34   S    
C18   O15   A    
C69   O33   S    
C106  H49   S    
C6    H79   S    
