data_mof_unit_6032.cif
_audit_creation_date              2013-03-05T15:57:41-0500
_audit_creation_method            fapswitch 2.2
_symmetry_space_group_name_H-M    P1
_symmetry_Int_Tables_number       1
_space_group_crystal_system       triclinic
_cell_length_a                    19.651217
_cell_length_b                    17.545807
_cell_length_c                    12.596628
_cell_angle_alpha                 89.338257
_cell_angle_beta                  99.382477
_cell_angle_gamma                 90.309912
_cell_volume                      4284.85556439

loop_
_atom_site_label
_atom_site_type_symbol
_atom_site_description
_atom_site_fract_x
_atom_site_fract_y
_atom_site_fract_z
_atom_type_partial_charge
O1    O     O_R   0.448200 0.076800 0.373930 -0.622975
O2    O     O_R   0.448200 0.923200 0.373930 -0.611831
O3    O     O_R   0.948200 0.576800 0.373930 -0.622978
O4    O     O_R   0.948200 0.423200 0.373930 -0.611858
O5    O     O_R   0.414750 0.076790 0.542400 -0.601493
O6    O     O_R   0.414750 0.923210 0.542400 -0.605040
O7    O     O_R   0.914750 0.576790 0.542400 -0.601490
O8    O     O_R   0.914750 0.423210 0.542400 -0.605036
C1    C     C_R   0.410831 0.102404 0.442618 0.912586
C2    C     C_R   0.410943 0.897221 0.443435 0.912310
C3    C     C_R   0.910836 0.602410 0.442621 0.912565
C4    C     C_R   0.910946 0.397217 0.443438 0.912304
Zn1   Zn    Zn3+2 0.522330 1.000000 0.387520 0.994970
Zn2   Zn    Zn3+2 0.022330 0.500000 0.387520 0.994914
Zn3   Zn    Zn3+2 0.477660 0.000000 0.612480 1.025586
Zn4   Zn    Zn3+2 0.977660 0.500000 0.612480 1.025589
O9    O     O_R   0.585240 0.923200 0.457600 -0.629699
O10   O     O_R   0.585240 0.076800 0.457600 -0.593869
O11   O     O_R   0.085240 0.423200 0.457600 -0.629737
O12   O     O_R   0.085240 0.576800 0.457600 -0.593851
O13   O     O_R   0.551780 0.923190 0.626070 -0.576398
O14   O     O_R   0.551780 0.076810 0.626070 -0.581292
O15   O     O_R   0.051780 0.423190 0.626070 -0.576375
O16   O     O_R   0.051780 0.576810 0.626070 -0.581275
C5    C     C_R   0.590044 0.897865 0.557956 0.914335
C6    C     C_R   0.589923 0.102572 0.556923 0.912832
C7    C     C_R   0.090044 0.397865 0.557957 0.914294
C8    C     C_R   0.089923 0.602571 0.556923 0.912793
C9    C     C_R   0.747108 0.188827 0.722751 -0.219136
C10   C     C_R   0.737740 0.792685 0.725189 -0.216168
C11   C     C_R   0.247123 0.688806 0.722734 -0.219135
C12   C     C_R   0.237786 0.292760 0.725177 -0.216178
H1    H     H_    0.380358 0.723719 0.740285 0.195322
H2    H     H_    0.369990 0.259469 0.738185 0.195270
H3    H     H_    0.880343 0.223752 0.740328 0.195314
H4    H     H_    0.869940 0.759366 0.738256 0.195258
H5    H     H_    0.773513 0.192690 0.805070 0.195758
H6    H     H_    0.764709 0.788419 0.807248 0.193829
H7    H     H_    0.273535 0.692659 0.805049 0.195767
H8    H     H_    0.264774 0.288526 0.807228 0.193844
C13   C     C_R   0.646255 0.156753 0.593029 -0.155003
C14   C     C_R   0.642944 0.839960 0.594216 -0.149631
C15   C     C_R   0.146257 0.656752 0.593029 -0.155005
C16   C     C_R   0.142950 0.339967 0.594220 -0.149552
C17   C     C_R   0.329704 0.837171 0.298667 -0.243529
C18   C     C_R   0.321860 0.149989 0.298468 -0.252200
C19   C     C_R   0.829724 0.337141 0.298670 -0.243524
C20   C     C_R   0.821915 0.650070 0.298447 -0.252154
C21   C     C_R   0.278448 0.784469 0.262805 -0.158049
C22   C     C_R   0.253986 0.173724 0.273057 -0.166509
C23   C     C_R   0.778475 0.284428 0.262811 -0.158053
C24   C     C_R   0.754058 0.673852 0.272993 -0.166516
C25   C     C_R   0.253989 0.734928 0.335890 0.331118
C26   C     C_R   0.220238 0.203622 0.352697 0.304483
C27   C     C_R   0.754014 0.234896 0.335904 0.331132
C28   C     C_R   0.720290 0.703734 0.352617 0.304572
C29   C     C_R   0.279975 0.741699 0.447857 -0.049004
C30   C     C_R   0.259622 0.223930 0.454567 -0.069338
C31   C     C_R   0.779988 0.241686 0.447873 -0.049000
C32   C     C_R   0.759641 0.723967 0.454545 -0.069350
C33   C     C_R   0.342278 0.781743 0.478527 -0.049345
C34   C     C_R   0.330228 0.203491 0.477218 -0.046601
C35   C     C_R   0.842286 0.281738 0.478547 -0.049341
C36   C     C_R   0.830238 0.703499 0.477235 -0.046600
C37   C     C_R   0.746358 0.212528 0.531208 0.095178
C38   C     C_R   0.731811 0.762358 0.535949 0.096618
C39   C     C_R   0.246354 0.712531 0.531193 0.095185
C40   C     C_R   0.231813 0.262358 0.535956 0.096674
C41   C     C_R   0.781531 0.211001 0.638660 0.020632
C42   C     C_R   0.769202 0.765758 0.641533 0.014793
C43   C     C_R   0.281536 0.710988 0.638638 0.020619
C44   C     C_R   0.269231 0.265810 0.641518 0.014764
C45   C     C_R   0.350634 0.732518 0.660740 -0.218962
C46   C     C_R   0.339056 0.248554 0.660360 -0.224158
C47   C     C_R   0.850626 0.232539 0.660774 -0.218972
C48   C     C_R   0.839023 0.748485 0.660408 -0.224210
C49   C     C_R   0.381781 0.765709 0.580300 0.407030
C50   C     C_R   0.370827 0.225183 0.576003 0.401444
C51   C     C_R   0.881780 0.265721 0.580335 0.407033
C52   C     C_R   0.870815 0.725148 0.576057 0.401478
C53   C     C_R   0.677458 0.189671 0.511858 -0.175655
C54   C     C_R   0.671758 0.804973 0.513019 -0.158969
C55   C     C_R   0.177452 0.689679 0.511856 -0.175650
C56   C     C_R   0.171748 0.304955 0.513025 -0.158918
C57   C     C_R   0.678274 0.164354 0.701721 0.292900
C58   C     C_R   0.672199 0.825754 0.703535 0.319519
C59   C     C_R   0.178286 0.664340 0.701717 0.292891
C60   C     C_R   0.172231 0.325798 0.703538 0.319468
C61   C     C_R   0.362165 0.836166 0.406471 -0.072068
C62   C     C_R   0.357359 0.157937 0.403431 -0.065684
C63   C     C_R   0.862175 0.336153 0.406481 -0.072089
C64   C     C_R   0.857381 0.657963 0.403441 -0.065724
H9    H     H_    0.647112 0.195174 0.432672 0.200546
H10   H     H_    0.650325 0.816718 0.430129 0.194446
H11   H     H_    0.147099 0.695191 0.432678 0.200545
H12   H     H_    0.150283 0.316652 0.430131 0.194343
H13   H     H_    0.344891 0.877884 0.241475 0.171833
H14   H     H_    0.343344 0.116993 0.239770 0.170617
H15   H     H_    0.844912 0.377846 0.241469 0.171843
H16   H     H_    0.843410 0.617091 0.239745 0.170648
H17   H     H_    0.258506 0.781563 0.177582 0.199590
H18   H     H_    0.225243 0.159800 0.194794 0.195589
H19   H     H_    0.758542 0.281508 0.177585 0.199586
H20   H     H_    0.725335 0.659984 0.194693 0.195543
C65   C     C_R   0.641715 0.990383 0.133666 -0.156050
C66   C     C_R   0.141715 0.490391 0.133665 -0.156142
H21   H     H_    0.656541 0.982424 0.305572 0.168349
H22   H     H_    0.156542 0.482429 0.305571 0.168354
H23   H     H_    0.667731 0.995191 0.935307 0.193834
H24   H     H_    0.167730 0.495203 0.935307 0.193869
H25   H     H_    0.696088 0.984370 0.129546 0.172038
H26   H     H_    0.196088 0.484380 0.129545 0.172047
N1    N     N_R   0.552340 0.000000 0.237260 -0.119392
N2    N     N_R   0.052340 0.500000 0.237260 -0.119382
C67   C     C_R   0.379041 0.001328 0.761462 0.048840
C68   C     C_R   0.879041 0.501328 0.761462 0.048832
C69   C     C_R   0.353326 0.003630 0.857499 -0.228677
C70   C     C_R   0.853325 0.503631 0.857498 -0.228710
C71   C     C_R   0.399199 0.004517 0.953934 -0.167986
C72   C     C_R   0.899198 0.504518 0.953933 -0.168000
C73   C     C_R   0.471243 0.003161 0.953906 0.020454
C74   C     C_R   0.971242 0.503163 0.953906 0.020446
C75   C     C_R   0.494540 0.000968 0.853957 0.241029
C76   C     C_R   0.994540 0.500970 0.853957 0.241027
C77   C     C_R   0.520921 0.002364 0.048347 -0.012042
C78   C     C_R   0.020921 0.502367 0.048347 -0.012052
C79   C     C_R   0.592262 0.997026 0.041152 0.134952
C80   C     C_R   0.092262 0.497033 0.041152 0.134944
C81   C     C_R   0.613432 0.997251 0.941708 -0.075581
C82   C     C_R   0.113431 0.497259 0.941708 -0.075579
C83   C     C_R   0.565072 0.999473 0.849231 -0.059176
C84   C     C_R   0.065072 0.499477 0.849232 -0.059160
C85   C     C_R   0.502920 0.005667 0.150565 -0.010760
C86   C     C_R   0.002920 0.505666 0.150565 -0.010789
C87   C     C_R   0.619963 0.990207 0.232375 0.125253
C88   C     C_R   0.119964 0.490210 0.232375 0.125129
N3    N     N_R   0.448170 1.000000 0.762060 -0.123003
N4    N     N_R   0.948170 0.500000 0.762060 -0.122993
H27   H     H_    0.450719 0.011831 0.164848 0.114609
H28   H     H_    0.950718 0.511828 0.164849 0.114614
H29   H     H_    0.343939 0.000911 0.685806 0.141585
H30   H     H_    0.843939 0.500909 0.685805 0.141576
H31   H     H_    0.376742 0.005504 0.026413 0.135085
H32   H     H_    0.876741 0.505507 0.026413 0.135086
H33   H     H_    0.298224 0.004612 0.857262 0.170396
H34   H     H_    0.798224 0.504612 0.857261 0.170385
H35   H     H_    0.584396 0.998781 0.774966 0.186825
H36   H     H_    0.084396 0.498784 0.774966 0.186830
N5    N     N_R   0.641468 0.153445 0.790529 0.195112
O17   O     O_R   0.577616 0.175291 0.781328 -0.308083
O18   O     O_R   0.675745 0.142525 0.886910 -0.407506
N6    N     N_R   0.638126 0.843924 0.792691 0.192845
O19   O     O_R   0.573033 0.828034 0.787874 -0.308651
O20   O     O_R   0.674852 0.853732 0.887297 -0.433994
N7    N     N_R   0.141490 0.653429 0.790535 0.195105
O21   O     O_R   0.077638 0.675273 0.781350 -0.308055
O22   O     O_R   0.175776 0.642511 0.886911 -0.407510
N8    N     N_R   0.138164 0.343959 0.792703 0.192833
O23   O     O_R   0.073075 0.328056 0.787899 -0.308659
O24   O     O_R   0.174896 0.353768 0.887306 -0.434037
N9    N     N_R   0.713004 0.170739 0.294339 0.185485
O25   O     O_R   0.726764 0.103704 0.337361 -0.420141
O26   O     O_R   0.670110 0.176461 0.204285 -0.374698
N10   N     N_R   0.646197 0.702164 0.333122 0.186246
O27   O     O_R   0.612901 0.669648 0.402759 -0.332993
O28   O     O_R   0.612575 0.721545 0.239036 -0.363682
N11   N     N_R   0.212971 0.670781 0.294316 0.185497
O29   O     O_R   0.226729 0.603739 0.337313 -0.420143
O30   O     O_R   0.170069 0.676519 0.204272 -0.374652
N12   N     N_R   0.146143 0.201977 0.333308 0.186305
O31   O     O_R   0.112924 0.169566 0.403121 -0.332986
O32   O     O_R   0.112460 0.221087 0.239163 -0.363601
Cl1   Cl    Cl    0.472200 0.769740 0.601970 -0.516132
Cl2   Cl    Cl    0.461498 0.233239 0.593521 -0.550872
Cl3   Cl    Cl    0.972199 0.269758 0.602028 -0.516074
Cl4   Cl    Cl    0.961487 0.733207 0.593628 -0.550799

loop_
_geom_bond_atom_site_label_1
_geom_bond_atom_site_label_2
_geom_bond_distance
_ccdc_geom_bond_type
C30   C34   1.417418 A    
C67   H29   1.081605 S    
C39   C55   1.393662 A    
C54   H10   1.078273 S    
C27   C31   1.425680 A    
N7    O22   1.301452 A    
C71   H31   1.077236 S    
C26   N12   1.436783 S    
C4    C63   1.462244 S    
C14   C54   1.396681 A    
C70   C72   1.389873 A    
N9    O25   1.300455 A    
C12   C44   1.393913 A    
C66   H26   1.083944 S    
O7    C3    1.320432 A    
C10   H6    1.083961 S    
C22   C26   1.397940 A    
O13   C5    1.312168 A    
Zn1   O10   1.943464 S    
C76   N4    1.351672 A    
N10   O27   1.301762 A    
H22   C88   1.080522 S    
N5    O18   1.301454 A    
C86   H28   1.076194 S    
C37   C41   1.415925 A    
C39   C43   1.415911 A    
C9    H5    1.083924 S    
N12   O31   1.301730 A    
C23   H19   1.082835 S    
C12   C60   1.399929 A    
C66   C80   1.394599 A    
C15   C55   1.393546 A    
C19   H15   1.083647 S    
C76   C84   1.397375 A    
C69   H33   1.082564 S    
C56   H12   1.078313 S    
O2    Zn1   1.967233 S    
C45   C49   1.387516 A    
H21   C87   1.080519 S    
H4    C48   1.084450 S    
C10   C42   1.393917 A    
O6    Zn3   1.943344 S    
C3    C64   1.458782 S    
C25   N11   1.434201 S    
Zn3   O14   1.967208 S    
C67   N3    1.357591 A    
C2    C61   1.462235 S    
C33   C49   1.412384 A    
C67   C69   1.386044 A    
O10   C6    1.324143 A    
C49   Cl1   1.754320 S    
C83   H35   1.065662 S    
C14   C58   1.422816 A    
O15   C7    1.312172 A    
C10   C58   1.399921 A    
C17   C61   1.403002 A    
H24   C82   1.083938 S    
C9    C57   1.401363 A    
C40   C44   1.412478 A    
C65   C87   1.379114 A    
C11   C43   1.397215 A    
C18   H14   1.083717 S    
C32   C38   1.416705 A    
O8    Zn4   1.943344 S    
N1    C85   1.341041 A    
N8    O24   1.301408 A    
C36   C52   1.419051 A    
C29   C39   1.417929 A    
C7    C16   1.472212 S    
N9    O26   1.301521 A    
C33   C61   1.407114 A    
C18   C22   1.385150 A    
C9    C41   1.397223 A    
C71   C73   1.416135 A    
C20   H16   1.083715 S    
C11   C59   1.401355 A    
C65   C79   1.394599 A    
C40   C56   1.388762 A    
Zn2   O12   1.943464 S    
C70   H34   1.082563 S    
O1    C1    1.307449 A    
C27   N9    1.434209 S    
N11   O30   1.301506 A    
C68   C70   1.386045 A    
N11   O29   1.300444 A    
C43   C45   1.391981 A    
C25   C29   1.425661 A    
C35   C51   1.412405 A    
O12   C8    1.324145 A    
Zn2   N2    2.072272 S    
C28   C32   1.434005 A    
C84   H36   1.065664 S    
C74   C78   1.410520 A    
C82   C84   1.378414 A    
C79   C81   1.382757 A    
O5    C1    1.320428 A    
C58   N6    1.437701 S    
C38   C54   1.388735 A    
C53   H9    1.079045 S    
C42   C48   1.388318 A    
C37   C53   1.393663 A    
C17   C21   1.387410 A    
O8    C4    1.322856 A    
O5    Zn3   1.938471 S    
C13   C53   1.393549 A    
N2    C86   1.341042 A    
C55   H11   1.079037 S    
C29   C33   1.408768 A    
C52   Cl4   1.764444 S    
O3    Zn2   1.975302 S    
N1    C87   1.352259 A    
H2    C46   1.084453 S    
C68   H30   1.081606 S    
C44   C46   1.388322 A    
O7    Zn4   1.938471 S    
C72   H32   1.077237 S    
C73   C77   1.410518 A    
C85   H27   1.076192 S    
Zn4   O15   1.975278 S    
C60   N8    1.437705 S    
C20   C64   1.398829 A    
N8    O23   1.299576 A    
C59   N7    1.438253 S    
C31   C35   1.408770 A    
H3    C47   1.084267 S    
O4    C4    1.306350 A    
C36   C64   1.403707 A    
C1    C62   1.458781 S    
C74   C76   1.409068 A    
O2    C2    1.306341 A    
C68   N4    1.357592 A    
O11   C7    1.324070 A    
C72   C74   1.416134 A    
O16   C8    1.313369 A    
C50   Cl2   1.764447 S    
C21   H17   1.082819 S    
C26   C30   1.434001 A    
H1    C45   1.084255 S    
C28   N10   1.436740 S    
C24   H20   1.083119 S    
C78   C80   1.423178 A    
C75   C83   1.397378 A    
C19   C63   1.403025 A    
Zn2   O11   1.938592 S    
C34   C50   1.419063 A    
Zn4   N4    2.059632 S    
C48   C52   1.384268 A    
N6    O20   1.301405 A    
C16   C56   1.396685 A    
C80   C82   1.382752 A    
C5    C14   1.472210 S    
O6    C2    1.322860 A    
C19   C23   1.387416 A    
C22   H18   1.083118 S    
C18   C62   1.398831 A    
C13   C57   1.417986 A    
C75   N3    1.351673 A    
C8    C15   1.473267 S    
C77   C85   1.391717 A    
Zn1   O9    1.938592 S    
C32   C36   1.417408 A    
C15   C59   1.417978 A    
C69   C71   1.389871 A    
O9    C5    1.324071 A    
C17   H13   1.083643 S    
N5    O17   1.300607 A    
C31   C37   1.417931 A    
H23   C81   1.083938 S    
C51   Cl3   1.754316 S    
C30   C40   1.416684 A    
C38   C42   1.412485 A    
Zn3   O13   1.975278 S    
N12   O32   1.301616 A    
C21   C25   1.398360 A    
C34   C62   1.403706 A    
N10   O28   1.301770 A    
C11   H7    1.083915 S    
C41   C47   1.391983 A    
C23   C27   1.398363 A    
C12   H8    1.083964 S    
O4    Zn2   1.967233 S    
C57   N5    1.438253 S    
C73   C75   1.409067 A    
O3    C3    1.307446 A    
O14   C6    1.313369 A    
C65   H25   1.083942 S    
C20   C24   1.385139 A    
O1    Zn1   1.975302 S    
N6    O19   1.299574 A    
C78   C86   1.391716 A    
Zn4   O16   1.967208 S    
C46   C50   1.384280 A    
C35   C63   1.407129 A    
N7    O21   1.300601 A    
C77   C79   1.423176 A    
N2    C88   1.352259 A    
Zn3   N3    2.059632 S    
C16   C60   1.422819 A    
C47   C51   1.387525 A    
Zn1   N1    2.072272 S    
C24   C28   1.397910 A    
C6    C13   1.473262 S    
C66   C88   1.379113 A    
C81   C83   1.378416 A    
