data_mof_unit_40748.cif
_audit_creation_date              2012-12-11T14:50:28-0500
_audit_creation_method            fapswitch 2.2
_symmetry_space_group_name_H-M    P1
_symmetry_Int_Tables_number       1
_space_group_crystal_system       triclinic
_cell_length_a                    11.067716
_cell_length_b                    11.149434
_cell_length_c                    18.855735
_cell_angle_alpha                 89.456146
_cell_angle_beta                  89.413719
_cell_angle_gamma                 60.690828
_cell_volume                      2028.7931953

loop_
_atom_site_label
_atom_site_type_symbol
_atom_type_description
_atom_site_fract_x
_atom_site_fract_y
_atom_site_fract_z
_atom_type_partial_charge
C1    C     C_R   0.229492 0.647663 0.607210 0.586867
C2    C     C_R   0.552011 0.229331 0.798983 -0.050644
C3    C     C_R   0.545454 0.219773 0.726688 0.233362
C4    C     C_R   0.652105 0.620772 0.600967 0.551178
C5    C     C_R   0.655021 0.207862 0.682566 0.064627
C6    C     C_R   0.167851 0.560692 0.717881 0.226838
C7    C     C_R   0.169565 0.563718 0.792746 0.205596
C8    C     C_R   0.158235 0.682076 0.828140 -0.017288
C9    C     C_R   0.144308 0.793786 0.785762 0.237774
C10   C     C_R   0.129262 0.790288 0.712729 0.316538
C11   C     C_R   0.164113 0.668775 0.678363 0.029424
C12   C     C_3   0.665156 0.560837 0.804453 -0.119086
C13   C     C_R   0.648234 0.547787 0.268839 -0.108717
C14   C     C_R   0.650257 0.566492 0.195568 0.021175
C15   C     C_R   0.644644 0.686842 0.169947 0.007131
C16   C     C_R   0.622910 0.239947 0.606312 0.599645
C17   C     C_R   0.605045 0.798442 0.217411 -0.072816
C18   C     C_R   0.632245 0.769866 0.290259 0.062307
C19   C     C_R   0.648906 0.644406 0.316141 0.093575
C20   C     C_R   0.508749 0.241572 0.275037 0.143225
C21   C     C_R   0.520818 0.234105 0.201611 -0.016865
C22   C     C_R   0.652802 0.177292 0.171031 -0.083174
C23   C     C_3   0.696106 0.681048 0.812270 -0.093975
C24   C     C_R   0.769588 0.155188 0.212233 -0.051469
C25   C     C_R   0.759367 0.155858 0.286015 0.170922
C26   C     C_R   0.628702 0.203019 0.317678 -0.035334
C27   C     C_R   0.230144 0.734308 0.280299 0.197861
C28   C     C_R   0.226572 0.649010 0.400392 0.594595
C29   C     C_R   0.219091 0.723159 0.209178 -0.094032
C30   C     C_R   0.144498 0.663738 0.183317 -0.075179
C31   C     C_R   0.091701 0.598158 0.229683 -0.019931
C32   C     C_R   0.102770 0.609553 0.303277 0.243475
C33   C     C_R   0.178031 0.671298 0.328100 0.038084
C34   C     C_3   0.663282 0.650807 0.676449 -0.011593
C35   C     C_R   0.700250 0.106874 0.898416 0.570222
C36   C     C_R   0.724150 0.691067 0.888303 0.537188
C37   C     C_R   0.113290 0.709798 0.903736 0.573314
C38   C     C_R   0.675573 0.109464 0.102464 0.596628
C39   C     C_R   0.695450 0.693618 0.098292 0.594221
C40   C     C_R   0.640573 0.618920 0.391341 0.612151
C41   C     C_R   0.089826 0.709177 0.112897 0.562202
C42   C     C_R   0.611200 0.238177 0.392685 0.599218
C43   C     C_3   0.564974 0.812247 0.780445 -0.091581
C44   C     C_3   0.564969 0.805844 0.697517 0.162159
C45   C     C_3   0.813815 0.617535 0.690999 -0.181669
C46   C     C_3   0.827535 0.653707 0.768451 -0.121103
C47   C     C_2   0.537913 0.950238 0.803794 0.341931
C48   C     C_2   0.891379 0.217876 0.687921 0.297801
C49   C     C_2   0.626463 0.476557 0.147866 0.211014
C50   C     C_2   0.496783 0.939475 0.195978 0.232954
C51   C     C_2   0.645221 0.870710 0.336323 0.349941
C52   C     C_2   0.394464 0.291381 0.156558 0.280347
C53   C     C_2   0.897049 0.144045 0.178008 0.356623
C54   C     C_2   0.416759 0.869108 0.675225 0.390712
C55   C     C_2   0.034273 0.511790 0.201868 0.328649
C56   C     C_3   0.639988 0.547141 0.724634 -0.140841
C57   C     C_2   0.855793 0.772828 0.776335 0.186660
C58   C     C_2   0.777643 0.427782 0.835627 0.236610
C59   C     C_2   0.510594 0.539512 0.710746 0.241819
C60   C     C_R   0.777538 0.194103 0.717282 -0.023356
C61   C     C_R   0.792314 0.162094 0.789882 -0.129180
C62   C     C_R   0.680334 0.177703 0.830520 -0.006764
Cl1   Cl    Cl    0.406422 0.199413 0.698351 -0.400797
Cl2   Cl    Cl    0.624124 0.908796 0.649387 -0.530172
Cl3   Cl    Cl    0.135858 0.442006 0.672859 -0.478992
Cl4   Cl    Cl    0.185993 0.417991 0.839467 -0.475203
Cl5   Cl    Cl    0.154734 0.936263 0.819871 -0.484438
Cl6   Cl    Cl    0.062359 0.938748 0.661362 -0.426170
Cl7   Cl    Cl    0.340169 0.296296 0.310321 -0.469187
Cl8   Cl    Cl    0.910899 0.093114 0.338834 -0.387414
Cl9   Cl    Cl    0.302261 0.838908 0.303675 -0.440587
Cl10  Cl    Cl    0.022416 0.549608 0.365494 -0.396594
Cr1   Cr    Cr6+3 0.392930 0.397900 0.502230 1.211353
Cr2   Cr    Cr6+3 0.398240 0.708600 0.501260 1.172541
Cr3   Cr    Cr6+3 0.708800 0.393470 0.496460 1.193839
Cr4   Cr    Cr6+3 0.937620 0.938540 0.007640 1.113498
Cr5   Cr    Cr6+3 0.625150 0.937450 0.994520 1.096740
Cr6   Cr    Cr6+3 0.937990 0.625080 0.001190 1.125749
H1    H     H_    0.719302 0.446959 0.707726 0.080164
H2    H     H_    0.570314 0.588015 0.836598 0.218257
H3    H     H_    0.615811 0.979157 0.794646 0.147251
H4    H     H_    0.966372 0.218511 0.724306 0.158222
H5    H     H_    0.560257 0.437416 0.166353 0.117200
H6    H     H_    0.466917 0.967505 0.141580 0.169565
H7    H     H_    0.644576 0.959168 0.312221 0.127066
H8    H     H_    0.306220 0.279982 0.172138 0.172319
H9    H     H_    0.887333 0.204760 0.130939 0.148204
H10   H     H_    0.368565 0.958334 0.640398 0.220167
H11   H     H_    0.074568 0.454420 0.153257 0.140671
H12   H     H_    0.918954 0.562793 0.790616 0.175581
H13   H     H_    0.868456 0.803353 0.828873 0.091458
H14   H     H_    0.879830 0.376136 0.811763 0.125932
H15   H     H_    0.485761 0.527279 0.657004 0.112065
H16   H     H_    0.881123 0.505169 0.684095 0.176477
H17   H     H_    0.889203 0.132010 0.816141 0.202605
H18   H     H_    0.463502 0.245410 0.830575 0.249231
H19   H     H_    0.474207 0.805603 0.802016 0.202946
H20   H     H_    0.645972 0.457693 0.289241 0.093655
H21   H     H_    0.259226 0.772606 0.173536 0.192995
H22   H     H_    0.852226 0.665681 0.651466 0.250050
O1    O     O_R   0.507430 0.255570 0.581420 -0.416639
O2    O     O_R   0.837200 0.593290 0.915250 -0.461861
O3    O     O_R   0.065330 0.635370 0.931590 -0.464881
O4    O     O_R   0.280190 0.527390 0.578910 -0.466521
O5    O     O_R   0.068300 0.828790 0.091860 -0.487585
O6    O     O_R   0.798730 0.057480 0.079370 -0.518735
O7    O     O_R   0.584680 0.080480 0.076790 -0.495361
O8    O     O_R   0.626790 0.809640 0.067050 -0.545055
O9    O     O_R   0.816010 0.596460 0.076500 -0.450952
O10   O     O_R   0.045680 0.638310 0.081070 -0.521441
O11   O     O_3   0.833590 0.833690 0.001120 -0.328589
O12   O     O_R   0.524460 0.695920 0.424060 -0.449711
O13   O     O_R   0.260310 0.739740 0.584580 -0.440649
O14   O     O_R   0.532250 0.695150 0.573830 -0.502008
O15   O     O_R   0.744930 0.503430 0.576380 -0.476724
O16   O     O_R   0.699250 0.276390 0.571950 -0.462067
O17   O     O_R   0.499020 0.256400 0.419850 -0.425481
O18   O     O_R   0.272400 0.528160 0.429140 -0.449609
O19   O     O_R   0.251910 0.740570 0.423020 -0.435641
O20   O     O_2   0.428676 0.029141 0.833092 -0.389474
O21   O     O_2   0.910467 0.230909 0.625345 -0.374691
O22   O     O_2   0.673176 0.451222 0.087603 -0.448723
O23   O     O_R   0.736530 0.504260 0.414810 -0.444853
O24   O     O_2   0.426415 0.024180 0.240509 -0.425709
O25   O     O_2   0.661984 0.854549 0.400294 -0.428991
O26   O     O_2   0.387973 0.353132 0.101612 -0.487670
O27   O     O_2   0.013007 0.064964 0.199760 -0.389870
O28   O     O_2   0.347889 0.820126 0.696915 -0.485425
O29   O     O_2   0.943407 0.500670 0.233156 -0.441356
O30   O     O_2   0.861604 0.838415 0.725778 -0.465608
O31   O     O_2   0.756395 0.381606 0.890437 -0.443216
O32   O     O_2   0.438225 0.537149 0.759147 -0.535693
O33   O     O_R   0.691460 0.277160 0.422180 -0.459905
O34   O     O_3   0.499990 0.499990 0.499980 -0.388490
O35   O     O_R   0.089490 0.825610 0.930610 -0.454937
O36   O     O_R   0.818370 0.054540 0.929880 -0.474145
O37   O     O_R   0.605870 0.077310 0.915530 -0.500267
O38   O     O_R   0.646440 0.806700 0.917570 -0.499680

loop_
_geom_bond_atom_site_label_1
_geom_bond_atom_site_label_2
_ccdc_geom_bond_type
C34   C56   S    
Cr4   O5    S    
Cr6   O2    S    
C4    O15   A    
C1    C11   S    
C51   H7    S    
Cr4   O36   S    
Cr3   O34   S    
C50   H6    S    
C7    C8    A    
C32   Cl10  S    
C45   C46   S    
C27   C33   A    
Cr2   O19   S    
C12   C23   S    
C56   H1    S    
C41   O5    A    
C42   O33   A    
Cr3   O23   S    
C4    O14   A    
Cr5   O37   S    
Cr2   O12   S    
C30   C31   A    
C14   C49   S    
C27   C29   A    
Cr2   O14   S    
Cr2   O34   S    
C13   H20   S    
C23   C43   S    
Cr3   O16   S    
C36   O2    A    
C18   C19   A    
C38   O7    A    
Cr5   O11   S    
C5    C16   S    
Cr1   O34   S    
C53   O27   D    
C6    Cl3   S    
C20   C26   A    
C8    C9    A    
C55   O29   D    
Cr4   O6    S    
C37   O35   A    
C30   C41   S    
Cr6   O11   S    
C35   C62   S    
C43   C47   S    
C9    C10   A    
C12   C58   S    
Cr1   O1    S    
C23   C46   S    
C13   C14   A    
C1    O13   A    
C45   H16   S    
C16   O16   A    
Cr4   O35   S    
C18   C51   S    
C48   C60   S    
Cr1   O4    S    
C39   O8    A    
C4    C34   S    
C59   O32   D    
Cr1   O17   S    
C29   H21   S    
C51   O25   D    
C57   O30   D    
Cr5   O7    S    
C50   O24   D    
Cr5   O38   S    
C40   O12   A    
C10   C11   A    
C6    C11   A    
C37   O3    A    
C13   C19   A    
C25   C26   A    
Cr2   O13   S    
C54   O28   D    
C45   H22   S    
C44   Cl2   S    
C60   C61   A    
C38   O6    A    
C17   C50   S    
C43   C44   S    
C9    Cl5   S    
C29   C30   A    
C31   C32   A    
C58   O31   D    
Cr3   O33   S    
C17   C18   A    
C34   C44   S    
C53   H9    S    
C34   C45   S    
C24   C25   A    
C1    O4    A    
C15   C39   S    
C12   C56   S    
C47   O20   D    
C28   C33   S    
C10   Cl6   S    
C41   O10   A    
C46   C57   S    
C22   C24   A    
C20   Cl7   S    
Cr3   O15   S    
C8    C37   S    
C48   O21   D    
C27   Cl9   S    
C26   C42   S    
C15   C17   A    
C40   O23   A    
C52   O26   D    
Cr1   O18   S    
C57   H13   S    
C5    C60   A    
Cr6   O3    S    
Cr5   O8    S    
C43   H19   S    
C3    C5    A    
C28   O19   A    
C35   O36   A    
C61   H17   S    
C42   O17   A    
C6    C7    A    
C46   H12   S    
C3    Cl1   S    
Cr6   O10   S    
C56   C59   S    
C32   C33   A    
C49   H5    S    
C52   H8    S    
C2    C3    A    
C24   C53   S    
C55   H11   S    
C28   O18   A    
C35   O37   A    
C7    Cl4   S    
C54   H10   S    
C58   H14   S    
Cr4   O11   S    
C49   O22   D    
C12   H2    S    
C2    H18   S    
C48   H4    S    
Cr6   O9    S    
C47   H3    S    
C61   C62   A    
C19   C40   S    
C44   C54   S    
C16   O1    A    
C39   O9    A    
C20   C21   A    
C23   C36   S    
C14   C15   A    
C25   Cl8   S    
C59   H15   S    
C31   C55   S    
C21   C22   A    
C36   O38   A    
C21   C52   S    
C2    C62   A    
C22   C38   S    
