data_mof_unit_19032.cif
_audit_creation_date              2012-12-10T19:53:48-0500
_audit_creation_method            fapswitch 2.2
_symmetry_space_group_name_H-M    P1
_symmetry_Int_Tables_number       1
_space_group_crystal_system       triclinic
_cell_length_a                    15.125837
_cell_length_b                    14.313054
_cell_length_c                    10.533346
_cell_angle_alpha                 90.610305
_cell_angle_beta                  92.570682
_cell_angle_gamma                 89.987656
_cell_volume                      2278.0127516

loop_
_atom_site_label
_atom_site_type_symbol
_atom_type_description
_atom_site_fract_x
_atom_site_fract_y
_atom_site_fract_z
_atom_type_partial_charge
C1    C     C_R   0.327841 0.499885 0.501629 0.994900
C2    C     C_R   0.435652 0.796339 0.431372 0.385681
C3    C     C_R   0.499395 0.053679 0.499688 -0.307820
C4    C     C_R   0.499495 0.947045 0.499514 -0.269977
C5    C     C_R   0.500754 0.499448 0.257852 0.980447
C6    C     C_R   0.499826 0.500572 0.742103 0.981182
C7    C     C_3   0.425969 0.536179 0.038700 0.352258
C8    C     C_3   0.575451 0.464108 0.960978 0.376410
C9    C     C_3   0.493455 0.587980 0.962445 0.414749
C10   C     C_3   0.508046 0.412253 0.037196 0.432386
C11   C     C_3   0.430104 0.448692 0.952125 -0.416749
C12   C     C_R   0.672286 0.499778 0.498849 0.990783
C13   C     C_3   0.571330 0.551519 0.047686 -0.427022
C14   C     C_3   0.499198 0.501616 0.876311 -0.164948
C15   C     C_3   0.502183 0.498534 0.123530 -0.173833
C16   C     C_R   0.092276 0.568074 0.431939 0.365458
C17   C     C_R   0.903455 0.422552 0.434264 0.351360
C18   C     C_R   0.909292 0.572366 0.549243 0.363856
C19   C     C_R   0.095355 0.425638 0.559364 0.352154
C20   C     C_R   0.182956 0.575687 0.452720 0.407967
C21   C     C_R   0.813094 0.418161 0.451484 0.397452
C22   C     C_R   0.817929 0.578219 0.535683 0.393188
C23   C     C_R   0.481250 0.105148 0.386653 0.349027
C24   C     C_R   0.186585 0.421110 0.549662 0.394139
C25   C     C_R   0.231522 0.498941 0.501611 -0.455617
C26   C     C_R   0.768690 0.498647 0.495668 -0.450151
C27   C     C_R   0.047866 0.495551 0.492000 -0.264595
C28   C     C_R   0.952243 0.496703 0.491729 -0.261057
C29   C     C_3   0.218154 0.720264 0.533824 0.209485
C30   C     C_3   0.167550 0.809086 0.496582 -0.277291
C31   C     C_3   0.169656 0.879970 0.605928 -0.957751
C32   C     C_3   0.764205 0.275981 0.517551 0.164565
C33   C     C_3   0.843493 0.209044 0.524467 -0.366569
C34   C     C_R   0.569757 0.895659 0.559038 0.353529
C35   C     C_3   0.834274 0.137398 0.629185 -0.901396
C36   C     C_3   0.784281 0.726082 0.468082 0.207881
C37   C     C_3   0.824746 0.817436 0.520398 -0.256997
C38   C     C_3   0.819590 0.894236 0.420905 -0.960533
C39   C     C_3   0.238697 0.273004 0.514217 0.158877
C40   C     C_3   0.157769 0.208246 0.512408 -0.339028
C41   C     C_3   0.175108 0.117135 0.441680 -0.933205
C42   C     C_R   0.517515 0.106548 0.613027 0.354820
C43   C     C_R   0.429426 0.894338 0.440252 0.356423
C44   C     C_R   0.471249 0.202887 0.393706 0.427584
C45   C     C_R   0.564077 0.797696 0.568412 0.417373
C46   C     C_R   0.527704 0.204187 0.606633 0.386287
H1    H     H_    0.373290 0.407697 0.910899 0.215334
H2    H     H_    0.996182 0.382847 0.656832 0.342236
H3    H     H_    0.286546 0.739587 0.566572 0.175931
H4    H     H_    0.186953 0.688929 0.617881 0.073100
H5    H     H_    0.197205 0.840938 0.412684 0.290210
H6    H     H_    0.097533 0.791353 0.470874 0.257959
H7    H     H_    0.142660 0.848569 0.692072 0.279972
H8    H     H_    0.128321 0.941247 0.578936 0.274500
H9    H     H_    0.238570 0.903909 0.627957 0.274245
H10   H     H_    0.703067 0.233581 0.502625 0.154620
H11   H     H_    0.758571 0.313205 0.610602 0.122447
H12   H     H_    0.628185 0.592462 0.088874 0.191407
H13   H     H_    0.848803 0.172139 0.431744 0.259663
H14   H     H_    0.905414 0.248617 0.546061 0.263207
H15   H     H_    0.830494 0.173047 0.722992 0.288556
H16   H     H_    0.892654 0.090283 0.632216 0.270235
H17   H     H_    0.773852 0.094816 0.610614 0.275107
H18   H     H_    0.716573 0.740120 0.427603 0.158037
H19   H     H_    0.824079 0.701405 0.387190 0.082556
H20   H     H_    0.789497 0.840637 0.605342 0.297818
H21   H     H_    0.895251 0.805995 0.549920 0.251911
H22   H     H_    0.856212 0.872975 0.336203 0.276952
H23   H     H_    0.312340 0.592820 0.008700 0.355802
H24   H     H_    0.849805 0.959260 0.461465 0.275516
H25   H     H_    0.749546 0.908807 0.391459 0.272415
H26   H     H_    0.298504 0.231738 0.542492 0.157387
H27   H     H_    0.248990 0.298561 0.416223 0.110919
H28   H     H_    0.140662 0.191981 0.611299 0.274275
H29   H     H_    0.100496 0.243291 0.463547 0.249155
H30   H     H_    0.199264 0.131224 0.345673 0.292076
H31   H     H_    0.112882 0.076112 0.430959 0.276048
H32   H     H_    0.224945 0.075455 0.496745 0.262265
H33   H     H_    0.500386 0.002387 0.269300 0.354818
H34   H     H_    0.689023 0.407293 0.990786 0.361024
H35   H     H_    0.653934 0.997502 0.567679 0.337259
H36   H     H_    0.497486 0.005488 0.729799 0.358663
H37   H     H_    0.346117 0.997144 0.426453 0.341571
H38   H     H_    0.396868 0.299173 0.325425 0.344825
H39   H     H_    0.607028 0.690876 0.661640 0.402629
H40   H     H_    0.603033 0.299640 0.677452 0.359713
H41   H     H_    0.391994 0.687820 0.339111 0.408186
H42   H     H_    0.482615 0.719100 0.996509 0.359928
H43   H     H_    0.518322 0.281319 0.001509 0.387506
H44   H     H_    0.990444 0.613121 0.329840 0.341409
H45   H     H_    0.000738 0.371581 0.338669 0.342172
H46   H     H_    0.012959 0.621730 0.644868 0.341119
N1    N     N_R   0.500000 0.252470 0.500000 -0.279629
N2    N     N_R   0.500000 0.747530 0.500000 -0.284284
O1    O     O_R   0.369060 0.579480 0.500010 -0.613159
O2    O     O_3   0.652379 0.424903 0.914411 -0.735155
O3    O     O_3   0.483566 0.679469 0.918844 -0.714652
O4    O     O_3   0.518694 0.320605 0.079593 -0.644055
O5    O     O_3   0.049322 0.636268 0.360487 -0.719129
O6    O     O_3   0.941419 0.352060 0.364134 -0.730099
O7    O     O_3   0.953855 0.643787 0.614324 -0.730380
O8    O     O_3   0.055692 0.360898 0.635158 -0.738862
O9    O     O_3   0.223056 0.659564 0.426503 -0.539886
O10   O     O_3   0.768034 0.337665 0.413171 -0.563625
O11   O     O_3   0.777373 0.661063 0.568287 -0.552561
O12   O     O_R   0.630940 0.420520 0.499990 -0.620347
O13   O     O_3   0.232011 0.346638 0.604633 -0.576934
O14   O     O_3   0.469034 0.063087 0.268596 -0.636669
O15   O     O_3   0.644360 0.938349 0.612700 -0.688516
O16   O     O_3   0.529245 0.065960 0.730916 -0.640579
O17   O     O_3   0.354308 0.935264 0.386348 -0.680559
O18   O     O_3   0.431260 0.246657 0.291175 -0.629928
O19   O     O_3   0.626357 0.755036 0.647051 -0.661346
O20   O     O_3   0.566083 0.249271 0.710649 -0.667390
O21   O     O_3   0.373341 0.752438 0.352801 -0.654258
O22   O     O_R   0.630940 0.579480 0.499990 -0.619128
O23   O     O_R   0.369060 0.420520 0.500010 -0.637208
O24   O     O_R   0.499980 0.579460 0.313950 -0.658037
O25   O     O_R   0.500020 0.420540 0.686050 -0.598718
O26   O     O_R   0.500020 0.579460 0.686050 -0.621789
O27   O     O_R   0.499980 0.420540 0.313950 -0.572866
O28   O     O_3   0.349019 0.575425 0.085140 -0.718226
Zn1   Zn    Zn3+2 0.500000 0.606140 0.500000 0.964626
Zn2   Zn    Zn3+2 0.500000 0.393860 0.500000 0.984986

loop_
_geom_bond_atom_site_label_1
_geom_bond_atom_site_label_2
_ccdc_geom_bond_type
C30   H5    S    
C38   H24   S    
C3    C42   A    
C8    C13   S    
O22   Zn1   S    
H44   O5    S    
C3    C23   A    
C8    O2    S    
N1    Zn2   S    
C21   C26   A    
C20   O9    S    
C29   H3    S    
O25   Zn2   S    
C39   O13   S    
H38   O18   S    
H36   O16   S    
C36   C37   S    
C37   C38   S    
C10   C15   S    
C41   H31   S    
C30   C31   S    
C19   O8    S    
C20   C25   A    
C5    O27   A    
C29   O9    S    
C42   C46   A    
C10   O4    S    
C9    C13   S    
O27   Zn2   S    
C44   N1    A    
C33   C35   S    
C21   O10   S    
C11   H1    S    
C8    C14   S    
C39   H26   S    
C32   O10   S    
H45   O6    S    
H34   O2    S    
C19   C27   A    
H41   O21   S    
H42   O3    S    
O26   Zn1   S    
C1    O1    A    
N2    Zn1   S    
C16   C27   A    
C7    C15   S    
C33   H13   S    
C1    C25   S    
C43   O17   S    
C32   H11   S    
C45   N2    A    
C6    O26   A    
C29   H4    S    
C4    C34   A    
C46   O20   S    
C2    N2    A    
C18   C28   A    
C24   C25   A    
C41   H32   S    
C34   C45   A    
C36   H19   S    
C13   H12   S    
C17   C21   A    
C23   C44   A    
C12   C26   S    
C18   O7    S    
C7    C11   S    
C9    C14   S    
C29   C30   S    
C6    C14   S    
C2    O21   S    
C2    C43   A    
C16   C20   A    
H2    O8    S    
C37   H20   S    
C35   H15   S    
C24   O13   S    
C1    O23   A    
C31   H7    S    
H46   O7    S    
C44   O18   S    
C40   C41   S    
H35   O15   S    
C33   H14   S    
C13   C15   S    
H37   O17   S    
C7    O28   S    
C3    C4    S    
C6    O25   A    
C39   C40   S    
O1    Zn1   S    
C7    C9    S    
C30   H6    S    
C38   H25   S    
C9    O3    S    
C36   O11   S    
C18   C22   A    
C17   C28   A    
O23   Zn2   S    
C38   H22   S    
C16   O5    S    
C4    C43   A    
C22   O11   S    
C5    O24   A    
C40   H29   S    
H43   O4    S    
H40   O20   S    
C32   C33   S    
H39   O19   S    
C19   C24   A    
C42   O16   S    
C41   H30   S    
C12   O12   A    
C46   N1    A    
H23   O28   S    
C23   O14   S    
C37   H21   S    
C11   C14   S    
C40   H28   S    
H33   O14   S    
C35   H16   S    
O24   Zn1   S    
C39   H27   S    
C31   H8    S    
C17   O6    S    
C5    C15   S    
C10   C11   S    
C45   O19   S    
C8    C10   S    
C22   C26   A    
O12   Zn2   S    
C27   C28   S    
C34   O15   S    
C35   H17   S    
C31   H9    S    
C36   H18   S    
C32   H10   S    
C12   O22   A    
