data_mof_unit_32622.cif
_audit_creation_date              2012-12-10T18:47:08-0500
_audit_creation_method            fapswitch 2.2
_symmetry_space_group_name_H-M    P1
_symmetry_Int_Tables_number       1
_space_group_crystal_system       triclinic
_cell_length_a                    10.693164
_cell_length_b                    9.815697
_cell_length_c                    15.010293
_cell_angle_alpha                 90.326126
_cell_angle_beta                  90.387858
_cell_angle_gamma                 90.087184
_cell_volume                      1575.4296921

loop_
_atom_site_label
_atom_site_type_symbol
_atom_type_description
_atom_site_fract_x
_atom_site_fract_y
_atom_site_fract_z
_atom_type_partial_charge
C1    C     C_R   0.259843 0.499929 0.499902 0.863375
C2    C     C_R   0.127473 0.499844 0.499806 -0.002377
C3    C     C_R   0.586627 0.072600 0.548648 -0.081662
C4    C     C_R   0.413372 0.927400 0.451352 -0.081660
C5    C     C_R   0.413368 0.071460 0.451358 -0.076303
C6    C     C_R   0.586631 0.928540 0.548642 -0.076329
C7    C     C_R   0.503717 0.499373 0.326801 0.895575
C8    C     C_R   0.496285 0.500628 0.673198 0.895587
C9    C     C_R   0.553564 0.398321 0.813362 -0.288295
C10   C     C_R   0.446469 0.601696 0.186636 -0.288294
C11   C     C_R   0.490924 0.502187 0.768895 -0.117992
C12   C     C_R   0.740157 0.500071 0.500098 0.863362
C13   C     C_R   0.509089 0.497818 0.231103 -0.117993
C14   C     C_R   0.427918 0.606720 0.815517 -0.075771
C15   C     C_R   0.572095 0.393285 0.184482 -0.075774
C16   C     C_R   0.431466 0.606151 0.908974 0.069678
C17   C     C_R   0.568567 0.393868 0.091024 0.069677
C18   C     C_R   0.497375 0.500933 0.953459 0.053144
C19   C     C_R   0.502667 0.499091 0.046539 0.053146
C20   C     C_R   0.557940 0.397196 0.905068 0.126533
C21   C     C_R   0.442102 0.602827 0.094930 0.126533
C22   C     C_R   0.370494 0.707353 0.959170 -0.220837
C23   C     C_R   0.376442 0.705850 0.051306 -0.220800
C24   C     C_R   0.629546 0.292670 0.040828 -0.220841
C25   C     C_R   0.357345 0.713715 0.766665 0.137387
C26   C     C_R   0.242712 0.682279 0.725204 -0.135579
C27   C     C_R   0.178943 0.781666 0.676428 -0.122540
C28   C     C_R   0.229517 0.912407 0.668289 -0.110601
C29   C     C_R   0.343549 0.944356 0.709485 -0.128158
C30   C     C_R   0.407474 0.845443 0.758558 -0.138330
C31   C     C_R   0.642628 0.286262 0.233332 0.137392
C32   C     C_R   0.592470 0.154542 0.241408 -0.138378
C33   C     C_R   0.656354 0.055599 0.290480 -0.128165
C34   C     C_R   0.623605 0.294177 0.948693 -0.220798
C35   C     C_R   0.770374 0.087508 0.331707 -0.110587
C36   C     C_R   0.820976 0.218241 0.323599 -0.122537
C37   C     C_R   0.757249 0.317658 0.274822 -0.135524
C38   C     C_R   0.064153 0.383278 0.527657 -0.216682
C39   C     C_R   0.935847 0.616721 0.472341 -0.216689
C40   C     C_R   0.936048 0.383502 0.527956 -0.214609
C41   C     C_R   0.063952 0.616498 0.472042 -0.214593
C42   C     C_R   0.872527 0.500156 0.500192 -0.002382
H1    H     H_    0.601985 0.319504 0.776121 0.155088
H2    H     H_    0.113003 0.706705 0.449809 0.147947
H3    H     H_    0.655691 0.127799 0.587595 0.117135
H4    H     H_    0.344308 0.872201 0.412406 0.117132
H5    H     H_    0.344399 0.125750 0.412332 0.124246
H6    H     H_    0.655601 0.874250 0.587668 0.124246
H7    H     H_    0.203472 0.580833 0.730182 0.114982
H8    H     H_    0.090529 0.757200 0.644671 0.136044
H9    H     H_    0.180428 0.988917 0.630009 0.114120
H10   H     H_    0.382752 0.045528 0.702947 0.137626
H11   H     H_    0.496420 0.870737 0.789430 0.121068
H12   H     H_    0.398049 0.680515 0.223877 0.155089
H13   H     H_    0.503533 0.129279 0.210511 0.121078
H14   H     H_    0.617128 0.954434 0.296994 0.137629
H15   H     H_    0.819431 0.010975 0.369987 0.114128
H16   H     H_    0.909380 0.242677 0.355380 0.136027
H17   H     H_    0.796511 0.419097 0.269867 0.114968
H18   H     H_    0.317822 0.788389 0.928042 0.160269
H19   H     H_    0.682217 0.211632 0.071956 0.160271
H20   H     H_    0.329164 0.785242 0.088556 0.142340
H21   H     H_    0.670885 0.214786 0.911443 0.142342
H22   H     H_    0.113342 0.293036 0.549865 0.150042
H23   H     H_    0.886658 0.706964 0.450132 0.150042
H24   H     H_    0.886997 0.293294 0.550188 0.147943
N1    N     N_R   0.500000 0.857200 0.500000 -0.072709
N2    N     N_R   0.500000 0.142800 0.500000 -0.072709
O1    O     O_R   0.316770 0.614620 0.499990 -0.621111
O2    O     O_R   0.683230 0.385380 0.500010 -0.621119
O3    O     O_R   0.683230 0.614620 0.500010 -0.634782
O4    O     O_R   0.316770 0.385380 0.499990 -0.634785
O5    O     O_R   0.499980 0.614680 0.367850 -0.631755
O6    O     O_R   0.500020 0.385320 0.632150 -0.631753
O7    O     O_R   0.500020 0.614680 0.632150 -0.603747
O8    O     O_R   0.499980 0.385320 0.367850 -0.603742
Zn1   Zn    Zn3+2 0.500000 0.653120 0.500000 0.948049
Zn2   Zn    Zn3+2 0.500000 0.346880 0.500000 0.948050

loop_
_geom_bond_atom_site_label_1
_geom_bond_atom_site_label_2
_ccdc_geom_bond_type
C24   H19   S    
O2    Zn2   S    
O1    Zn1   S    
C3    N2    A    
N1    Zn1   S    
C3    C6    A    
C39   C41   A    
C4    H4    S    
C5    H5    S    
C26   C27   A    
C6    H6    S    
C36   C37   A    
C19   C21   A    
O8    Zn2   S    
C18   C19   A    
C36   H16   S    
C22   H18   S    
C28   H9    S    
C2    C41   A    
C1    C2    S    
C12   C42   S    
C17   C19   A    
C23   H20   S    
C35   C36   A    
O4    Zn2   S    
C32   H13   S    
C27   H8    S    
C20   C34   A    
C33   H14   S    
C40   C42   A    
C40   H24   S    
C39   H23   S    
C5    N2    A    
C39   C42   A    
C38   H22   S    
C10   C21   A    
N2    Zn2   S    
C30   H11   S    
C9    H1    S    
C1    O4    A    
C17   C24   A    
C7    O5    A    
C26   H7    S    
C11   C14   A    
C25   C26   A    
C3    H3    S    
C8    O7    A    
C1    O1    A    
C31   C37   A    
C29   C30   A    
O7    Zn1   S    
C2    C38   A    
C9    C20   A    
C31   C32   A    
C8    O6    A    
C9    C11   A    
C37   H17   S    
C6    N1    A    
C12   O3    A    
C13   C15   A    
C41   H2    S    
C14   C16   A    
O3    Zn1   S    
C25   C30   A    
C15   C17   A    
C12   O2    A    
C28   C29   A    
C16   C22   A    
C4    C5    A    
C10   C13   A    
C4    N1    A    
C15   C31   S    
C7    O8    A    
C35   H15   S    
C32   C33   A    
C21   C23   A    
C38   C40   A    
C8    C11   S    
C34   H21   S    
C33   C35   A    
C18   C20   A    
C14   C25   S    
C10   H12   S    
C24   C34   A    
C7    C13   S    
C16   C18   A    
O6    Zn2   S    
C27   C28   A    
O5    Zn1   S    
C22   C23   A    
C29   H10   S    
