data_mof_unit_44537.cif
_audit_creation_date              2012-12-10T18:09:49-0500
_audit_creation_method            fapswitch 2.2
_symmetry_space_group_name_H-M    P1
_symmetry_Int_Tables_number       1
_space_group_crystal_system       triclinic
_cell_length_a                    10.626499
_cell_length_b                    12.651873
_cell_length_c                    13.066464
_cell_angle_alpha                 82.061852
_cell_angle_beta                  90.943365
_cell_angle_gamma                 102.116128
_cell_volume                      1700.98919423

loop_
_atom_site_label
_atom_site_type_symbol
_atom_type_description
_atom_site_fract_x
_atom_site_fract_y
_atom_site_fract_z
_atom_type_partial_charge
Br1   Br    Br    0.158568 0.613433 0.290556 -0.571676
Br2   Br    Br    0.159172 0.620988 0.684528 -0.534879
C1    C     C_R   0.489432 0.438838 0.691376 0.851742
C2    C     C_R   0.503658 0.449034 0.974208 0.086895
C3    C     C_R   0.548429 0.466595 0.871420 0.114558
C4    C     C_R   0.741603 0.500020 0.501701 0.826307
C5    C     C_R   0.544929 0.532420 0.036362 -0.049233
C6    C     C_R   0.654257 0.616305 0.004882 0.132854
C7    C     C_R   0.710534 0.623050 0.907937 -0.202819
C8    C     C_R   0.656690 0.550279 0.840997 -0.198899
C9    C     C_R   0.482176 0.535049 0.129651 0.379737
C10   C     C_R   0.657551 0.678186 0.171756 -0.295427
C11   C     C_R   0.483502 0.399418 0.801708 -0.111058
C12   C     C_3   0.121593 0.500248 0.503753 0.024399
C13   C     C_R   0.310094 0.086504 0.354064 -0.299725
C14   C     C_R   0.647055 0.796229 0.634524 0.048664
C15   C     C_R   0.664649 0.894686 0.673127 -0.270905
C16   C     C_R   0.516344 0.561032 0.308972 0.961342
C17   C     C_R   0.602735 0.974787 0.626283 -0.112798
C18   C     C_R   0.528368 0.959072 0.536412 0.040566
C19   C     C_R   0.505851 0.854166 0.505354 0.211876
C20   C     C_R   0.470129 0.040389 0.479776 -0.037534
C21   C     C_R   0.376572 0.010257 0.404331 0.107456
C22   C     C_R   0.351845 0.904779 0.378626 -0.237430
C23   C     C_3   0.068475 0.494441 0.392244 0.046589
C24   C     C_R   0.418716 0.828975 0.426274 -0.179201
C25   C     C_R   0.502152 0.151128 0.493359 0.495845
C26   C     C_R   0.338285 0.192503 0.377379 -0.058706
C27   C     C_R   0.258241 0.499110 0.502438 0.920929
C28   C     C_3   0.904719 0.402489 0.579353 -0.400644
C29   C     C_3   0.048132 0.399023 0.575813 -0.440027
C30   C     C_3   0.923301 0.492683 0.392808 -0.417728
C31   C     C_3   0.955094 0.608052 0.537868 -0.408117
C32   C     C_3   0.878498 0.500740 0.503054 0.087571
C33   C     C_3   0.097873 0.606223 0.543457 0.141376
C34   C     C_R   0.707622 0.690549 0.072097 -0.178055
C35   C     C_R   0.547385 0.597741 0.200939 -0.065465
C36   C     C_R   0.398975 0.301040 0.838810 -0.182455
C37   C     C_R   0.373874 0.273034 0.944242 -0.143749
C38   C     C_R   0.423918 0.347012 0.011702 -0.188071
H1    H     H_    0.847254 0.324264 0.558987 0.228241
H2    H     H_    0.876314 0.409852 0.659285 0.181879
H3    H     H_    0.703099 0.557462 0.766514 0.142653
H4    H     H_    0.286575 0.252181 0.340339 0.175013
H5    H     H_    0.282368 0.881336 0.319835 0.187394
H6    H     H_    0.236956 0.064229 0.297587 0.161335
H7    H     H_    0.693217 0.732774 0.671100 0.129475
H8    H     H_    0.609916 0.045086 0.665593 0.192223
H9    H     H_    0.723061 0.907778 0.740736 0.154367
H10   H     H_    0.398596 0.750371 0.401197 0.232923
H11   H     H_    0.087850 0.395873 0.655185 0.216821
H12   H     H_    0.150894 0.680062 0.493550 0.171127
H13   H     H_    0.058700 0.322653 0.546659 0.185305
H14   H     H_    0.870190 0.415558 0.366810 0.186482
H15   H     H_    0.082891 0.417760 0.365821 0.165194
H16   H     H_    0.941513 0.679507 0.481866 0.177308
H17   H     H_    0.918240 0.618663 0.614250 0.203473
H18   H     H_    0.308384 0.479193 0.087979 0.352233
H19   H     H_    0.588568 0.242469 0.588238 0.362547
H20   H     H_    0.900666 0.561150 0.337532 0.199408
H21   H     H_    0.707818 0.727734 0.227129 0.178504
H22   H     H_    0.794848 0.685614 0.883196 0.149799
H23   H     H_    0.792564 0.753375 0.049888 0.157921
H24   H     H_    0.350229 0.247182 0.786258 0.157288
H25   H     H_    0.401899 0.322459 0.093081 0.186548
H26   H     H_    0.311200 0.195964 0.973288 0.150078
N1    N     N_R   0.433240 0.222190 0.444680 -0.142925
N2    N     N_R   0.566070 0.776970 0.554790 -0.128372
O1    O     O_R   0.468120 0.366740 0.627160 -0.653225
O2    O     O_3   0.610584 0.190006 0.546187 -0.813801
O3    O     O_R   0.510770 0.544830 0.662520 -0.589041
O4    O     O_R   0.663880 0.410950 0.482330 -0.606761
O5    O     O_R   0.706530 0.589040 0.517700 -0.644776
O6    O     O_R   0.489230 0.455170 0.337480 -0.574419
O7    O     O_R   0.531880 0.633260 0.372840 -0.648938
O8    O     O_R   0.293470 0.410960 0.482300 -0.628641
O9    O     O_R   0.336120 0.589050 0.517670 -0.599666
O10   O     O_3   0.357185 0.480190 0.153294 -0.758918
Zn1   Zn    Zn3+2 0.471520 0.381090 0.476390 0.956007
Zn2   Zn    Zn3+2 0.528480 0.618910 0.523610 0.953833

loop_
_geom_bond_atom_site_label_1
_geom_bond_atom_site_label_2
_ccdc_geom_bond_type
Br2   C33   S    
N2    Zn2   S    
C19   C24   A    
C16   O7    A    
C17   C18   A    
O8    Zn1   S    
C12   C29   S    
C5    C6    A    
C27   O8    A    
C4    O4    A    
C22   H5    S    
C1    O1    A    
C16   C35   S    
C22   C24   A    
O4    Zn1   S    
C24   H10   S    
C28   C29   S    
C6    C34   A    
C10   C35   A    
C9    C35   A    
C31   C33   S    
C2    C38   A    
C14   C15   A    
C21   C22   A    
C28   H1    S    
C14   N2    A    
C10   C34   A    
C34   H23   S    
O7    Zn2   S    
C3    C11   A    
C1    C11   S    
C31   H16   S    
C13   C21   A    
C16   O6    A    
Br1   C23   S    
C2    C5    A    
C14   H7    S    
C30   H14   S    
O3    Zn2   S    
C5    C9    A    
C36   H24   S    
C28   C32   S    
C7    H22   S    
C26   N1    A    
N1    Zn1   S    
C15   H9    S    
C12   C33   S    
C17   H8    S    
C6    C7    A    
C26   H4    S    
C4    C32   S    
C30   C32   S    
C1    O3    A    
C9    O10   S    
C31   C32   S    
C29   H13   S    
C11   C36   A    
C25   O2    S    
C18   C20   A    
O6    Zn1   S    
C19   N2    A    
C20   C25   A    
C37   H26   S    
O1    Zn1   S    
C30   H20   S    
C12   C27   S    
C37   C38   A    
C4    O5    A    
C7    C8    A    
O9    Zn2   S    
C31   H17   S    
C8    H3    S    
C23   H15   S    
C29   H11   S    
C2    C3    A    
C38   H25   S    
C3    C8    A    
C10   H21   S    
C13   C26   A    
C36   C37   A    
C23   C30   S    
C15   C17   A    
O5    Zn2   S    
C12   C23   S    
C25   N1    A    
H18   O10   S    
H19   O2    S    
C27   O9    A    
C18   C19   A    
C33   H12   S    
C20   C21   A    
C28   H2    S    
C13   H6    S    
