data_mof_unit_31250.cif
_audit_creation_date              2012-12-10T18:38:09-0500
_audit_creation_method            fapswitch 2.2
_symmetry_space_group_name_H-M    P1
_symmetry_Int_Tables_number       1
_space_group_crystal_system       triclinic
_cell_length_a                    15.088959
_cell_length_b                    15.43921
_cell_length_c                    27.697263
_cell_angle_alpha                 91.434475
_cell_angle_beta                  106.889947
_cell_angle_gamma                 81.081519
_cell_volume                      6098.06050447

loop_
_atom_site_label
_atom_site_type_symbol
_atom_type_description
_atom_site_fract_x
_atom_site_fract_y
_atom_site_fract_z
_atom_type_partial_charge
C1    C     C_R   0.440246 0.662886 0.491430 0.958054
C2    C     C_R   0.410378 0.530941 0.112985 -0.150623
C3    C     C_R   0.508245 0.499690 0.647111 -0.055300
C4    C     C_R   0.491651 0.500426 0.352884 -0.062662
C5    C     C_R   0.415150 0.523099 0.011375 0.019875
C6    C     C_R   0.587706 0.486440 0.989181 0.018964
C7    C     C_R   0.584897 0.478892 0.039668 0.014871
C8    C     C_R   0.416625 0.512817 0.960568 0.015724
C9    C     C_R   0.498904 0.501579 0.050936 0.103746
C10   C     C_R   0.503232 0.499061 0.949453 0.103387
C11   C     C_R   0.332603 0.557280 0.023475 -0.246251
C12   C     C_R   0.559687 0.337424 0.510003 0.927502
C13   C     C_R   0.672700 0.484523 0.977657 -0.251461
C14   C     C_R   0.328959 0.563487 0.073143 0.459664
C15   C     C_R   0.676952 0.487503 0.928155 0.460617
C16   C     C_R   0.502671 0.500156 0.593966 0.898038
C17   C     C_R   0.497352 0.499748 0.406039 0.898529
C18   C     C_R   0.333786 0.513012 0.920838 -0.238818
C19   C     C_R   0.665379 0.446649 0.078829 -0.246746
C20   C     C_R   0.401516 0.757221 0.490232 -0.238550
C21   C     C_R   0.597313 0.243902 0.523505 -0.257423
C22   C     C_R   0.275246 0.877447 0.489186 0.352962
C23   C     C_R   0.505318 0.498124 0.898566 -0.135049
C24   C     C_R   0.717057 0.118168 0.558058 0.374887
C25   C     C_R   0.304227 0.790490 0.476871 0.344699
C26   C     C_R   0.692047 0.209952 0.549595 0.229733
C27   C     C_R   0.465742 0.814452 0.508775 -0.257375
C28   C     C_R   0.531316 0.186983 0.511510 -0.245505
C29   C     C_R   0.437308 0.903192 0.514803 0.021317
C30   C     C_R   0.551061 0.101975 0.531275 0.025955
C31   C     C_R   0.340421 0.937377 0.499083 -0.153275
C32   C     C_R   0.645601 0.067084 0.556440 -0.142056
C33   C     C_R   0.504951 0.958935 0.533167 0.060191
C34   C     C_R   0.496611 0.502656 0.101794 -0.136402
C35   C     C_R   0.479056 0.049372 0.523693 0.060299
C36   C     C_R   0.382628 0.083661 0.505688 -0.260393
C37   C     C_R   0.596572 0.927124 0.563237 -0.287280
C38   C     C_R   0.313562 0.029492 0.492328 0.429235
C39   C     C_R   0.664380 0.982002 0.578276 0.378407
C40   C     C_R   0.424638 0.511103 0.808879 0.624047
C41   C     C_R   0.575902 0.482143 0.191360 0.619340
C42   C     C_R   0.866801 0.593924 0.593220 0.253783
C43   C     C_R   0.133675 0.405335 0.406806 0.242070
C44   C     C_R   0.769260 0.590791 0.575197 0.413728
C45   C     C_R   0.419767 0.505623 0.858717 -0.147480
C46   C     C_R   0.231211 0.408373 0.424982 0.363646
C47   C     C_R   0.789741 0.519402 0.500685 -0.057542
C48   C     C_R   0.210197 0.480251 0.499316 -0.065525
C49   C     C_R   0.886276 0.529309 0.516232 -0.025203
C50   C     C_R   0.113686 0.470395 0.483627 -0.033751
C51   C     C_R   0.919119 0.578041 0.559435 -0.059254
C52   C     C_R   0.080970 0.421664 0.440407 -0.075774
C53   C     C_R   0.953005 0.489610 0.492219 0.132404
C54   C     C_R   0.046891 0.510217 0.507551 0.130966
C55   C     C_R   0.069186 0.573663 0.544177 -0.161801
C56   C     C_R   0.580568 0.475612 0.141300 -0.138371
C57   C     C_R   0.930668 0.426333 0.455500 -0.163005
C58   C     C_R   0.006393 0.606526 0.569858 -0.044376
C59   C     C_R   0.993545 0.393422 0.429855 -0.029841
C60   C     C_R   0.591824 0.484257 0.836637 0.632275
C61   C     C_R   0.409945 0.524832 0.163614 0.636705
C62   C     C_R   0.501757 0.423070 0.720452 -0.107336
C63   C     C_R   0.498325 0.577498 0.279735 -0.109682
C64   C     C_R   0.500069 0.422913 0.670027 -0.173000
C65   C     C_R   0.500030 0.577307 0.330145 -0.169066
C66   C     C_R   0.516431 0.576926 0.674323 -0.210698
C67   C     C_R   0.333727 0.507802 0.870580 0.451925
C68   C     C_R   0.482925 0.423415 0.325461 -0.216494
C69   C     C_R   0.518259 0.577931 0.724964 0.418750
C70   C     C_R   0.481011 0.422823 0.274783 0.425374
C71   C     C_R   0.510846 0.500078 0.748029 0.156787
C72   C     C_R   0.489183 0.500689 0.252007 0.155822
C73   C     C_R   0.664706 0.443051 0.128898 0.453039
C74   C     C_R   0.592904 0.489678 0.887679 -0.142381
H1    H     H_    0.519269 0.636505 0.655724 0.187546
H2    H     H_    0.495239 0.363580 0.738168 0.177352
H3    H     H_    0.270496 0.584019 0.994231 0.204635
H4    H     H_    0.737031 0.485285 0.007401 0.203163
H5    H     H_    0.267939 0.512795 0.928654 0.216600
H6    H     H_    0.729346 0.419388 0.070557 0.216508
H7    H     H_    0.772996 0.300334 0.497431 0.348380
H8    H     H_    0.221147 0.624878 0.386262 0.399103
H9    H     H_    0.112815 0.815379 0.552788 0.399758
H10   H     H_    0.918610 0.097802 0.508016 0.424345
H11   H     H_    0.027487 0.653735 0.598867 0.212259
H12   H     H_    0.479565 0.363780 0.343936 0.188212
H13   H     H_    0.972449 0.346236 0.400839 0.217406
H14   H     H_    0.240350 0.513819 0.533259 0.176392
H15   H     H_    0.759508 0.485674 0.466822 0.159359
H16   H     H_    0.421878 0.262934 0.389264 0.375280
H17   H     H_    0.577820 0.731423 0.613041 0.367503
H18   H     H_    0.918186 0.573530 0.732800 0.405328
H19   H     H_    0.084997 0.422167 0.267337 0.408497
H20   H     H_    0.457126 0.772697 0.698760 0.360934
H21   H     H_    0.520991 0.223992 0.299709 0.358596
H22   H     H_    0.086700 0.476338 0.826767 0.406923
H23   H     H_    0.462743 0.210712 0.487051 0.223311
H24   H     H_    0.902173 0.316684 0.169790 0.412877
H25   H     H_    0.507983 0.636866 0.351456 0.169416
H26   H     H_    0.492384 0.363171 0.648867 0.162595
H27   H     H_    0.111081 0.579036 0.107586 0.408901
H28   H     H_    0.888376 0.409969 0.890875 0.407163
H29   H     H_    0.199911 0.219806 0.450390 0.340582
H30   H     H_    0.671266 0.932825 0.680060 0.362263
H31   H     H_    0.539453 0.790413 0.515436 0.224519
H32   H     H_    0.358780 0.153307 0.501961 0.162960
H33   H     H_    0.613824 0.861269 0.579032 0.204659
H34   H     H_    0.134920 0.598649 0.554085 0.179096
H35   H     H_    0.864848 0.401503 0.445508 0.155695
H36   H     H_    0.505195 0.637029 0.262195 0.178731
N1    N     N_R   0.509168 0.498890 0.799321 -0.361851
N2    N     N_R   0.491584 0.502062 0.200840 -0.362231
N3    N     N_R   0.731710 0.552720 0.528410 -0.162003
N4    N     N_R   0.268290 0.447280 0.471590 -0.172998
O1    O     O_R   0.383110 0.605620 0.485680 -0.562491
O2    O     O_2   0.654080 0.470218 0.230783 -0.442068
O3    O     O_2   0.329310 0.539183 0.176245 -0.416461
O4    O     O_2   0.671609 0.463286 0.823568 -0.426490
O5    O     O_2   0.737659 0.352353 0.603641 -0.240533
O6    O     O_2   0.863237 0.229388 0.612039 -0.138832
O7    O     O_3   0.810485 0.322837 0.529428 -0.504973
O8    O     O_2   0.190030 0.671362 0.471993 -0.294210
O9    O     O_2   0.133319 0.792483 0.410032 -0.171519
O10   O     O_3   0.262030 0.670422 0.397146 -0.532578
O11   O     O_2   0.194080 0.964286 0.554890 -0.239033
O12   O     O_R   0.616890 0.394380 0.514320 -0.576285
O13   O     O_2   0.088551 0.924459 0.474634 -0.154245
O14   O     O_3   0.170782 0.802247 0.542265 -0.525509
O15   O     O_2   0.901509 0.053301 0.598110 -0.136826
O16   O     O_2   0.813036 0.978903 0.524808 -0.259241
O17   O     O_3   0.857440 0.129102 0.510175 -0.521122
O18   O     O_2   0.250033 0.286452 0.355562 -0.178813
O19   O     O_2   0.299343 0.426163 0.346788 -0.219794
O20   O     O_3   0.408280 0.311032 0.411646 -0.587312
O21   O     O_2   0.702644 0.571220 0.653753 -0.196468
O22   O     O_2   0.750910 0.711572 0.644885 -0.187332
O23   O     O_R   0.531900 0.639510 0.503910 -0.575545
O24   O     O_3   0.592566 0.686172 0.589366 -0.601839
O25   O     O_2   0.026895 0.547304 0.669198 -0.240325
O26   O     O_2   0.941539 0.694573 0.671200 -0.186209
O27   O     O_3   0.879399 0.561610 0.698479 -0.415373
O28   O     O_2   0.059282 0.303879 0.329222 -0.194996
O29   O     O_2   0.974294 0.451579 0.330373 -0.244908
O30   O     O_3   0.122467 0.435913 0.301615 -0.430360
O31   O     O_2   0.451830 0.697280 0.783118 -0.257814
O32   O     O_2   0.621568 0.666409 0.798524 -0.159000
O33   O     O_3   0.523547 0.760593 0.719458 -0.494844
O34   O     O_R   0.468100 0.360490 0.496090 -0.568951
O35   O     O_2   0.384939 0.339692 0.195538 -0.181485
O36   O     O_2   0.554933 0.296632 0.223378 -0.246950
O37   O     O_3   0.457169 0.244048 0.277141 -0.478765
O38   O     O_2   0.186655 0.582581 0.795586 -0.173639
O39   O     O_2   0.237089 0.424252 0.790588 -0.212757
O40   O     O_3   0.145496 0.477402 0.854366 -0.530451
O41   O     O_2   0.816593 0.459099 0.206504 -0.197057
O42   O     O_2   0.748342 0.323930 0.204151 -0.174403
O43   O     O_3   0.845212 0.340599 0.142606 -0.529388
O44   O     O_2   0.242495 0.685926 0.122122 -0.219192
O45   O     O_R   0.425620 0.483050 0.562130 -0.648662
O46   O     O_2   0.158720 0.662711 0.034171 -0.242078
O47   O     O_3   0.166333 0.544029 0.100268 -0.444268
O48   O     O_2   0.780288 0.568514 0.884251 -0.175666
O49   O     O_2   0.857899 0.510747 0.969917 -0.251706
O50   O     O_3   0.829922 0.399458 0.897640 -0.464455
O51   O     O_2   0.158445 0.018991 0.414939 -0.168852
O52   O     O_2   0.136927 0.103257 0.488050 -0.230245
O53   O     O_3   0.209575 0.171905 0.427109 -0.485351
O54   O     O_2   0.836011 0.890044 0.617957 -0.140404
O55   O     O_2   0.796814 0.026515 0.660079 -0.220440
O56   O     O_R   0.574380 0.516950 0.437870 -0.651625
O57   O     O_3   0.722184 0.891771 0.672089 -0.442052
O58   O     O_R   0.574410 0.516930 0.580360 -0.505075
O59   O     O_R   0.425590 0.483070 0.419640 -0.517981
O60   O     O_2   0.346596 0.530760 0.769871 -0.431790
S1    S     S_3+6 0.777815 0.279438 0.575521 0.136934
S2    S     S_3+6 0.469647 0.324545 0.240918 0.109158
S3    S     S_3+6 0.224202 0.498138 0.825532 0.121093
S4    S     S_3+6 0.770190 0.391199 0.172768 0.125702
S5    S     S_3+6 0.221987 0.618005 0.082208 0.124534
S6    S     S_3+6 0.788961 0.494473 0.920387 0.128055
S7    S     S_3+6 0.200719 0.079710 0.455374 0.116793
S8    S     S_3+6 0.759262 0.948603 0.632700 0.142281
S9    S     S_3+6 0.218350 0.730690 0.438871 0.109722
S10   S     S_3+6 0.178854 0.895750 0.515054 0.138810
S11   S     S_3+6 0.825115 0.066334 0.548875 0.139950
S12   S     S_3+6 0.298078 0.358253 0.384346 0.111144
S13   S     S_3+6 0.703012 0.639649 0.616256 0.112082
S14   S     S_3+6 0.930806 0.600583 0.659134 0.146926
S15   S     S_3+6 0.070273 0.397940 0.340890 0.129747
S16   S     S_3+6 0.528845 0.676747 0.758364 0.110814
Zn1   Zn    Zn3+2 0.400660 0.477380 0.487830 1.054745
Zn2   Zn    Zn3+2 0.599340 0.522620 0.512170 1.069215

loop_
_geom_bond_atom_site_label_1
_geom_bond_atom_site_label_2
_ccdc_geom_bond_type
C28   H23   S    
O36   S2    D    
C21   C26   A    
C63   C65   A    
C34   C56   A    
C23   C45   A    
O15   S11   D    
O31   S16   D    
C27   C29   A    
C68   H12   S    
O20   S12   S    
O57   S8    S    
C35   C36   A    
O14   S10   S    
H9    O14   S    
C72   N2    S    
O16   S11   D    
C62   C71   A    
C47   C49   A    
O7    S1    S    
C3    C64   A    
O58   Zn2   S    
H29   O53   S    
C50   C54   A    
C38   S7    S    
C30   C35   A    
C24   C26   A    
C37   H33   S    
C41   C56   A    
C4    C65   A    
H16   O20   S    
C11   C14   A    
C43   C52   A    
C57   C59   A    
C66   C69   A    
C12   O12   A    
C20   C25   A    
C27   H31   S    
O33   S16   S    
H17   O24   S    
O56   Zn2   S    
C47   N3    A    
C32   C39   A    
O21   S13   D    
O38   S3    D    
C69   C71   A    
O9    S9    D    
C11   H3    S    
O5    S1    D    
C54   C55   A    
O42   S4    D    
H22   O40   S    
C29   C33   A    
C18   H5    S    
C49   C51   A    
C22   C25   A    
C71   N1    S    
C45   C67   A    
C22   S10   S    
C48   H14   S    
C60   O4    S    
O37   S2    S    
O47   S5    S    
O48   S6    D    
C14   S5    S    
O50   S6    S    
O41   S4    D    
C42   C51   A    
O1    Zn1   S    
C2    C34   A    
O34   Zn1   S    
C48   C50   A    
H27   O47   S    
C15   S6    S    
C16   O45   A    
O13   S10   D    
C47   H15   S    
C62   H2    S    
O52   S7    D    
C42   C44   A    
C56   C73   A    
H8    O10   S    
C17   O59   A    
C40   N1    A    
C40   C45   A    
C37   C39   A    
O39   S3    D    
C22   C31   A    
C46   N4    A    
C36   H32   S    
O26   S14   D    
O45   Zn1   S    
C19   C73   A    
C65   H25   S    
O10   S9    S    
C67   S3    S    
O18   S12   D    
C4    C68   A    
C53   C57   A    
C17   O56   A    
C18   C67   A    
C53   C54   A    
O28   S15   D    
C61   O3    S    
C12   C21   S    
O59   Zn1   S    
C33   C37   A    
H7    O7    S    
C24   S11   S    
O44   S5    D    
C24   C32   A    
O46   S5    D    
C5    C9    A    
C52   C59   A    
O23   Zn2   S    
C57   H35   S    
C16   O58   A    
O6    S1    D    
C50   C52   A    
H24   O43   S    
C8    C18   A    
O29   S15   D    
O27   S14   S    
C46   S12   S    
O12   Zn2   S    
H18   O27   S    
H19   O30   S    
O19   S12   D    
H30   O57   S    
C4    C17   S    
O17   S11   S    
C8    C10   A    
O8    S9    D    
C21   C28   A    
C44   N3    A    
C7    C19   A    
C13   C15   A    
O22   S13   D    
C9    C34   A    
O40   S3    S    
C3    C66   A    
C51   C58   A    
C73   S4    S    
C41   O2    S    
O25   S14   D    
C58   H11   S    
C1    O23   A    
C48   N4    A    
C42   S14   S    
H20   O33   S    
C7    C9    A    
N3    Zn2   S    
C13   H4    S    
C1    C20   S    
N4    Zn1   S    
C69   S16   S    
C6    C10   A    
C5    C8    A    
C2    C61   A    
C5    C11   A    
C6    C7    A    
C20   C27   A    
C10   C23   A    
C1    O1    A    
H10   O17   S    
O54   S8    D    
C31   C38   A    
C55   H34   S    
O35   S2    D    
O51   S7    D    
C12   O34   A    
C63   H36   S    
C28   C30   A    
C62   C64   A    
C29   C31   A    
C60   N1    A    
C6    C13   A    
C30   C32   A    
O53   S7    S    
C26   S1    S    
C49   C53   A    
C66   H1    S    
C60   C74   A    
C33   C35   A    
C41   N2    A    
O24   S13   S    
O43   S4    S    
C19   H6    S    
C2    C14   A    
C43   C46   A    
C59   H13   S    
O55   S8    D    
C39   S8    S    
C36   C38   A    
C44   S13   S    
C64   H26   S    
C15   C74   A    
H21   O37   S    
C63   C72   A    
C43   S15   S    
H28   O50   S    
C40   O60   S    
O30   S15   S    
C55   C58   A    
O49   S6    D    
C68   C70   A    
O32   S16   D    
C70   C72   A    
C23   C74   A    
C61   N2    A    
C70   S2    S    
C3    C16   S    
C25   S9    S    
O11   S10   D    
