data_mof_unit_17135.cif
_audit_creation_date              2012-12-10T19:47:16-0500
_audit_creation_method            fapswitch 2.2
_symmetry_space_group_name_H-M    P1
_symmetry_Int_Tables_number       1
_space_group_crystal_system       triclinic
_cell_length_a                    14.977168
_cell_length_b                    14.213421
_cell_length_c                    10.63972
_cell_angle_alpha                 90.604203
_cell_angle_beta                  90.704476
_cell_angle_gamma                 89.06144
_cell_volume                      2264.35323259

loop_
_atom_site_label
_atom_site_type_symbol
_atom_type_description
_atom_site_fract_x
_atom_site_fract_y
_atom_site_fract_z
_atom_type_partial_charge
C1    C     C_R   0.327233 0.500795 0.501799 0.867166
C2    C     C_R   0.671552 0.499146 0.500173 0.906722
C3    C     C_R   0.230034 0.501145 0.501325 -0.153519
C4    C     C_R   0.766559 0.495878 0.503992 -0.117655
C5    C     C_R   0.187816 0.418312 0.461700 -0.192531
C6    C     C_R   0.810675 0.471215 0.393564 -0.207296
C7    C     C_R   0.096144 0.412774 0.461693 -0.284659
C8    C     C_R   0.902625 0.465326 0.394001 -0.269323
C9    C     C_R   0.045418 0.490254 0.500254 0.025893
C10   C     C_R   0.949784 0.482026 0.505718 0.000909
C11   C     C_R   0.442780 0.104797 0.418795 0.299154
C12   C     C_R   0.558121 0.104401 0.580533 0.303086
C13   C     C_R   0.443920 0.204403 0.420734 -0.024197
C14   C     C_R   0.557883 0.203939 0.576773 -0.032706
C15   C     C_R   0.499964 0.052847 0.500728 -0.116526
C16   C     C_R   0.580287 0.893193 0.504320 -0.245952
C17   C     C_R   0.419798 0.895770 0.495949 -0.238230
C18   C     C_R   0.578790 0.794353 0.505975 -0.003746
C19   C     C_R   0.421601 0.796953 0.490944 -0.006127
C20   C     C_R   0.499964 0.946214 0.501548 0.167093
C21   C     C_R   0.496984 0.499639 0.260532 0.869978
C22   C     C_R   0.496871 0.500478 0.739655 0.876201
C23   C     C_R   0.351121 0.596313 0.131296 -0.173656
C24   C     C_R   0.352118 0.599160 0.869544 -0.173708
C25   C     C_R   0.284282 0.645230 0.065878 -0.153455
C26   C     C_R   0.284844 0.646783 0.935290 -0.141029
C27   C     C_R   0.421507 0.550779 0.934435 0.085046
C28   C     C_R   0.421034 0.549447 0.066170 0.101665
C29   C     C_R   0.489761 0.498726 0.128500 -0.089409
C30   C     C_R   0.490510 0.500902 0.872070 -0.097050
C31   C     C_R   0.554445 0.446740 0.064617 -0.214979
C32   C     C_R   0.554714 0.447787 0.936416 -0.186089
C33   C     C_R   0.085422 0.575500 0.534931 0.497288
C34   C     C_R   0.905473 0.499692 0.619662 0.512956
C35   C     C_R   0.178216 0.580160 0.540462 -0.138485
C36   C     C_R   0.812949 0.510308 0.617818 -0.149994
H1    H     H_    0.606277 0.407434 0.114388 0.149669
H2    H     H_    0.606637 0.409040 0.887271 0.171645
H3    H     H_    0.644228 0.927489 0.503728 0.184331
H4    H     H_    0.355766 0.932074 0.494620 0.189559
H5    H     H_    0.641284 0.755410 0.510135 0.144922
H6    H     H_    0.360101 0.759842 0.478306 0.148783
H7    H     H_    0.346385 0.594449 0.232526 0.148745
H8    H     H_    0.348378 0.599294 0.768236 0.159695
H9    H     H_    0.231220 0.680932 0.116606 0.136777
H10   H     H_    0.231917 0.683545 0.885031 0.163166
H11   H     H_    0.225581 0.356638 0.432343 0.189154
H12   H     H_    0.773865 0.458734 0.306758 0.145694
H13   H     H_    0.064664 0.347528 0.433922 0.166254
H14   H     H_    0.937205 0.451138 0.306775 0.161323
N1    N     N_R   0.500000 0.252470 0.500000 -0.177041
N2    N     N_R   0.500000 0.747550 0.500000 -0.089966
O1    O     O_R   0.369060 0.579480 0.500010 -0.642025
O2    O     O_R   0.630940 0.579480 0.499990 -0.627695
O3    O     O_R   0.369050 0.420520 0.500010 -0.617241
O4    O     O_R   0.630950 0.420520 0.499990 -0.613881
O5    O     O_R   0.500000 0.579490 0.316770 -0.619605
O6    O     O_R   0.500000 0.579490 0.683230 -0.609305
O7    O     O_R   0.499990 0.420540 0.316770 -0.618311
O8    O     O_R   0.500010 0.420540 0.683230 -0.620888
Zn1   Zn    Zn3+2 0.500000 0.606140 0.500000 0.951647
Zn2   Zn    Zn3+2 0.500000 0.393860 0.500000 0.951476
O9    O     O_3   0.033643 0.651384 0.575385 -0.618094
C37   C     C_3   0.002762 0.702660 0.469976 0.055864
H15   H     H_    0.979998 0.656011 0.391291 0.133584
H16   H     H_    0.057237 0.747734 0.435676 0.141713
C38   C     C_3   0.923690 0.764945 0.509773 -0.282753
H17   H     H_    0.870671 0.720165 0.548621 0.230578
H18   H     H_    0.945715 0.814918 0.584546 0.229331
C39   C     C_3   0.884883 0.820326 0.399246 -0.978852
H19   H     H_    0.936362 0.866474 0.359531 0.267643
H20   H     H_    0.827946 0.864921 0.431722 0.264249
H21   H     H_    0.860302 0.771514 0.324784 0.270068
O10   O     O_3   0.953226 0.513871 0.730293 -0.591485
C40   C     C_3   0.972508 0.425353 0.784340 0.088562
H22   H     H_    0.003476 0.375122 0.715675 0.126639
H23   H     H_    0.909973 0.394147 0.819581 0.106140
C41   C     C_3   0.036992 0.437476 0.895624 -0.340406
H24   H     H_    0.007802 0.488017 0.964834 0.223786
H25   H     H_    0.046636 0.368555 0.942709 0.168863
C42   C     C_3   0.127771 0.472522 0.854102 -0.769944
H26   H     H_    0.157136 0.424189 0.782422 0.244848
H27   H     H_    0.173886 0.475499 0.936486 0.239829
H28   H     H_    0.120882 0.544181 0.814238 0.287390
C43   C     C_1   0.216328 0.664233 0.594718 0.193726
N3    N     N_1   0.244612 0.732122 0.639714 -0.241169
C44   C     C_1   0.766778 0.535965 0.732153 0.203826
N4    N     N_1   0.730083 0.556813 0.823621 -0.209996
O11   O     O_3   0.380120 0.059770 0.343842 -0.650113
C45   C     C_3   0.419840 0.028914 0.230733 0.081650
H29   H     H_    0.478895 0.982181 0.249198 0.155348
H30   H     H_    0.440939 0.090268 0.174654 0.132801
C46   C     C_3   0.350459 0.973552 0.155026 -0.308843
H31   H     H_    0.324650 0.915949 0.213731 0.225523
H32   H     H_    0.293584 0.021191 0.129720 0.225256
C47   C     C_3   0.389430 0.930731 0.035268 -0.962586
H33   H     H_    0.417531 0.986461 0.975734 0.261153
H34   H     H_    0.336040 0.894521 0.981017 0.274020
H35   H     H_    0.442297 0.878030 0.059234 0.272500
O12   O     O_3   0.620279 0.058376 0.656117 -0.649969
C48   C     C_3   0.583451 0.043380 0.775610 0.080503
H36   H     H_    0.535516 0.984402 0.769976 0.161370
H37   H     H_    0.548419 0.107582 0.812818 0.124311
C49   C     C_3   0.659532 0.017694 0.866676 -0.296644
H38   H     H_    0.697209 0.955613 0.829371 0.231809
H39   H     H_    0.706011 0.077725 0.874546 0.224420
C50   C     C_3   0.625184 0.994909 0.996999 -0.991998
H40   H     H_    0.583918 0.054234 0.034466 0.258655
H41   H     H_    0.682572 0.982504 0.062111 0.270908
H42   H     H_    0.584987 0.930116 0.992431 0.275125
C51   C     C_1   0.387576 0.255293 0.333385 0.302637
N5    N     N_1   0.342610 0.295329 0.261903 -0.237886
C52   C     C_1   0.621858 0.254134 0.652851 0.320850
N6    N     N_1   0.674053 0.293378 0.713956 -0.254457

loop_
_geom_bond_atom_site_label_1
_geom_bond_atom_site_label_2
_ccdc_geom_bond_type
C44   N4    T    
C4    C36   A    
C46   H31   S    
C8    H14   S    
C11   C13   A    
C51   N5    T    
C24   C27   A    
C49   H39   S    
C42   H26   S    
C18   N2    A    
C43   N3    T    
C5    H11   S    
C48   H36   S    
C6    H12   S    
C28   C29   A    
C24   C26   A    
C21   O7    A    
N2    Zn1   S    
C22   O8    A    
C41   H25   S    
C47   H35   S    
C17   C20   A    
C23   H7    S    
O8    Zn2   S    
C1    O1    A    
C33   C35   A    
C13   N1    A    
C11   C15   A    
C19   N2    A    
C14   N1    A    
C47   H34   S    
C50   H40   S    
C39   H19   S    
C32   H2    S    
C9    C10   S    
C19   H6    S    
C16   C20   A    
O6    Zn1   S    
C46   H32   S    
C27   C30   A    
C9    C33   A    
C50   H41   S    
N1    Zn2   S    
O1    Zn1   S    
C49   H38   S    
C42   H27   S    
C36   C44   S    
C15   C20   S    
O10   C40   S    
C38   H17   S    
C37   C38   S    
C7    H13   S    
C4    C6    A    
C2    O2    A    
C18   H5    S    
C5    C7    A    
C41   H24   S    
C6    C8    A    
C25   C26   A    
C21   C29   S    
C31   H1    S    
C1    C3    S    
C17   H4    S    
C37   H16   S    
C2    C4    S    
C40   H22   S    
C21   O5    A    
C11   O11   S    
C45   H30   S    
C31   C32   A    
C12   C15   A    
C3    C35   A    
C33   O9    S    
C47   H33   S    
C39   H21   S    
C10   C34   A    
C23   C28   A    
C40   H23   S    
C34   O10   S    
C16   C18   A    
C12   C14   A    
C48   C49   S    
C24   H8    S    
C50   H42   S    
O4    Zn2   S    
C25   H9    S    
C42   H28   S    
C45   C46   S    
C52   N6    T    
C48   H37   S    
C7    C9    A    
O7    Zn2   S    
C22   C30   S    
C3    C5    A    
C22   O6    A    
O5    Zn1   S    
O2    Zn1   S    
C46   C47   S    
C14   C52   S    
C38   C39   S    
C37   H15   S    
C1    O3    A    
C29   C31   A    
C2    O4    A    
C30   C32   A    
C35   C43   S    
C41   C42   S    
C45   H29   S    
C13   C51   S    
O12   C48   S    
C17   C19   A    
C34   C36   A    
C23   C25   A    
C40   C41   S    
C12   O12   S    
C26   H10   S    
C16   H3    S    
O9    C37   S    
O3    Zn2   S    
C8    C10   A    
C27   C28   A    
C39   H20   S    
C38   H18   S    
O11   C45   S    
C49   C50   S    
