data_mof_unit_27475.cif
_audit_creation_date              2012-12-10T18:34:35-0500
_audit_creation_method            fapswitch 2.2
_symmetry_space_group_name_H-M    P1
_symmetry_Int_Tables_number       1
_space_group_crystal_system       triclinic
_cell_length_a                    15.023552
_cell_length_b                    14.997617
_cell_length_c                    15.746597
_cell_angle_alpha                 90.052308
_cell_angle_beta                  104.7169
_cell_angle_gamma                 82.323191
_cell_volume                      3398.80933146

loop_
_atom_site_label
_atom_site_type_symbol
_atom_type_description
_atom_site_fract_x
_atom_site_fract_y
_atom_site_fract_z
_atom_type_partial_charge
C1    C     C_R   0.442025 0.663757 0.490894 0.881718
C2    C     C_R   0.551808 0.102750 0.594263 0.054419
C3    C     C_R   0.344826 0.932924 0.551459 0.106583
C4    C     C_R   0.646939 0.071226 0.633597 0.097643
C5    C     C_R   0.508212 0.956459 0.609119 -0.017002
C6    C     C_R   0.481824 0.049269 0.597120 -0.005613
C7    C     C_R   0.386269 0.084835 0.583835 -0.109349
C8    C     C_R   0.601206 0.922837 0.655079 -0.087977
C9    C     C_R   0.317291 0.026901 0.558285 -0.063248
C10   C     C_R   0.671707 0.979214 0.663134 -0.040606
C11   C     C_R   0.840356 0.644942 0.625867 -0.241637
C12   C     C_R   0.558072 0.336185 0.515273 0.870293
C13   C     C_R   0.160132 0.353791 0.375765 -0.238103
C14   C     C_R   0.752183 0.619572 0.605661 0.048208
C15   C     C_R   0.248024 0.379684 0.395117 0.077947
C16   C     C_R   0.501176 0.500342 0.662017 0.888325
C17   C     C_R   0.498873 0.499512 0.337954 0.904796
C18   C     C_R   0.794577 0.507941 0.510862 -0.038535
C19   C     C_R   0.205568 0.491986 0.489375 -0.021785
C20   C     C_R   0.885794 0.530087 0.528753 0.001909
C21   C     C_R   0.114721 0.469058 0.472522 0.003957
C22   C     C_R   0.907497 0.600548 0.587438 0.137331
C23   C     C_R   0.281026 0.869097 0.525344 0.015037
C24   C     C_R   0.093145 0.398172 0.414337 0.160493
C25   C     C_R   0.955212 0.485595 0.490477 0.078956
C26   C     C_R   0.045477 0.513261 0.511201 0.076725
C27   C     C_R   0.063477 0.584033 0.569821 -0.201586
C28   C     C_R   0.937396 0.414395 0.432364 -0.201031
C29   C     C_R   0.995713 0.626464 0.607173 -0.157064
C30   C     C_R   0.005177 0.371794 0.395186 -0.162059
C31   C     C_3   0.472855 0.581165 0.022394 0.475064
C32   C     C_3   0.527718 0.416238 0.977388 0.479506
C33   C     C_3   0.560102 0.554884 0.987834 -0.355609
C34   C     C_R   0.712427 0.133857 0.640184 0.013878
C35   C     C_3   0.440467 0.442514 0.012016 -0.358003
C36   C     C_1   0.503440 0.501218 0.751309 -0.107963
C37   C     C_1   0.496888 0.497763 0.248644 -0.111414
C38   C     C_3   0.414875 0.527817 0.950724 -0.133196
C39   C     C_3   0.585713 0.469581 0.049115 -0.132478
C40   C     C_3   0.501477 0.500593 0.916802 -0.020436
C41   C     C_3   0.499097 0.496858 0.083083 -0.019903
C42   C     C_1   0.503452 0.501392 0.826487 0.142700
C43   C     C_1   0.497047 0.496751 0.173462 0.141303
C44   C     C_R   0.407021 0.757472 0.505478 -0.048730
C45   C     C_R   0.312676 0.783837 0.499484 -0.258277
C46   C     C_R   0.592852 0.242495 0.546611 -0.059208
C47   C     C_2   0.682245 0.436325 0.102349 0.540872
C48   C     C_2   0.318346 0.561057 0.897434 0.542426
C49   C     C_2   0.218766 0.067795 0.527243 0.568031
C50   C     C_2   0.770180 0.937420 0.687521 0.536728
C51   C     C_2   0.184485 0.881628 0.534613 0.447177
C52   C     C_2   0.805836 0.122637 0.702239 0.456338
C53   C     C_2   0.361582 0.180125 0.607030 0.371957
C54   C     C_2   0.619234 0.833309 0.703162 0.353894
C55   C     C_R   0.684727 0.217472 0.594822 -0.248072
C56   C     C_R   0.470232 0.815963 0.540721 -0.250479
C57   C     C_R   0.528618 0.183434 0.544130 -0.236008
C58   C     C_R   0.441375 0.900502 0.570265 0.048747
H1    H     H_    0.608332 0.601124 0.976973 0.204296
H2    H     H_    0.871589 0.389267 0.414029 0.159649
H3    H     H_    0.459025 0.201309 0.502632 0.178973
H4    H     H_    0.543042 0.795487 0.544508 0.171014
H5    H     H_    0.733811 0.265564 0.602019 0.155072
H6    H     H_    0.263876 0.735944 0.479291 0.149897
H7    H     H_    0.012558 0.680380 0.651856 0.174488
H8    H     H_    0.988481 0.317487 0.350959 0.169788
H9    H     H_    0.392685 0.822124 0.987199 0.396936
H10   H     H_    0.607785 0.175054 0.010666 0.397570
H11   H     H_    0.737184 0.419100 0.069472 0.084425
H12   H     H_    0.392222 0.396278 0.022841 0.200566
H13   H     H_    0.263366 0.578220 0.930272 0.083326
H14   H     H_    0.185616 0.108241 0.570751 0.117572
H15   H     H_    0.802009 0.908751 0.753150 0.141657
H16   H     H_    0.130903 0.852265 0.487758 0.082142
H17   H     H_    0.863156 0.147195 0.683493 0.080932
H18   H     H_    0.410801 0.210642 0.657498 0.132400
H19   H     H_    0.561091 0.801502 0.711533 0.108327
H20   H     H_    0.229302 0.544109 0.532798 0.130514
H21   H     H_    0.770625 0.456436 0.466742 0.139704
H22   H     H_    0.300796 0.345516 0.366335 0.133445
H23   H     H_    0.699296 0.653253 0.634447 0.171595
H24   H     H_    0.855833 0.698893 0.670801 0.192134
H25   H     H_    0.144775 0.299368 0.331403 0.163713
H26   H     H_    0.129505 0.608721 0.588648 0.157105
N1    N     N_R   0.731710 0.552730 0.549140 -0.112798
N2    N     N_R   0.268290 0.447270 0.450860 -0.103312
O1    O     O_R   0.383110 0.605620 0.475230 -0.615830
O2    O     O_2   0.512925 0.720798 0.125202 -0.268334
O3    O     O_3   0.413118 0.762713 0.965762 -0.531668
O4    O     O_2   0.487472 0.277412 0.873392 -0.291338
O5    O     O_2   0.649610 0.306841 0.912948 -0.305507
O6    O     O_3   0.587270 0.234197 0.032570 -0.528538
O7    O     O_2   0.699639 0.428413 0.182197 -0.562008
O8    O     O_2   0.301001 0.569033 0.817592 -0.560122
O9    O     O_2   0.174863 0.058411 0.451846 -0.569408
O10   O     O_2   0.816327 0.934771 0.633728 -0.569916
O11   O     O_2   0.165380 0.918841 0.597972 -0.559493
O12   O     O_R   0.616890 0.394380 0.524770 -0.614077
O13   O     O_2   0.818009 0.092305 0.776866 -0.549005
O14   O     O_2   0.289494 0.226428 0.568446 -0.578106
O15   O     O_2   0.697310 0.794368 0.734967 -0.613829
O16   O     O_R   0.531900 0.639510 0.506760 -0.616763
O17   O     O_R   0.468100 0.360490 0.493240 -0.612380
O18   O     O_R   0.425620 0.483070 0.607460 -0.589225
O19   O     O_R   0.574380 0.516930 0.392540 -0.587426
O20   O     O_R   0.574400 0.516960 0.638990 -0.617846
O21   O     O_R   0.425600 0.483040 0.361010 -0.617966
O22   O     O_2   0.350823 0.691171 0.086033 -0.311179
S1    S     S_3+6 0.436542 0.691615 0.053508 0.032539
S2    S     S_3+6 0.563896 0.306055 0.945417 0.028326
Zn1   Zn    Zn3+2 0.400660 0.477370 0.478940 0.978122
Zn2   Zn    Zn3+2 0.599340 0.522630 0.521060 0.972258

loop_
_geom_bond_atom_site_label_1
_geom_bond_atom_site_label_2
_ccdc_geom_bond_type
C51   O11   D    
C21   C26   A    
C1    O1    A    
C23   C45   A    
C22   C29   A    
C27   C29   A    
C54   O15   D    
C36   C42   T    
C51   H16   S    
N1    Zn2   S    
C50   O10   D    
C52   O13   D    
C2    C57   A    
C39   C41   S    
O20   Zn2   S    
C25   C28   A    
C26   C27   A    
C33   C39   S    
C48   O8    D    
C5    C58   A    
O5    S2    D    
C27   H26   S    
C19   C21   A    
C17   O21   A    
C5    C6    A    
C11   C14   A    
O1    Zn1   S    
C20   C25   A    
O3    S1    S    
H9    O3    S    
O22   S1    D    
O17   Zn1   S    
C32   C39   S    
C3    C23   A    
C47   H11   S    
O16   Zn2   S    
C16   O18   A    
C35   H12   S    
C18   H21   S    
C49   H14   S    
C55   H5    S    
C46   C55   A    
C31   C33   S    
C38   C48   S    
C16   O20   A    
C54   H19   S    
C19   N2    A    
C40   C42   S    
C34   C55   A    
C33   H1    S    
C41   C43   S    
C2    C6    A    
O21   Zn1   S    
C28   H2    S    
C11   H24   S    
C31   S1    S    
C4    C34   A    
C18   N1    A    
O12   Zn2   S    
C33   C40   S    
C32   C35   S    
C35   C38   S    
C9    C49   S    
C12   O17   A    
C12   C46   S    
C50   H15   S    
C8    C54   S    
C25   C26   A    
C13   C24   A    
C37   C43   T    
C19   H20   S    
C2    C4    A    
C3    C9    A    
C17   O19   A    
C5    C8    A    
C44   C56   A    
C1    C44   S    
C23   C51   S    
C15   H22   S    
C47   O7    D    
C17   C37   S    
C49   O9    D    
C30   H8    S    
C32   S2    S    
C15   N2    A    
C29   H7    S    
O2    S1    D    
O19   Zn2   S    
C20   C22   A    
C13   C15   A    
C46   C57   A    
C56   H4    S    
C53   H18   S    
O4    S2    D    
C48   H13   S    
C4    C10   A    
C10   C50   S    
C44   C45   A    
C39   C47   S    
C53   O14   D    
C7    C9    A    
C31   C41   S    
C12   O12   A    
C14   N1    A    
O18   Zn1   S    
C57   H3    S    
C6    C7    A    
C13   H25   S    
C45   H6    S    
C34   C52   S    
C31   C38   S    
C28   C30   A    
N2    Zn1   S    
C16   C36   S    
C38   C40   S    
O6    S2    S    
H10   O6    S    
C56   C58   A    
C18   C20   A    
C32   C40   S    
C35   C41   S    
C24   C30   A    
C52   H17   S    
C3    C58   A    
C11   C22   A    
C8    C10   A    
C21   C24   A    
C7    C53   S    
C14   H23   S    
C1    O16   A    
