data_mof_unit_23766.cif
_audit_creation_date              2012-12-10T18:46:13-0500
_audit_creation_method            fapswitch 2.2
_symmetry_space_group_name_H-M    P1
_symmetry_Int_Tables_number       1
_space_group_crystal_system       triclinic
_cell_length_a                    9.843103
_cell_length_b                    10.712304
_cell_length_c                    13.106323
_cell_angle_alpha                 90.003998
_cell_angle_beta                  70.591046
_cell_angle_gamma                 90.042055
_cell_volume                      1303.42479658

loop_
_atom_site_label
_atom_site_type_symbol
_atom_type_description
_atom_site_fract_x
_atom_site_fract_y
_atom_site_fract_z
_atom_type_partial_charge
C1    C     C_R   0.500034 0.740122 0.500092 0.871293
C2    C     C_R   0.369904 0.471422 0.820726 -0.117891
C3    C     C_R   0.608075 0.936198 0.526113 -0.190799
C4    C     C_R   0.420845 0.491474 0.703891 0.882327
C5    C     C_R   0.607971 0.064112 0.526164 -0.205982
C6    C     C_R   0.499840 0.127480 0.500179 -0.004524
C7    C     C_R   0.391718 0.063872 0.474294 -0.193943
C8    C     C_R   0.391749 0.935972 0.474342 -0.201679
C9    C     C_R   0.499987 0.872576 0.500175 -0.011715
C10   C     C_R   0.941867 0.396425 0.468849 -0.082634
C11   C     C_R   0.085396 0.396318 0.469387 -0.041025
C12   C     C_R   0.425732 0.441439 0.985526 -0.050988
C13   C     C_R   0.057788 0.603271 0.531950 -0.079669
C14   C     C_R   0.913957 0.603150 0.532112 -0.055848
C15   C     C_R   0.499919 0.259891 0.500018 0.854455
C16   C     C_R   0.579268 0.497834 0.295595 0.875042
C17   C     C_R   0.779836 0.369503 0.019725 -0.212873
C18   C     C_R   0.624850 0.473416 0.179890 -0.088127
C19   C     C_R   0.229907 0.509007 0.881680 -0.293775
C20   C     C_R   0.183191 0.501255 0.993681 -0.228162
C21   C     C_R   0.278803 0.465872 0.046706 0.520667
C22   C     C_3   0.196399 0.316319 0.173857 -0.318966
C23   C     C_R   0.463134 0.423807 0.873332 0.028162
C24   C     C_R   0.536933 0.434121 0.031115 0.081223
C25   C     C_R   0.671185 0.379200 0.972579 0.177817
C26   C     C_R   0.694591 0.336340 0.867750 -0.254787
C27   C     C_R   0.592583 0.359880 0.817860 -0.168629
C28   C     C_R   0.521420 0.489435 0.130090 -0.204267
C29   C     C_R   0.755500 0.414296 0.124407 -0.207153
H1    H     H_    0.836223 0.399755 0.162727 0.163924
H2    H     H_    0.881995 0.325670 0.976522 0.141179
H3    H     H_    0.427636 0.545446 0.170385 0.205502
H4    H     H_    0.155946 0.543300 0.842697 0.185295
H5    H     H_    0.072362 0.523112 0.039790 0.170477
H6    H     H_    0.615516 0.325599 0.736293 0.169288
H7    H     H_    0.691581 0.887501 0.547079 0.145265
H8    H     H_    0.298299 0.261696 0.147258 0.168471
H9    H     H_    0.121283 0.282021 0.132490 0.153844
H10   H     H_    0.143882 0.299233 0.261350 0.179687
H11   H     H_    0.691399 0.113026 0.547194 0.144861
H12   H     H_    0.308261 0.112561 0.453252 0.143134
H13   H     H_    0.308237 0.887094 0.453402 0.151195
H14   H     H_    0.899017 0.313603 0.443413 0.119866
H15   H     H_    0.150408 0.313272 0.444962 0.112771
H16   H     H_    0.100520 0.685924 0.557746 0.125385
H17   H     H_    0.848382 0.685657 0.558135 0.122394
H18   H     H_    0.794205 0.289813 0.822651 0.144719
N1    N     N_R   0.142790 0.500030 0.500030 -0.072187
N2    N     N_R   0.857180 0.499940 0.500010 -0.074481
O1    O     O_R   0.385370 0.683250 0.500010 -0.630487
O2    O     O_R   0.614700 0.683220 0.500010 -0.626144
O3    O     O_R   0.328400 0.499990 0.653620 -0.612111
O4    O     O_R   0.557730 0.499960 0.653620 -0.614496
O5    O     O_R   0.385300 0.316780 0.499990 -0.630780
O6    O     O_R   0.614630 0.316750 0.499990 -0.641915
O7    O     O_R   0.442270 0.500040 0.346380 -0.594895
O8    O     O_R   0.671600 0.500010 0.346380 -0.604259
O9    O     O_3   0.223630 0.445346 0.156950 -0.620035
Zn1   Zn    Zn3+2 0.346870 0.500020 0.500000 0.952920
Zn2   Zn    Zn3+2 0.653130 0.499980 0.500000 0.944064

loop_
_geom_bond_atom_site_label_1
_geom_bond_atom_site_label_2
_ccdc_geom_bond_type
C22   O9    S    
C13   N1    A    
C2    C4    S    
C16   O7    A    
C6    C7    A    
C3    C9    A    
O3    Zn1   S    
C23   C27   A    
C4    O4    A    
C10   N2    A    
C17   C29   A    
C1    O1    A    
C12   C24   A    
C19   C20   A    
O7    Zn1   S    
C28   H3    S    
C16   O8    A    
C17   C25   A    
C26   C27   A    
C20   H5    S    
C11   H15   S    
C14   H17   S    
C18   C29   A    
O6    Zn2   S    
C24   C25   A    
C13   H16   S    
C1    O2    A    
C12   C23   A    
C11   N1    A    
C29   H1    S    
N2    Zn2   S    
C3    H7    S    
C4    O3    A    
O1    Zn1   S    
C26   H18   S    
C25   C26   A    
O4    Zn2   S    
C8    H13   S    
O5    Zn1   S    
C7    H12   S    
C5    C6    A    
C17   H2    S    
C6    C15   S    
C14   N2    A    
C10   C11   A    
C22   H10   S    
C22   H9    S    
C15   O5    A    
C7    C8    A    
C18   C28   A    
C20   C21   A    
N1    Zn1   S    
C16   C18   S    
C19   H4    S    
C5    H11   S    
C2    C23   A    
C21   O9    S    
O8    Zn2   S    
O2    Zn2   S    
C27   H6    S    
C2    C19   A    
C13   C14   A    
C22   H8    S    
C12   C21   A    
C1    C9    S    
C24   C28   A    
C10   H14   S    
C8    C9    A    
C3    C5    A    
C15   O6    A    
