data_mof_unit_11415.cif
_audit_creation_date              2013-03-05T16:05:01-0500
_audit_creation_method            fapswitch 2.2
_symmetry_space_group_name_H-M    P1
_symmetry_Int_Tables_number       1
_space_group_crystal_system       triclinic
_cell_length_a                    9.513461
_cell_length_b                    10.805626
_cell_length_c                    13.873478
_cell_angle_alpha                 90.208822
_cell_angle_beta                  84.140513
_cell_angle_gamma                 90.114653
_cell_volume                      1418.71555102

loop_
_atom_site_label
_atom_site_type_symbol
_atom_site_description
_atom_site_fract_x
_atom_site_fract_y
_atom_site_fract_z
_atom_type_partial_charge
O1    O     O_R   0.381260 0.680340 0.500000 -0.545834
O2    O     O_R   0.618740 0.319660 0.500000 -0.545837
O3    O     O_R   0.618830 0.680370 0.500010 -0.590638
O4    O     O_R   0.381170 0.319630 0.499990 -0.590636
C1    C     C_R   0.500573 0.737722 0.497143 0.864877
C2    C     C_R   0.499427 0.262277 0.502856 0.864874
O5    O     O_R   0.364420 0.499960 0.637840 -0.598154
O6    O     O_R   0.635580 0.500040 0.362160 -0.598157
O7    O     O_R   0.601990 0.499990 0.637850 -0.557928
O8    O     O_R   0.398010 0.500010 0.362150 -0.557922
C3    C     C_R   0.476311 0.500039 0.683088 0.845838
C4    C     C_R   0.523689 0.499961 0.316912 0.845836
Cu1   Cu    Cu3+1 0.359340 0.499980 0.500000 0.993906
Cu2   Cu    Cu3+1 0.640660 0.500020 0.500000 0.993902
C5    C     C_R   0.915935 0.568350 0.566392 0.013785
C6    C     C_R   0.084065 0.431650 0.433608 0.013794
C7    C     C_R   0.064765 0.568275 0.566391 0.007158
C8    C     C_R   0.935235 0.431725 0.433609 0.007161
C9    C     C_1   0.539876 0.501178 0.213758 -0.148304
C10   C     C_1   0.460121 0.498821 0.786242 -0.148308
C11   C     C_2   0.559888 0.504876 0.022658 -0.019867
C12   C     C_2   0.440108 0.495120 0.977341 -0.019870
H1    H     H_    0.852203 0.623357 0.619463 0.127182
H2    H     H_    0.147797 0.376643 0.380537 0.127182
C13   C     C_1   0.448504 0.497264 0.873153 -0.044470
C14   C     C_1   0.551492 0.502735 0.126846 -0.044464
H3    H     H_    0.113120 0.623119 0.619475 0.119916
H4    H     H_    0.886880 0.376881 0.380525 0.119916
C15   C     C_R   0.596696 0.933617 0.548624 -0.282837
C16   C     C_R   0.403307 0.066384 0.451371 -0.282837
H5    H     H_    0.668387 0.881553 0.588929 0.192782
H6    H     H_    0.331616 0.118448 0.411067 0.192785
C17   C     C_R   0.595056 0.061934 0.555733 0.361105
C18   C     C_R   0.404946 0.938066 0.444262 0.361097
C19   C     C_R   0.498417 0.128404 0.505256 -0.201196
C20   C     C_R   0.501584 0.871596 0.494741 -0.201197
N1    N     N_R   0.147930 0.499970 0.499980 -0.162400
N2    N     N_R   0.852070 0.500030 0.500020 -0.162400
C21   C     C_R   0.296885 0.483343 0.030994 0.110279
C22   C     C_R   0.209438 0.383112 0.011796 -0.141021
C23   C     C_R   0.075267 0.370812 0.062445 -0.105605
C24   C     C_R   0.026826 0.458818 0.132023 -0.125646
C25   C     C_R   0.111990 0.559898 0.150493 -0.125478
C26   C     C_R   0.246053 0.572748 0.099863 -0.120380
H7    H     H_    0.245676 0.313951 0.958293 0.139179
H8    H     H_    0.008636 0.293204 0.047520 0.140728
H9    H     H_    0.922856 0.449276 0.170992 0.135108
H10   H     H_    0.073934 0.628555 0.203840 0.167647
H11   H     H_    0.310081 0.652378 0.114257 0.163738
C27   C     C_R   0.703112 0.516657 0.969005 0.110279
C28   C     C_R   0.790564 0.616881 0.988217 -0.141025
C29   C     C_R   0.924737 0.629185 0.937571 -0.105602
C30   C     C_R   0.973175 0.541189 0.867983 -0.125639
C31   C     C_R   0.888007 0.440117 0.849499 -0.125481
C32   C     C_R   0.753941 0.427263 0.900125 -0.120377
H12   H     H_    0.754329 0.686033 0.041728 0.139177
H13   H     H_    0.991371 0.706788 0.952505 0.140726
H14   H     H_    0.077146 0.550733 0.829015 0.135108
H15   H     H_    0.926060 0.371467 0.796144 0.167647
H16   H     H_    0.689909 0.347638 0.885719 0.163747
N3    N     N_R   0.686707 0.122140 0.617719 0.129303
O9    O     O_R   0.637928 0.208868 0.677288 -0.385815
O10   O     O_R   0.812300 0.078013 0.625390 -0.356965
N4    N     N_R   0.313294 0.877860 0.382276 0.129305
O11   O     O_R   0.362063 0.791118 0.322719 -0.385807
O12   O     O_R   0.187712 0.921999 0.374593 -0.356970

loop_
_geom_bond_atom_site_label_1
_geom_bond_atom_site_label_2
_geom_bond_distance
_ccdc_geom_bond_type
C26   H11   1.082955 S    
O5    C3    1.289805 A    
O7    Cu2   1.910285 S    
O8    Cu1   1.910285 S    
C5    N2    1.367301 A    
C21   C26   1.407423 A    
C30   H14   1.082632 S    
Cu2   N2    2.011270 S    
C25   H10   1.082400 S    
C6    H2    1.081719 S    
Cu1   N1    2.011270 S    
C27   C32   1.407437 A    
O6    C4    1.289808 A    
C6    N1    1.367302 A    
C11   C14   1.439762 S    
C32   H16   1.082967 S    
N4    O11   1.301667 A    
C18   N4    1.438676 S    
C27   C28   1.405574 A    
C8    N2    1.366810 A    
C15   H5    1.084445 S    
C6    C8    1.415885 A    
C7    N1    1.366809 A    
Cu1   Cu2   2.676325 S    
C29   C30   1.397405 A    
C16   H6    1.084445 S    
O7    C3    1.292377 A    
C15   C20   1.399542 A    
N3    O9    1.301675 A    
O3    Cu2   1.960242 S    
O8    C4    1.292375 A    
C16   C19   1.399539 A    
O1    C1    1.289428 A    
C12   C21   1.489868 S    
C4    C9    1.423751 S    
C5    H1    1.081719 S    
C22   C23   1.399129 A    
C17   C19   1.410430 A    
C18   C20   1.410432 A    
C31   H15   1.082407 S    
C25   C26   1.398723 A    
C22   H7    1.083074 S    
O2    Cu2   1.959613 S    
C3    C10   1.423749 S    
O4    C2    1.289749 A    
O1    Cu1   1.959613 S    
C29   H13   1.082300 S    
C16   C18   1.389699 A    
C21   C22   1.405561 A    
C28   C29   1.399131 A    
C7    H3    1.081716 S    
C1    C20   1.447085 S    
C15   C17   1.389697 A    
O5    Cu1   1.917857 S    
C24   H9    1.082631 S    
C8    H4    1.081717 S    
C2    C19   1.447084 S    
C17   N3    1.438667 S    
C28   H12   1.083085 S    
C23   C24   1.397395 A    
O4    Cu1   1.960239 S    
C5    C7    1.415885 A    
C9    C14   1.199712 T    
C31   C32   1.398725 A    
C11   C27   1.489872 S    
O6    Cu2   1.917857 S    
O3    C1    1.289747 A    
C11   C12   1.360223 D    
C30   C31   1.397100 A    
C12   C13   1.439758 S    
N3    O10   1.301885 A    
O2    C2    1.289427 A    
C24   C25   1.397087 A    
C23   H8    1.082288 S    
C10   C13   1.199709 T    
N4    O12   1.301864 A    
