data_mof_unit_26164.cif
_audit_creation_date              2012-12-10T18:24:42-0500
_audit_creation_method            fapswitch 2.2
_symmetry_space_group_name_H-M    P1
_symmetry_Int_Tables_number       1
_space_group_crystal_system       triclinic
_cell_length_a                    14.014737
_cell_length_b                    15.000356
_cell_length_c                    16.653871
_cell_angle_alpha                 90.052739
_cell_angle_beta                  83.986667
_cell_angle_gamma                 90.145755
_cell_volume                      3481.80087886

loop_
_atom_site_label
_atom_site_type_symbol
_atom_type_description
_atom_site_fract_x
_atom_site_fract_y
_atom_site_fract_z
_atom_type_partial_charge
C1    C     C_R   0.500097 0.673513 0.499824 0.969208
C2    C     C_R   0.499916 0.326495 0.500093 0.948142
C3    C     C_R   0.414394 0.184692 0.492335 -0.215566
C4    C     C_R   0.585690 0.815357 0.507212 -0.229926
C5    C     C_R   0.499851 0.230661 0.500121 -0.097572
C6    C     C_R   0.500233 0.769377 0.499434 -0.102781
C7    C     C_R   0.585368 0.185134 0.507828 -0.208014
C8    C     C_R   0.414817 0.814904 0.491307 -0.218223
C9    C     C_R   0.586077 0.092987 0.507781 0.095405
C10   C     C_R   0.414136 0.907070 0.491223 0.108674
C11   C     C_R   0.500048 0.046394 0.499650 0.057759
C12   C     C_R   0.500160 0.953669 0.499380 0.069937
C13   C     C_R   0.413896 0.092513 0.491847 0.096218
C14   C     C_R   0.586278 0.907549 0.507336 0.110328
C15   C     C_R   0.671260 0.046836 0.515701 -0.163957
C16   C     C_R   0.328965 0.953234 0.483254 -0.173949
C17   C     C_R   0.671362 0.954219 0.515456 -0.176484
C18   C     C_R   0.328838 0.045853 0.483625 -0.169059
C19   C     C_R   0.197621 0.429390 0.531798 -0.007935
C20   C     C_R   0.802386 0.570569 0.468128 -0.019918
C21   C     C_R   0.206610 0.570550 0.467436 0.000479
C22   C     C_R   0.793392 0.429457 0.532576 0.002600
C23   C     C_R   0.485694 0.498876 0.653279 0.939001
C24   C     C_R   0.514305 0.499066 0.346724 0.938193
C25   C     C_R   0.105806 0.572568 0.464770 -0.067279
C26   C     C_R   0.894195 0.427433 0.535217 -0.070348
C27   C     C_R   0.050715 0.500158 0.499224 0.087726
C28   C     C_R   0.949289 0.499824 0.500736 0.089067
C29   C     C_R   0.097159 0.427935 0.532363 0.002037
C30   C     C_R   0.902846 0.572029 0.467570 0.002757
C31   C     C_R   0.057957 0.644796 0.430875 -0.019508
C32   C     C_R   0.942036 0.355209 0.569116 -0.024361
C33   C     C_R   0.957162 0.643880 0.433832 -0.219049
C34   C     C_R   0.042835 0.356086 0.566105 -0.218717
C35   C     C_R   0.473271 0.486240 0.740119 -0.182443
C36   C     C_R   0.526711 0.486848 0.259839 -0.185141
C37   C     C_R   0.441260 0.557859 0.790819 -0.123739
C38   C     C_R   0.520061 0.399704 0.228666 -0.110153
C39   C     C_R   0.425194 0.543672 0.874825 -0.064725
C40   C     C_R   0.539177 0.385388 0.145246 -0.062683
C41   C     C_R   0.438735 0.457446 0.905657 0.027922
C42   C     C_R   0.561267 0.459124 0.094173 0.015825
C43   C     C_R   0.461465 0.384285 0.854211 -0.071304
C44   C     C_R   0.574622 0.545276 0.125578 -0.065730
C45   C     C_R   0.480771 0.399091 0.770868 -0.116034
C46   C     C_R   0.558026 0.559017 0.209536 -0.115730
C47   C     C_2   0.454998 0.448769 0.990382 -0.171527
C48   C     C_2   0.545294 0.450969 0.009306 -0.182324
H1    H     H_    0.605607 0.455994 0.962833 0.221700
H2    H     H_    0.394404 0.448925 0.036818 0.227992
N1    N     N_R   0.249970 0.499930 0.499970 -0.112875
N2    N     N_R   0.750030 0.500070 0.500030 -0.115516
O1    O     O_R   0.419720 0.632140 0.499990 -0.628972
O2    O     O_R   0.580280 0.367860 0.500010 -0.625177
O3    O     O_R   0.580270 0.632160 0.499980 -0.627470
O4    O     O_R   0.419730 0.367840 0.500020 -0.620132
O5    O     O_R   0.410240 0.500000 0.615800 -0.631407
O6    O     O_R   0.589760 0.500000 0.384200 -0.631378
O7    O     O_R   0.570790 0.500020 0.615800 -0.555617
O8    O     O_R   0.429210 0.499980 0.384200 -0.552889
Zn1   Zn    Zn3+2 0.392800 0.499980 0.500010 1.013073
Zn2   Zn    Zn3+2 0.607200 0.500020 0.499990 1.009180
C49   C     C_2   0.424148 0.646865 0.755480 0.965908
O9    O     O_2   0.349423 0.686708 0.775655 -0.578412
O10   O     O_R   0.493381 0.684766 0.699063 -0.798790
H3    H     H_    0.473583 0.745446 0.679893 0.346754
C50   C     C_2   0.496746 0.322993 0.283644 0.941455
O11   O     O_2   0.420177 0.320745 0.326116 -0.598195
O12   O     O_R   0.561587 0.252471 0.284944 -0.779985
H4    H     H_    0.536921 0.203158 0.323271 0.351136
H5    H     H_    0.234310 0.374507 0.557353 0.138410
H6    H     H_    0.765702 0.625422 0.442518 0.140264
H7    H     H_    0.251613 0.625199 0.444684 0.175871
H8    H     H_    0.748412 0.374798 0.555328 0.191757
C51   C     C_2   0.109367 0.721984 0.390677 0.896382
O13   O     O_2   0.182448 0.710834 0.344910 -0.602339
O14   O     O_R   0.071186 0.807609 0.402423 -0.793234
H9    H     H_    0.111778 0.854797 0.371432 0.355390
C52   C     C_2   0.890592 0.278093 0.609399 0.898247
O15   O     O_2   0.817660 0.289357 0.655317 -0.574272
O16   O     O_R   0.928579 0.192408 0.597560 -0.794111
H10   H     H_    0.887970 0.145280 0.628617 0.357472
H11   H     H_    0.920773 0.698883 0.407876 0.183159
H12   H     H_    0.079217 0.301071 0.592051 0.181261
C53   C     C_2   0.573884 0.648205 0.245266 0.962649
O17   O     O_2   0.648310 0.689068 0.225683 -0.589582
O18   O     O_R   0.503707 0.685181 0.301268 -0.790752
H13   H     H_    0.522528 0.746251 0.320536 0.345941
C54   C     C_2   0.505176 0.322777 0.715659 0.931514
O19   O     O_2   0.581979 0.321581 0.673505 -0.584174
O20   O     O_R   0.441149 0.251353 0.713927 -0.785758
H14   H     H_    0.466634 0.202273 0.675720 0.353088
C55   C     C_2   0.469179 0.293473 0.889277 1.008330
O21   O     O_2   0.535853 0.244487 0.865422 -0.553013
O22   O     O_R   0.400174 0.264788 0.950577 -0.765473
H15   H     H_    0.412301 0.201843 0.969051 0.361119
C56   C     C_2   0.597561 0.621909 0.069859 0.977705
O23   O     O_2   0.659143 0.614262 0.012589 -0.585474
O24   O     O_R   0.548029 0.702363 0.082527 -0.754804
H16   H     H_    0.570106 0.749166 0.040733 0.382038
C57   C     C_2   0.531376 0.294409 0.110158 0.989946
O25   O     O_2   0.590195 0.269868 0.055184 -0.569329
O26   O     O_R   0.456619 0.237345 0.139342 -0.763731
H17   H     H_    0.460089 0.177269 0.111281 0.358128
C58   C     C_2   0.402135 0.619529 0.931512 0.979367
O27   O     O_2   0.443451 0.691063 0.920329 -0.575562
O28   O     O_R   0.334196 0.608388 0.998463 -0.775877
H18   H     H_    0.325843 0.664062 0.033023 0.375937
H19   H     H_    0.348383 0.220464 0.486208 0.185818
H20   H     H_    0.651641 0.779587 0.513588 0.172207
H21   H     H_    0.651333 0.221214 0.514200 0.185986
H22   H     H_    0.348874 0.778811 0.484876 0.174733
H23   H     H_    0.737528 0.082321 0.522067 0.167841
H24   H     H_    0.262699 0.917755 0.476865 0.167243
H25   H     H_    0.737711 0.919137 0.521626 0.165296
H26   H     H_    0.262476 0.080942 0.477523 0.166905

loop_
_geom_bond_atom_site_label_1
_geom_bond_atom_site_label_2
_ccdc_geom_bond_type
C25   C31   A    
O18   H13   S    
C49   O10   S    
O6    Zn2   S    
C57   O25   D    
C27   C29   A    
C19   H5    S    
O22   H15   S    
N1    Zn1   S    
O16   H10   S    
C10   C16   A    
C39   C41   A    
C20   C30   A    
O14   H9    S    
C23   O7    A    
C58   O28   S    
C55   O21   D    
C34   H12   S    
C13   C18   A    
C22   N2    A    
C35   C37   A    
C8    H22   S    
C33   H11   S    
O3    Zn2   S    
C21   H7    S    
C39   C58   S    
C1    O1    A    
C4    H20   S    
C37   C49   S    
C40   C57   S    
O1    Zn1   S    
O24   H16   S    
O28   H18   S    
C31   C33   A    
C36   C46   A    
C54   O20   S    
C45   C54   S    
C3    C13   A    
C46   C53   S    
C40   C42   A    
C57   O26   S    
C4    C14   A    
C41   C43   A    
C14   C17   A    
C42   C44   A    
C56   O24   S    
C44   C46   A    
C56   O23   D    
C47   H2    S    
C53   O18   S    
C37   C39   A    
C50   O11   D    
C52   O15   D    
C4    C6    A    
C2    O2    A    
C18   H26   S    
O20   H14   S    
C52   O16   S    
C26   C32   A    
C6    C8    A    
O2    Zn2   S    
C53   O17   D    
C29   C34   A    
C1    C6    S    
O8    Zn1   S    
C50   O12   S    
C32   C34   A    
C42   C48   S    
C51   O13   D    
C9    C11   A    
C44   C56   S    
C31   C51   S    
C47   C48   D    
C24   O8    A    
C15   H23   S    
C41   C47   S    
C16   C18   A    
C24   C36   S    
C51   O14   S    
C10   C12   A    
C23   O5    A    
C8    C10   A    
C48   H1    S    
C12   C14   A    
C23   C35   S    
C2    C5    S    
C22   H8    S    
C19   C29   A    
C21   N1    A    
C17   H25   S    
C5    C7    A    
C7    C9    A    
C21   C25   A    
O7    Zn2   S    
C30   C33   A    
C3    C5    A    
C16   H24   S    
C11   C12   A    
O5    Zn1   S    
C25   C27   A    
C58   O27   D    
C26   C28   A    
C20   N2    A    
C28   C30   A    
C9    C15   A    
C43   C45   A    
C2    O4    A    
C32   C52   S    
C38   C40   A    
C11   C13   A    
C55   O22   S    
C3    H19   S    
C36   C38   A    
C43   C55   S    
C7    H21   S    
C1    O3    A    
O12   H4    S    
C49   O9    D    
C19   N1    A    
C38   C50   S    
C24   O6    A    
O10   H3    S    
C22   C26   A    
O26   H17   S    
O4    Zn1   S    
C20   H6    S    
N2    Zn2   S    
C54   O19   D    
C15   C17   A    
C27   C28   A    
C35   C45   A    
