data_mof_unit_45363.cif
_audit_creation_date              2012-12-10T16:59:14-0500
_audit_creation_method            fapswitch 2.2
_symmetry_space_group_name_H-M    P1
_symmetry_Int_Tables_number       1
_space_group_crystal_system       triclinic
_cell_length_a                    7.747619
_cell_length_b                    8.608633
_cell_length_c                    27.816094
_cell_angle_alpha                 91.733858
_cell_angle_beta                  84.941517
_cell_angle_gamma                 93.887978
_cell_volume                      1843.20444515

loop_
_atom_site_label
_atom_site_type_symbol
_atom_type_description
_atom_site_fract_x
_atom_site_fract_y
_atom_site_fract_z
_atom_type_partial_charge
Br1   Br    Br    0.683312 0.970469 0.869591 -0.256955
Br2   Br    Br    0.317120 0.029636 0.130406 -0.256910
Br3   Br    Br    0.866179 0.634714 0.348822 -0.215554
Br4   Br    Br    0.133723 0.365962 0.651255 -0.215556
C1    C     C_R   0.545619 0.794479 0.498762 0.839011
C2    C     C_R   0.559682 0.635724 0.126635 -0.277164
C3    C     C_R   0.500400 0.490982 0.646558 -0.381034
C4    C     C_R   0.499653 0.509133 0.353447 -0.380999
C5    C     C_R   0.568276 0.634412 0.024931 -0.146958
C6    C     C_R   0.432231 0.365668 0.975063 -0.146980
C7    C     C_R   0.443833 0.363124 0.025665 0.106021
C8    C     C_R   0.556704 0.636947 0.974328 0.106019
C9    C     C_R   0.503540 0.499395 0.050614 0.030385
C10   C     C_R   0.496968 0.500682 0.949380 0.030389
C11   C     C_R   0.650347 0.758927 0.050859 0.493323
C12   C     C_R   0.454381 0.205521 0.501237 0.839044
C13   C     C_R   0.350106 0.241171 0.949142 0.493350
C14   C     C_R   0.638985 0.762159 0.100805 0.674282
C15   C     C_R   0.361373 0.237964 0.899196 0.674288
C16   C     C_R   0.500075 0.496721 0.593943 0.950911
C17   C     C_R   0.499933 0.503308 0.406058 0.950980
C18   C     C_R   0.594451 0.774299 0.948055 -0.134799
C19   C     C_R   0.406105 0.225767 0.051937 -0.134773
C20   C     C_2   0.570026 0.956952 0.497973 0.320918
C21   C     C_2   0.429974 0.043048 0.502026 0.320898
C22   C     C_R   0.553648 0.629795 0.821611 0.618412
C23   C     C_R   0.497708 0.500688 0.898332 -0.177994
C24   C     C_R   0.446869 0.370285 0.178380 0.618254
C25   C     C_R   0.456940 0.360751 0.822949 0.738739
C26   C     C_R   0.543270 0.639404 0.177048 0.738776
C27   C     C_R   0.350998 0.450490 0.726018 0.679705
C28   C     C_R   0.649131 0.549963 0.274011 0.679703
C29   C     C_R   0.347819 0.445597 0.676056 0.132408
C30   C     C_R   0.652221 0.554803 0.323975 0.132348
C31   C     C_R   0.655327 0.532539 0.668130 0.651731
C32   C     C_R   0.344812 0.467362 0.331852 0.651689
C33   C     C_R   0.658446 0.528835 0.717869 -0.204778
C34   C     C_R   0.502752 0.499401 0.101662 -0.178026
C35   C     C_R   0.341783 0.471050 0.282110 -0.204702
C36   C     C_R   0.506333 0.489972 0.746956 -0.026931
C37   C     C_R   0.493892 0.510191 0.253045 -0.026975
C38   C     C_R   0.554370 0.636561 0.872278 -0.063742
C39   C     C_R   0.446139 0.363518 0.127714 -0.063746
C40   C     C_R   0.601775 0.774469 0.898080 0.335571
C41   C     C_R   0.398764 0.225602 0.101913 0.335611
C42   C     C_R   0.440664 0.364398 0.873362 -0.277143
F1    F     F_    0.803303 0.580317 0.641357 -0.546690
F2    F     F_    0.243769 0.127836 0.971023 -0.603452
F3    F     F_    0.737884 0.017627 0.492988 -0.554901
F4    F     F_    0.262116 0.982373 0.507010 -0.554910
F5    F     F_    0.196842 0.419389 0.358606 -0.546713
F6    F     F_    0.029729 0.351757 0.458557 -0.455225
F7    F     F_    0.970272 0.648248 0.541442 -0.455217
F8    F     F_    0.797691 0.584310 0.245538 -0.583971
F9    F     F_    0.202441 0.416443 0.754516 -0.584111
F10   F     F_    0.716492 0.886633 0.123552 -0.527473
F11   F     F_    0.283804 0.113507 0.876458 -0.527475
F12   F     F_    0.756704 0.872263 0.028984 -0.603456
H1    H     H_    0.778760 0.559327 0.734026 0.243330
H2    H     H_    0.221545 0.440336 0.265932 0.243216
H3    H     H_    0.613166 0.886561 0.965525 0.229363
H4    H     H_    0.387399 0.113505 0.034466 0.229346
N1    N     N_R   0.508553 0.492912 0.798357 -0.336846
N2    N     N_R   0.491768 0.507218 0.201639 -0.336879
N3    N     N_2   0.950320 0.457960 0.486880 0.287150
N4    N     N_2   0.049680 0.542040 0.513120 0.287175
O1    O     O_R   0.389250 0.738570 0.503220 -0.584385
O2    O     O_2   0.406704 0.241746 0.204574 -0.442677
O3    O     O_2   0.577731 0.774011 0.201616 -0.385167
O4    O     O_2   0.422231 0.226205 0.798380 -0.385314
O5    O     O_R   0.610750 0.261430 0.496780 -0.584375
O6    O     O_R   0.678390 0.711630 0.494810 -0.540045
O7    O     O_R   0.321610 0.288370 0.505190 -0.540045
O8    O     O_R   0.355440 0.513440 0.575450 -0.586470
O9    O     O_R   0.644560 0.486560 0.424550 -0.586503
O10   O     O_R   0.644590 0.486500 0.567040 -0.546989
O11   O     O_R   0.355410 0.513500 0.432960 -0.547021
O12   O     O_2   0.594040 0.758287 0.795411 -0.442734
Zn1   Zn    Zn3+2 0.306940 0.517990 0.505620 1.249210
Zn2   Zn    Zn3+2 0.693060 0.482010 0.494380 1.249207

loop_
_geom_bond_atom_site_label_1
_geom_bond_atom_site_label_2
_ccdc_geom_bond_type
C11   C14   A    
C25   N1    A    
C19   C41   A    
C26   N2    A    
C13   F2    S    
C1    O1    A    
C31   F1    S    
C15   C42   A    
C35   C37   A    
C15   F11   S    
N4    Zn1   S    
C22   O12   S    
C36   N1    S    
C31   C33   A    
C1    O6    A    
C6    C13   A    
C8    C18   A    
C20   F3    S    
C27   C36   A    
C16   O10   A    
C4    C32   A    
C5    C9    A    
C21   F4    S    
C19   H4    S    
C18   C40   A    
C28   C37   A    
C2    C34   A    
C10   C23   A    
O9    Zn2   S    
C14   F10   S    
N3    Zn2   S    
C3    C29   A    
C12   O5    A    
C38   C40   A    
C28   F8    S    
O5    Zn2   S    
O11   Zn1   S    
Br2   C41   S    
C2    C14   A    
C12   O7    A    
O1    Zn1   S    
C20   C21   D    
C6    C10   A    
Br3   C30   S    
C28   C30   A    
C22   N1    A    
Br1   C40   S    
C27   C29   A    
C4    C17   S    
O7    Zn1   S    
C16   O8    A    
C4    C30   A    
F7    N4    S    
C39   C41   A    
C9    C34   A    
C33   H1    S    
C32   F5    S    
C24   N2    A    
C23   C42   A    
C2    C26   A    
C8    C10   A    
N3    N4    D    
O8    Zn1   S    
C11   F12   S    
C26   O3    S    
C22   C38   A    
C25   O4    S    
C12   C21   S    
Br4   C29   S    
C24   O2    S    
C3    C31   A    
C32   C35   A    
O10   Zn2   S    
C33   C36   A    
C17   O9    A    
C24   C39   A    
C25   C42   A    
C5    C11   A    
C34   C39   A    
O6    Zn2   S    
C18   H3    S    
C7    C9    A    
C23   C38   A    
C1    C20   S    
C35   H2    S    
C7    C19   A    
C13   C15   A    
C5    C8    A    
C6    C7    A    
C3    C16   S    
C17   O11   A    
C37   N2    S    
C27   F9    S    
F6    N3    S    
