data_mof_unit_21710.cif
_audit_creation_date              2012-12-10T16:59:14-0500
_audit_creation_method            fapswitch 2.2
_symmetry_space_group_name_H-M    P1
_symmetry_Int_Tables_number       1
_space_group_crystal_system       triclinic
_cell_length_a                    7.804091
_cell_length_b                    8.529311
_cell_length_c                    27.617415
_cell_angle_alpha                 91.998462
_cell_angle_beta                  85.060663
_cell_angle_gamma                 93.881167
_cell_volume                      1826.50500398

loop_
_atom_site_label
_atom_site_type_symbol
_atom_type_description
_atom_site_fract_x
_atom_site_fract_y
_atom_site_fract_z
_atom_type_partial_charge
Br1   Br    Br    0.397050 0.817771 0.651867 -0.561852
Br2   Br    Br    0.599103 0.178785 0.349556 -0.563781
C1    C     C_R   0.545769 0.794621 0.498791 0.967023
C2    C     C_R   0.575531 0.632269 0.126790 -0.099381
C3    C     C_R   0.505956 0.495949 0.645850 -0.097268
C4    C     C_R   0.493919 0.501823 0.354124 -0.097110
C5    C     C_R   0.597118 0.621082 0.024073 -0.078409
C6    C     C_R   0.413067 0.367764 0.975449 -0.078161
C7    C     C_R   0.389099 0.387787 0.026790 0.071795
C8    C     C_R   0.620896 0.601121 0.972717 0.071608
C9    C     C_R   0.488232 0.508190 0.050785 0.003471
C10   C     C_R   0.521399 0.480976 0.948740 0.003355
C11   C     C_R   0.669442 0.754033 0.050064 0.492930
C12   C     C_R   0.454231 0.205379 0.501209 0.967595
C13   C     C_R   0.340928 0.234771 0.949445 0.492871
C14   C     C_R   0.670658 0.749936 0.100631 -0.230383
C15   C     C_R   0.338408 0.239578 0.898915 -0.230936
C16   C     C_R   0.501662 0.501547 0.593663 0.904226
C17   C     C_R   0.498320 0.498271 0.406342 0.905015
C18   C     C_R   0.748969 0.690619 0.944300 -0.166697
C19   C     C_R   0.260661 0.298443 0.055124 -0.166802
C20   C     C_2   0.569803 0.958348 0.498027 -0.334702
C21   C     C_2   0.430197 0.041652 0.501970 -0.334402
C22   C     C_R   0.644832 0.576527 0.819496 0.520577
C23   C     C_R   0.532973 0.472663 0.897278 -0.060010
C24   C     C_R   0.360450 0.415579 0.180066 0.520651
C25   C     C_R   0.432584 0.361510 0.822171 0.554665
C26   C     C_R   0.573269 0.630117 0.177469 0.554628
C27   C     C_R   0.576051 0.353937 0.714876 -0.057362
C28   C     C_R   0.426531 0.641666 0.284375 -0.057605
C29   C     C_R   0.565756 0.362097 0.665110 -0.238063
C30   C     C_R   0.435689 0.635305 0.334242 -0.238436
C31   C     C_R   0.459121 0.623815 0.676480 0.215769
C32   C     C_R   0.539808 0.372385 0.324056 0.214823
C33   C     C_R   0.468127 0.614195 0.726358 -0.102000
C34   C     C_R   0.475375 0.517325 0.102256 -0.059906
C35   C     C_R   0.532090 0.380236 0.274088 -0.101877
C36   C     C_R   0.526510 0.479695 0.745583 0.227682
C37   C     C_R   0.475713 0.514494 0.254204 0.227681
C38   C     C_3   0.952810 0.302978 0.420450 -0.067391
C39   C     C_3   0.047194 0.697036 0.579546 -0.067051
C40   C     C_3   0.652858 0.021805 0.044336 -0.287697
C41   C     C_3   0.357278 0.966576 0.954452 -0.288425
C42   C     C_R   0.644867 0.579442 0.870148 -0.002265
C43   C     C_R   0.362471 0.411246 0.129360 -0.002145
C44   C     C_R   0.756940 0.683636 0.893978 -0.183066
C45   C     C_R   0.251297 0.306405 0.105449 -0.182444
C46   C     C_R   0.432260 0.358056 0.872785 -0.099179
H1    H     H_    0.431880 0.711937 0.750293 0.181483
H2    H     H_    0.267920 0.146016 0.880028 0.202545
H3    H     H_    0.850111 0.762714 0.959771 0.218411
H4    H     H_    0.160052 0.225911 0.039556 0.218307
H5    H     H_    0.701568 0.009684 0.494210 0.191259
H6    H     H_    0.298432 0.990316 0.505785 0.191158
H7    H     H_    0.947438 0.409524 0.398644 0.165028
H8    H     H_    0.824302 0.242305 0.428135 0.200352
H9    H     H_    0.032739 0.220312 0.398086 0.164218
H10   H     H_    0.175754 0.757670 0.571887 0.199873
H11   H     H_    0.052477 0.590477 0.601354 0.165483
H12   H     H_    0.568003 0.281383 0.250585 0.181876
H13   H     H_    0.967272 0.779724 0.601903 0.163953
H14   H     H_    0.707501 0.069871 0.078012 0.172998
H15   H     H_    0.510787 0.997567 0.050933 0.181725
H16   H     H_    0.675165 0.114453 0.016862 0.200508
H17   H     H_    0.499145 0.990506 0.947138 0.181075
H18   H     H_    0.300033 0.919229 0.921073 0.173068
H19   H     H_    0.336601 0.873460 0.981802 0.200340
H20   H     H_    0.852946 0.759211 0.873834 0.198227
H21   H     H_    0.154771 0.231172 0.125528 0.198271
H22   H     H_    0.397907 0.734521 0.357377 0.180200
H23   H     H_    0.604173 0.264051 0.641551 0.179363
H24   H     H_    0.381375 0.745057 0.269123 0.175922
H25   H     H_    0.622672 0.250364 0.729624 0.175934
H26   H     H_    0.740923 0.843677 0.119511 0.202817
N1    N     N_R   0.535688 0.471666 0.796816 -0.349761
N2    N     N_R   0.468741 0.520990 0.202843 -0.349550
N3    N     N_2   0.950320 0.457960 0.486880 0.185668
N4    N     N_2   0.049680 0.542040 0.513120 0.185669
O1    O     O_R   0.389250 0.738570 0.503220 -0.636436
O2    O     O_2   0.251938 0.315059 0.206466 -0.543894
O3    O     O_2   0.676211 0.734692 0.201187 -0.542256
O4    O     O_2   0.329124 0.257245 0.798511 -0.541462
O5    O     O_3   0.030905 0.338908 0.463552 -0.541457
O6    O     O_3   0.969140 0.661140 0.536434 -0.541679
O7    O     O_3   0.737870 0.887836 0.026288 -0.634221
O8    O     O_3   0.273747 0.100526 0.973222 -0.634350
O9    O     O_R   0.610750 0.261430 0.496780 -0.636449
O10   O     O_R   0.678390 0.711630 0.494810 -0.573276
O11   O     O_R   0.321610 0.288370 0.505190 -0.573351
O12   O     O_R   0.355440 0.513440 0.575450 -0.640091
O13   O     O_R   0.644560 0.486560 0.424550 -0.640127
O14   O     O_R   0.644590 0.486500 0.567040 -0.593494
O15   O     O_R   0.355410 0.513500 0.432960 -0.592965
O16   O     O_2   0.752106 0.677929 0.793058 -0.543417
Zn1   Zn    Zn3+2 0.306940 0.517990 0.505620 1.045581
Zn2   Zn    Zn3+2 0.693060 0.482010 0.494380 1.045364

loop_
_geom_bond_atom_site_label_1
_geom_bond_atom_site_label_2
_ccdc_geom_bond_type
C25   C46   A    
C5    C8    A    
C4    C30   A    
C2    C34   A    
O11   Zn1   S    
C32   C35   A    
C15   C46   A    
C39   H13   S    
C1    O1    A    
O10   Zn2   S    
Br1   C31   S    
O12   Zn1   S    
N3    N4    D    
C5    C9    A    
C4    C17   S    
C14   H26   S    
C9    C34   A    
C12   O9    A    
C18   H3    S    
C27   H25   S    
N3    O5    S    
O14   Zn2   S    
C45   H21   S    
C24   C43   A    
C44   H20   S    
C8    C18   A    
C6    C7    A    
C38   H8    S    
C3    C31   A    
C27   C36   A    
C33   H1    S    
C24   N2    A    
C40   H14   S    
C17   O15   A    
C6    C10   A    
O13   Zn2   S    
Br2   C32   S    
C29   H23   S    
C26   O3    S    
O15   Zn1   S    
C38   O5    S    
C25   N1    A    
C23   C42   A    
C2    C26   A    
C42   C44   A    
C20   H5    S    
C36   N1    S    
C43   C45   A    
C35   C37   A    
C16   O12   A    
C33   C36   A    
C39   H11   S    
C30   H22   S    
C3    C16   S    
C39   O6    S    
C24   O2    S    
C4    C32   A    
C12   C21   S    
C2    C14   A    
C12   O11   A    
O1    Zn1   S    
C22   O16   S    
N4    Zn1   S    
C41   H17   S    
C38   H7    S    
O9    Zn2   S    
C34   C43   A    
C40   O7    S    
C37   N2    S    
C7    C9    A    
C23   C46   A    
C8    C10   A    
C13   O8    S    
C6    C13   A    
C22   C42   A    
C26   N2    A    
C40   H16   S    
C21   H6    S    
C13   C15   A    
C38   H9    S    
C1    O10   A    
C41   O8    S    
C25   O4    S    
C15   H2    S    
C39   H10   S    
C28   H24   S    
C22   N1    A    
N3    Zn2   S    
C10   C23   A    
C16   O14   A    
C27   C29   A    
C28   C30   A    
C7    C19   A    
C41   H18   S    
C31   C33   A    
C28   C37   A    
C35   H12   S    
C17   O13   A    
N4    O6    S    
C5    C11   A    
C41   H19   S    
C11   C14   A    
C11   O7    S    
C20   C21   D    
C1    C20   S    
C3    C29   A    
C40   H15   S    
C19   H4    S    
C18   C44   A    
C19   C45   A    
