data_mof_unit_28936.cif
_audit_creation_date              2012-12-11T17:00:20-0500
_audit_creation_method            fapswitch 2.2
_symmetry_space_group_name_H-M    P1
_symmetry_Int_Tables_number       1
_space_group_crystal_system       triclinic
_cell_length_a                    6.9619
_cell_length_b                    13.57973
_cell_length_c                    20.280734
_cell_angle_alpha                 103.097249
_cell_angle_beta                  90.243054
_cell_angle_gamma                 90.179346
_cell_volume                      1867.4455087

loop_
_atom_site_label
_atom_site_type_symbol
_atom_type_description
_atom_site_fract_x
_atom_site_fract_y
_atom_site_fract_z
_atom_type_partial_charge
O1    O     O_R   0.506770 0.599700 0.449550 -0.544357
O2    O     O_R   0.179980 0.595740 0.587960 -0.545140
O3    O     O_R   0.004580 0.400300 0.550450 -0.537126
C1    C     C_R   0.348374 0.617739 0.615072 0.695410
O4    O     O_R   0.177380 0.611700 0.452380 -0.541088
O5    O     O_R   0.001970 0.416370 0.413900 -0.540679
C2    C     C_R   0.345337 0.637065 0.434744 0.699118
O6    O     O_R   0.509390 0.583630 0.586100 -0.537588
O7    O     O_3   0.337530 0.435890 0.487530 -0.368376
V1    V     V_3+5 0.064660 0.511890 0.502310 1.402518
O8    O     O_R   0.671950 0.404260 0.412040 -0.539949
C3    C     C_R   0.840494 0.383181 0.384645 0.709550
O9    O     O_R   0.674540 0.388300 0.547620 -0.539215
C4    C     C_R   0.843345 0.362026 0.564535 0.700484
V2    V     V_3+5 0.564030 0.488110 0.497690 1.409632
O10   O     O_3   0.841030 0.564110 0.512470 -0.374544
C5    C     C_R   0.861502 0.109707 0.610554 -0.159683
H1    H     H_    0.855963 0.159588 0.517477 0.106398
H2    H     H_    0.869798 0.983960 0.693178 0.117944
H3    H     H_    0.865279 0.030633 0.584594 0.112342
C6    C     C_R   0.851618 0.285019 0.604425 -0.031941
C7    C     C_R   0.857056 0.317363 0.931111 -0.175720
C8    C     C_R   0.851317 0.393838 0.895833 -0.114747
C9    C     C_R   0.850348 0.370580 0.825279 -0.158052
C10   C     C_R   0.855331 0.268893 0.787822 0.075254
C11   C     C_R   0.860312 0.190763 0.824442 0.071474
C12   C     C_R   0.855957 0.242110 0.715424 0.072383
C13   C     C_R   0.861171 0.138187 0.681580 0.143974
C14   C     C_R   0.865782 0.063269 0.718670 -0.207250
C15   C     C_R   0.865342 0.088946 0.788884 -0.197261
C16   C     C_R   0.851520 0.314668 0.675146 -0.213923
C17   C     C_R   0.856413 0.182751 0.572237 -0.174315
C18   C     C_R   0.861011 0.216145 0.896188 -0.069480
H4    H     H_    0.847123 0.394767 0.696835 0.090355
H5    H     H_    0.858485 0.337146 0.985976 0.099341
H6    H     H_    0.845977 0.434148 0.801810 0.105177
H7    H     H_    0.848072 0.472054 0.923382 0.113786
H8    H     H_    0.869089 0.027905 0.815141 0.107967
C19   C     C_R   0.707343 0.185415 0.225850 0.106568
C20   C     C_R   0.865915 0.185320 0.183728 -0.186085
C21   C     C_R   0.021787 0.248166 0.210338 -0.099359
H9    H     H_    0.144434 0.253176 0.178904 0.152589
C22   C     C_R   0.015707 0.310015 0.276215 -0.189343
H10   H     H_    0.135470 0.359422 0.293945 0.129033
C23   C     C_R   0.851589 0.313107 0.316975 -0.108447
C24   C     C_R   0.700124 0.247839 0.290905 0.017726
C25   C     C_3   0.495812 0.274525 0.282882 -0.463630
C26   C     C_3   0.504513 0.208346 0.212050 0.480274
H11   H     H_    0.477215 0.356073 0.283571 0.111855
H12   H     H_    0.400408 0.244384 0.317565 0.202897
H13   H     H_    0.488380 0.249607 0.170827 0.023675
C27   C     C_R   0.500280 0.679125 0.730091 0.101613
C28   C     C_R   0.351828 0.683778 0.684224 -0.110942
C29   C     C_R   0.195977 0.748153 0.708113 -0.175965
H14   H     H_    0.076936 0.753698 0.674787 0.129093
C30   C     C_R   0.197487 0.810938 0.773789 -0.172203
H15   H     H_    0.080627 0.863271 0.788889 0.125399
C31   C     C_R   0.355108 0.811465 0.817528 -0.106311
C32   C     C_R   0.502384 0.741800 0.794896 0.098919
C33   C     C_3   0.713518 0.759035 0.792404 -0.400425
C34   C     C_3   0.711040 0.690572 0.721889 -0.405310
H16   H     H_    0.793474 0.726545 0.829982 0.169688
H17   H     H_    0.748505 0.839028 0.792706 0.165938
H18   H     H_    0.789071 0.618352 0.718725 0.165721
H19   H     H_    0.744770 0.730716 0.681274 0.168221
C35   C     C_R   0.349037 0.885602 0.385171 -0.160570
H20   H     H_    0.391927 0.836269 0.477151 0.111738
H21   H     H_    0.276696 0.008503 0.302830 0.161146
H22   H     H_    0.350556 0.964782 0.410956 0.120609
C36   C     C_R   0.350275 0.710261 0.391779 -0.053355
C37   C     C_R   0.426831 0.684406 0.068978 -0.185588
C38   C     C_R   0.469429 0.611770 0.105857 0.212734
C39   C     C_R   0.445313 0.635708 0.176164 -0.215110
C40   C     C_R   0.363405 0.728338 0.209808 0.054514
C41   C     C_R   0.332159 0.803629 0.172422 0.035270
C42   C     C_R   0.336126 0.752964 0.281263 0.063667
C43   C     C_R   0.328074 0.856605 0.314770 0.089686
C44   C     C_R   0.296149 0.929854 0.277542 -0.158599
C45   C     C_R   0.285917 0.902295 0.207320 -0.141707
C46   C     C_R   0.315216 0.679689 0.321084 0.065086
C47   C     C_R   0.371544 0.812646 0.422841 -0.208130
C48   C     C_R   0.363153 0.780740 0.101691 -0.126177
H23   H     H_    0.454402 0.667855 0.015002 0.103480
H24   H     H_    0.499750 0.583380 0.204764 0.102336
H25   H     H_    0.252131 0.959967 0.180372 0.203931
O11   O     O_R   0.203450 0.916320 0.913910 -0.545238
O12   O     O_R   0.535520 0.888300 0.047620 -0.533883
O13   O     O_R   0.710860 0.083650 0.086100 -0.528110
C49   C     C_R   0.367096 0.860458 0.063369 0.721136
O14   O     O_R   0.532860 0.904250 0.912040 -0.546131
O15   O     O_R   0.708190 0.099710 0.949550 -0.542537
C50   C     C_R   0.364262 0.882635 0.884793 0.683217
O16   O     O_R   0.206120 0.900260 0.050460 -0.541050
O17   O     O_3   0.375280 0.064080 0.012470 -0.362494
V3    V     V_3+5 0.648180 0.988110 0.997690 1.445350
O18   O     O_R   0.038220 0.111740 0.952370 -0.543776
C51   C     C_R   0.869368 0.138344 0.935777 0.671015
O19   O     O_R   0.040880 0.095790 0.087940 -0.525417
C52   C     C_R   0.872472 0.118464 0.114805 0.714946
V4    V     V_3+5 0.148800 0.011950 0.002300 1.451714
O20   O     O_3   0.871820 0.935920 0.987530 -0.378349
F1    F     F_    0.390247 0.123523 0.204512 -0.707643
C53   C     C_3   0.203010 0.581738 0.294043 -0.382216
C54   C     C_3   0.987028 0.600135 0.302911 -0.700356
H26   H     H_    0.950194 0.630457 0.356821 0.238372
H27   H     H_    0.939027 0.654830 0.273021 0.222422
H28   H     H_    0.907585 0.528064 0.284472 0.192663
H29   H     H_    0.224248 0.548158 0.239889 0.180069
H30   H     H_    0.248067 0.522609 0.320511 0.159929
C55   C     C_3   0.550942 0.510808 0.070545 -0.379756
C56   C     C_3   0.399761 0.445749 0.025895 -0.742844
H31   H     H_    0.274312 0.433449 0.056804 0.219408
H32   H     H_    0.350885 0.482524 0.985154 0.226604
H33   H     H_    0.462241 0.371100 0.002046 0.223026
H34   H     H_    0.675353 0.522913 0.039125 0.174434
H35   H     H_    0.604335 0.468636 0.107931 0.166673

loop_
_geom_bond_atom_site_label_1
_geom_bond_atom_site_label_2
_ccdc_geom_bond_type
C9    C10   A    
C1    C28   S    
C39   C40   A    
C56   H31   S    
C1    O6    A    
C20   C52   S    
C54   H27   S    
O14   V3    S    
C25   H11   S    
C28   C29   A    
C7    H5    S    
C6    C16   A    
C9    H6    S    
C48   C49   S    
C40   C42   A    
C33   H17   S    
C4    C6    S    
C13   C14   A    
C27   C34   S    
O5    C3    A    
C35   H22   S    
V2    O10   S    
C5    H3    S    
C30   H15   S    
C15   H8    S    
C33   H16   S    
C21   H9    S    
C7    C18   A    
C36   C47   A    
C55   C56   S    
C29   H14   S    
O8    V2    S    
C26   H13   S    
O12   V3    S    
C8    C9    A    
C53   H29   S    
O1    V2    S    
O11   V4    S    
O7    V1    S    
C39   H24   S    
C37   C48   A    
O13   V3    S    
C32   C33   S    
O9    C4    A    
C49   O16   A    
C21   C22   A    
C2    C36   S    
C54   H26   S    
C25   H12   S    
C37   H23   S    
H21   C44   S    
C6    C17   A    
C38   C55   S    
C40   C41   A    
C46   C53   S    
C12   C16   A    
C42   C43   A    
C19   C20   A    
O4    C2    A    
C44   C45   A    
C38   C39   A    
C10   C11   A    
C43   C44   A    
C36   C46   A    
C33   C34   S    
C34   H18   S    
O2    C1    A    
C22   H10   S    
C14   C15   A    
C27   C32   A    
C29   C30   A    
C11   C18   A    
O14   C50   A    
C25   C26   S    
O17   V4    S    
C26   F1    S    
O18   C51   A    
C16   H4    S    
C56   H32   S    
O15   C51   A    
C22   C23   A    
O16   V4    S    
O3    C4    A    
C19   C24   A    
C20   C21   A    
C11   C15   A    
O6    V2    S    
O19   V4    S    
O12   C49   A    
H1    C17   S    
O2    V1    S    
C55   H35   S    
C45   H25   S    
C27   C28   A    
C35   C43   A    
C24   C25   S    
O1    C2    A    
C5    C13   A    
C42   C46   A    
C3    C23   S    
O5    V1    S    
O8    C3    A    
C41   C48   A    
H20   C47   S    
C10   C12   A    
C53   H30   S    
O9    V2    S    
C31   C32   A    
O4    V1    S    
O3    V1    S    
C8    H7    S    
C35   C47   A    
V1    O10   S    
C31   C50   S    
O18   V4    S    
V4    O20   S    
C30   C31   A    
C56   H33   S    
C18   C51   S    
C34   H19   S    
O7    V2    S    
O17   V3    S    
O13   C52   A    
O15   V3    S    
C23   C24   A    
C37   C38   A    
O19   C52   A    
C53   C54   S    
C5    C17   A    
C7    C8    A    
O11   C50   A    
C41   C45   A    
C55   H34   S    
C54   H28   S    
V3    O20   S    
C19   C26   S    
C12   C13   A    
H2    C14   S    
