data_mof_unit_25205.cif
_audit_creation_date              2012-12-11T15:54:45-0500
_audit_creation_method            fapswitch 2.2
_symmetry_space_group_name_H-M    P1
_symmetry_Int_Tables_number       1
_space_group_crystal_system       triclinic
_cell_length_a                    6.931326
_cell_length_b                    14.620265
_cell_length_c                    16.015981
_cell_angle_alpha                 89.977242
_cell_angle_beta                  89.882315
_cell_angle_gamma                 90.100317
_cell_volume                      1623.01860476

loop_
_atom_site_label
_atom_site_type_symbol
_atom_type_description
_atom_site_fract_x
_atom_site_fract_y
_atom_site_fract_z
_atom_type_partial_charge
O1    O     O_R   0.638180 0.333920 0.163320 -0.542766
O2    O     O_R   0.361820 0.666080 0.836680 -0.542765
O3    O     O_R   0.308470 0.344960 0.336080 -0.540725
O4    O     O_R   0.691530 0.655040 0.663920 -0.540725
O5    O     O_R   0.138140 0.166110 0.336680 -0.534655
O6    O     O_R   0.861860 0.833890 0.663320 -0.534654
C1    C     C_R   0.477578 0.367676 0.364655 0.690136
C2    C     C_R   0.522422 0.632324 0.635345 0.690137
O7    O     O_R   0.308460 0.344950 0.163930 -0.545532
O8    O     O_R   0.691540 0.655050 0.836070 -0.545532
O9    O     O_R   0.138140 0.166100 0.163310 -0.543892
O10   O     O_R   0.861860 0.833900 0.836690 -0.543892
C3    C     C_R   0.477701 0.367197 0.134995 0.678472
C4    C     C_R   0.522299 0.632803 0.865005 0.678472
O11   O     O_R   0.638180 0.333930 0.336700 -0.534062
O12   O     O_R   0.361820 0.666070 0.663300 -0.534063
O13   O     O_3   0.471670 0.191340 0.250000 -0.367910
O14   O     O_3   0.528330 0.808660 0.750000 -0.367910
V1    V     V_3+5 0.196830 0.260900 0.250000 1.418728
V2    V     V_3+5 0.803170 0.739100 0.750000 1.418728
O15   O     O_R   0.808420 0.155070 0.163920 -0.546527
O16   O     O_R   0.191580 0.844930 0.836080 -0.546527
C5    C     C_R   0.977542 0.132777 0.134999 0.666221
C6    C     C_R   0.022458 0.867223 0.865000 0.666221
O17   O     O_R   0.808420 0.155080 0.336070 -0.531670
O18   O     O_R   0.191580 0.844920 0.663930 -0.531671
C7    C     C_R   0.976776 0.134738 0.365999 0.799190
C8    C     C_R   0.023224 0.865262 0.634001 0.799191
V3    V     V_3+5 0.696830 0.239130 0.250000 1.427774
V4    V     V_3+5 0.303170 0.760870 0.750000 1.427773
O19   O     O_3   0.971850 0.308690 0.250010 -0.369759
O20   O     O_3   0.028150 0.691310 0.749990 -0.369759
H1    H     H_    0.070259 0.836027 0.243661 0.126289
H2    H     H_    0.929740 0.163973 0.756339 0.126289
C9    C     C_R   0.937169 0.187366 0.545131 0.186735
C10   C     C_R   0.062826 0.812634 0.454869 0.186735
C11   C     C_R   0.923691 0.210714 0.629745 -0.157129
C12   C     C_R   0.076305 0.789286 0.370254 -0.157129
C13   C     C_R   0.940314 0.144769 0.691203 -0.149544
C14   C     C_R   0.059685 0.855230 0.308797 -0.149544
C15   C     C_R   0.969868 0.054119 0.669472 -0.135272
C16   C     C_R   0.030133 0.945881 0.330528 -0.135272
C17   C     C_R   0.984219 0.026732 0.584814 0.007503
C18   C     C_R   0.015781 0.973268 0.415186 0.007503
C19   C     C_R   0.969002 0.094329 0.520597 0.072966
C20   C     C_R   0.030997 0.905671 0.479404 0.072966
C21   C     C_R   0.013980 0.933192 0.564726 -0.174517
C22   C     C_R   0.986020 0.066808 0.435274 -0.174517
H3    H     H_    0.899505 0.281167 0.647861 0.118984
H4    H     H_    0.100488 0.718833 0.352139 0.118984
H5    H     H_    0.981722 0.005859 0.720393 0.095185
H6    H     H_    0.018280 0.994141 0.279607 0.095185
C23   C     C_R   0.179546 0.974313 0.967773 -0.158583
C24   C     C_R   0.820454 0.025687 0.032227 -0.158583
H7    H     H_    0.320394 0.955532 0.944057 0.117463
H8    H     H_    0.679606 0.044468 0.055943 0.117463
C25   C     C_R   0.168466 0.037776 0.033081 -0.154667
C26   C     C_R   0.831534 0.962224 0.966919 -0.154667
H9    H     H_    0.301312 0.066095 0.057482 0.119504
H10   H     H_    0.698688 0.933905 0.942518 0.119504
C27   C     C_R   0.988760 0.064376 0.066232 -0.043990
C28   C     C_R   0.011240 0.935624 0.933768 -0.043989
C29   C     C_R   0.320472 0.468547 0.472539 -0.157712
C30   C     C_R   0.679527 0.531452 0.527461 -0.157714
H11   H     H_    0.179659 0.445612 0.452337 0.112188
H12   H     H_    0.820341 0.554387 0.547664 0.112188
C31   C     C_R   0.331716 0.530702 0.538822 -0.172099
C32   C     C_R   0.668284 0.469298 0.461178 -0.172098
C33   C     C_R   0.511348 0.563638 0.566803 -0.044326
C34   C     C_R   0.488652 0.436361 0.433197 -0.044326
C35   C     C_R   0.320601 0.474573 0.032727 -0.157911
C36   C     C_R   0.679398 0.525427 0.967272 -0.157911
H13   H     H_    0.179849 0.456015 0.056864 0.116209
H14   H     H_    0.820151 0.543985 0.943136 0.116209
C37   C     C_R   0.331516 0.538157 0.967485 -0.153834
C38   C     C_R   0.668484 0.461842 0.032515 -0.153834
H15   H     H_    0.198714 0.566789 0.943534 0.117847
H16   H     H_    0.801286 0.433211 0.056466 0.117847
C39   C     C_R   0.511065 0.564459 0.933822 -0.044333
C40   C     C_R   0.488935 0.435541 0.066178 -0.044333
N1    N     N_3   0.915027 0.259423 0.485528 -0.675595
H17   H     H_    0.778999 0.288405 0.494751 0.227515
H18   H     H_    0.019141 0.309364 0.497812 0.212344
N2    N     N_3   0.084960 0.740576 0.514471 -0.675596
H19   H     H_    0.220985 0.711590 0.505249 0.227514
H20   H     H_    0.980840 0.690638 0.502187 0.212346
H21   H     H_    0.198963 0.553070 0.568030 0.125755
H22   H     H_    0.801037 0.446929 0.431970 0.125756

loop_
_geom_bond_atom_site_label_1
_geom_bond_atom_site_label_2
_ccdc_geom_bond_type
C7    C22   S    
C26   C28   A    
C12   C14   A    
C29   H11   S    
C8    C21   S    
O13   V3    S    
O4    C2    A    
V1    O19   S    
C1    C34   S    
N1    H17   S    
C9    N1    S    
C13   C15   A    
O9    V1    S    
C2    C33   S    
C30   C32   A    
C9    C11   A    
C38   H16   S    
C36   C39   A    
O3    C1    A    
C24   C26   A    
C25   H9    S    
O12   V4    S    
O7    C3    A    
O5    C7    A    
O7    V1    S    
O6    C8    A    
O8    V2    S    
O3    V1    S    
O14   V4    S    
V4    O20   S    
C17   C21   A    
C36   C38   A    
C1    O11   A    
C3    C40   S    
C2    O12   A    
C15   C17   A    
C16   C18   A    
C35   C40   A    
N1    H18   S    
C18   C20   A    
O11   V3    S    
C24   H8    S    
C23   H7    S    
O17   V3    S    
C11   C13   A    
C29   C31   A    
H1    C14   S    
H2    C13   S    
N2    H19   S    
C36   H14   S    
O8    C4    A    
C35   H13   S    
C23   C25   A    
C30   C33   A    
O15   V3    S    
C31   C33   A    
C30   H12   S    
C11   H3    S    
C23   C28   A    
C29   C34   A    
V3    O19   S    
O10   V2    S    
O1    V3    S    
C4    C39   S    
C10   C20   A    
C37   H15   S    
O5    V1    S    
O18   V4    S    
O15   C5    A    
C32   H22   S    
O16   C6    A    
O1    C3    A    
C9    C19   A    
V2    O20   S    
C19   C22   A    
C20   C21   A    
C6    C28   S    
O16   V4    S    
O18   C8    A    
C38   C40   A    
N2    H20   S    
C14   C16   A    
C25   C27   A    
C12   H4    S    
C24   C27   A    
O17   C7    A    
O6    V2    S    
O10   C6    A    
C31   H21   S    
O2    V4    S    
C10   C12   A    
C17   C19   A    
C35   C37   A    
C37   C39   A    
C10   N2    S    
O9    C5    A    
O13   V1    S    
O14   V2    S    
O2    C4    A    
O4    V2    S    
C5    C27   S    
C32   C34   A    
C26   H10   S    
C15   H5    S    
C18   C22   A    
C16   H6    S    
