data_mof_unit_26191.cif
_audit_creation_date              2012-12-11T15:09:43-0500
_audit_creation_method            fapswitch 2.2
_symmetry_space_group_name_H-M    P1
_symmetry_Int_Tables_number       1
_space_group_crystal_system       triclinic
_cell_length_a                    20.983847
_cell_length_b                    7.127042
_cell_length_c                    14.091157
_cell_angle_alpha                 90.0
_cell_angle_beta                  98.528304
_cell_angle_gamma                 89.999974
_cell_volume                      2084.06962044

loop_
_atom_site_label
_atom_site_type_symbol
_atom_type_description
_atom_site_fract_x
_atom_site_fract_y
_atom_site_fract_z
_atom_type_partial_charge
O1    O     O_R   0.447130 0.507140 0.597350 -0.541309
O2    O     O_R   0.552870 0.007140 0.402650 -0.541307
O3    O     O_R   0.578910 0.181280 0.586990 -0.543655
O4    O     O_R   0.421090 0.681280 0.413010 -0.543655
C1    C     C_R   0.604402 0.344543 0.607570 0.723651
C2    C     C_R   0.395598 0.844543 0.392429 0.723650
O5    O     O_R   0.449230 0.177860 0.608640 -0.544141
O6    O     O_R   0.550770 0.677860 0.391360 -0.544142
O7    O     O_R   0.422260 0.000770 0.424450 -0.534657
O8    O     O_R   0.577740 0.500770 0.575550 -0.534657
C3    C     C_R   0.430918 0.346529 0.631798 0.718154
C4    C     C_R   0.569082 0.846529 0.368201 0.718153
O9    O     O_3   0.491310 0.336980 0.439550 -0.375442
O10   O     O_3   0.508690 0.836980 0.560450 -0.375441
V1    V     V_3+5 0.501610 0.064760 0.511210 1.388316
V2    V     V_3+5 0.498390 0.564760 0.488790 1.388313
C5    C     C_R   0.625327 0.971788 0.136200 -0.160245
C6    C     C_R   0.374673 0.471783 0.863800 -0.160244
H1    H     H_    0.711314 0.079166 0.027257 0.125450
H2    H     H_    0.288687 0.579147 0.972748 0.125450
H3    H     H_    0.606237 0.027921 0.066458 0.135190
H4    H     H_    0.393763 0.527911 0.933543 0.135190
C7    C     C_R   0.611417 0.862519 0.294660 -0.098471
C8    C     C_R   0.388583 0.362521 0.705339 -0.098466
C9    C     C_R   0.917584 0.727105 0.286713 -0.152344
C10   C     C_R   0.082415 0.227113 0.713285 -0.152347
C11   C     C_R   0.876689 0.638088 0.341197 -0.121299
C12   C     C_R   0.123309 0.138104 0.658797 -0.121297
C13   C     C_R   0.810952 0.674153 0.323984 -0.187656
C14   C     C_R   0.189047 0.174167 0.676009 -0.187656
C15   C     C_R   0.785542 0.815365 0.258799 0.085325
C16   C     C_R   0.214457 0.315370 0.741199 0.085321
C17   C     C_R   0.826026 0.888218 0.195026 0.071848
C18   C     C_R   0.173974 0.388216 0.804975 0.071849
C19   C     C_R   0.719301 0.869122 0.247669 0.032122
C20   C     C_R   0.280699 0.369127 0.752330 0.032118
C21   C     C_R   0.692010 0.950388 0.159131 0.070805
C22   C     C_R   0.307989 0.450384 0.840869 0.070808
C23   C     C_R   0.731669 0.010939 0.093645 -0.182032
C24   C     C_R   0.268331 0.510927 0.906358 -0.182031
C25   C     C_R   0.798040 0.988437 0.113441 -0.195730
C26   C     C_R   0.201960 0.488426 0.886562 -0.195728
C27   C     C_R   0.679530 0.851147 0.321181 0.049505
C28   C     C_R   0.320470 0.351156 0.678817 0.049504
C29   C     C_R   0.583968 0.919815 0.201270 0.091983
C30   C     C_R   0.416031 0.419813 0.798729 0.091981
C31   C     C_R   0.892637 0.844716 0.210324 -0.088013
C32   C     C_R   0.107363 0.344718 0.789676 -0.088010
H5    H     H_    0.968155 0.688920 0.297706 0.107111
H6    H     H_    0.031844 0.188929 0.702292 0.107111
H7    H     H_    0.780086 0.589445 0.361783 0.120408
H8    H     H_    0.219912 0.089465 0.638207 0.120409
H9    H     H_    0.895663 0.534865 0.394337 0.121268
H10   H     H_    0.104335 0.034887 0.605654 0.121268
H11   H     H_    0.826695 0.042240 0.061716 0.132387
H12   H     H_    0.173305 0.542222 0.938289 0.132384
C33   C     C_1   0.166625 0.857102 0.168286 -0.193990
C34   C     C_1   0.833375 0.357102 0.831713 -0.193990
C35   C     C_1   0.219051 0.854838 0.219367 0.000641
C36   C     C_1   0.780949 0.354838 0.780632 0.000641
C37   C     C_1   0.280824 0.853467 0.279335 -0.001590
C38   C     C_1   0.719176 0.353467 0.720665 -0.001588
C39   C     C_1   0.333210 0.851208 0.330493 -0.201690
C40   C     C_1   0.666790 0.351207 0.669507 -0.201689
O11   O     O_R   0.922300 0.202240 0.924350 -0.536096
O12   O     O_R   0.077700 0.702240 0.075650 -0.536096
O13   O     O_R   0.050780 0.535130 0.891350 -0.546346
O14   O     O_R   0.949220 0.035130 0.108650 -0.546346
C41   C     C_R   0.067538 0.366847 0.865892 0.686455
C42   C     C_R   0.932462 0.866847 0.134108 0.686455
O15   O     O_R   0.921100 0.531560 0.912990 -0.535569
O16   O     O_R   0.078900 0.031560 0.087010 -0.535569
O17   O     O_R   0.947120 0.708470 0.097370 -0.535017
O18   O     O_R   0.052880 0.208470 0.902630 -0.535017
C43   C     C_R   0.895868 0.363556 0.893452 0.712534
C44   C     C_R   0.104131 0.863556 0.106548 0.712534
O19   O     O_3   0.008710 0.375800 0.060400 -0.374388
O20   O     O_3   0.991290 0.875800 0.939600 -0.374387
V3    V     V_3+5 0.998380 0.648080 0.988790 1.426414
V4    V     V_3+5 0.001620 0.148080 0.011210 1.426413
C45   C     C_3   0.510640 0.931248 0.175323 -0.343512
C46   C     C_3   0.485069 0.011353 0.076451 -0.772406
H13   H     H_    0.501630 0.158141 0.071634 0.225664
H14   H     H_    0.501330 0.925888 0.018966 0.223324
H15   H     H_    0.431555 0.010884 0.065703 0.222314
H16   H     H_    0.490362 0.788094 0.180232 0.169798
H17   H     H_    0.491031 0.021340 0.228466 0.184013
C47   C     C_3   0.489360 0.431249 0.824675 -0.343512
C48   C     C_3   0.514931 0.511349 0.923549 -0.772406
H18   H     H_    0.498368 0.658135 0.928369 0.225665
H19   H     H_    0.498671 0.425877 0.981032 0.223324
H20   H     H_    0.568445 0.510884 0.934296 0.222314
H21   H     H_    0.509639 0.288098 0.819763 0.169797
H22   H     H_    0.508967 0.521346 0.771533 0.184014
C49   C     C_3   0.709222 0.841335 0.427771 -0.405118
C50   C     C_3   0.689571 0.001513 0.489463 -0.690635
H23   H     H_    0.675156 0.128588 0.445823 0.225191
H24   H     H_    0.650169 0.952930 0.527556 0.238956
H25   H     H_    0.730220 0.040540 0.545922 0.198573
H26   H     H_    0.697234 0.704254 0.458384 0.173848
H27   H     H_    0.762119 0.854905 0.437749 0.200097
C51   C     C_3   0.290776 0.341350 0.572227 -0.405127
C52   C     C_3   0.310435 0.501508 0.510530 -0.690617
H28   H     H_    0.324854 0.628586 0.554165 0.225192
H29   H     H_    0.349836 0.452902 0.472441 0.238954
H30   H     H_    0.269789 0.540538 0.454067 0.198569
H31   H     H_    0.302754 0.204257 0.541616 0.173848
H32   H     H_    0.237880 0.354952 0.562253 0.200099

loop_
_geom_bond_atom_site_label_1
_geom_bond_atom_site_label_2
_ccdc_geom_bond_type
O14   V4    S    
C14   C16   A    
C7    C29   A    
C11   C13   A    
C49   C50   S    
O1    C3    A    
C32   C41   S    
O16   C44   A    
O2    C4    A    
C2    O7    A    
O15   V3    S    
C45   C46   S    
C23   C25   A    
O5    C3    A    
O12   V3    S    
C4    C7    S    
C16   C20   A    
C33   C44   S    
C19   C21   A    
C5    C29   A    
C10   H6    S    
H2    C24   S    
O20   V4    S    
C33   C35   T    
C34   C36   T    
C50   H25   S    
C3    C8    S    
C7    C27   A    
C36   C38   S    
C37   C39   T    
C25   H11   S    
C38   C40   T    
C26   H12   S    
C18   C26   A    
C27   C49   S    
C15   C17   A    
C51   H32   S    
C48   H19   S    
C19   C27   A    
C9    C31   A    
C45   H16   S    
C10   C32   A    
C24   C26   A    
O6    V2    S    
O11   V4    S    
O18   V4    S    
C13   C15   A    
C6    C30   A    
C34   C43   S    
C30   C47   S    
O19   V3    S    
C47   H22   S    
C35   C37   S    
C51   H31   S    
O13   V3    S    
O4    C2    A    
C28   C51   S    
C49   H26   S    
O5    V1    S    
C5    H3    S    
C1    C40   S    
C50   H24   S    
O13   C41   A    
C16   C18   A    
C2    C39   S    
O4    V2    S    
C31   C42   S    
O6    C4    A    
O12   C44   A    
C50   H23   S    
C42   O17   A    
O17   V3    S    
C41   O18   A    
C52   H29   S    
O1    V2    S    
C5    C21   A    
C48   H20   S    
O2    V1    S    
C45   H17   S    
H1    C23   S    
O14   C42   A    
C46   H14   S    
C17   C31   A    
C15   C19   A    
C20   C28   A    
C18   C32   A    
O3    V1    S    
C13   H7    S    
O19   V4    S    
C14   H8    S    
C47   H21   S    
C12   H10   S    
C6    H4    S    
C29   C45   S    
O3    C1    A    
C11   H9    S    
C9    C11   A    
C46   H15   S    
C10   C12   A    
O11   C43   A    
C8    C30   A    
C12   C14   A    
C6    C22   A    
C17   C25   A    
C1    O8    A    
C21   C23   A    
O8    V2    S    
O15   C43   A    
O20   V3    S    
C22   C24   A    
C8    C28   A    
C20   C22   A    
C52   H30   S    
O7    V1    S    
C51   C52   S    
C9    H5    S    
C47   C48   S    
O16   V4    S    
C46   H13   S    
O9    V2    S    
C52   H28   S    
O10   V1    S    
C48   H18   S    
C49   H27   S    
