data_mof_unit_41262.cif
_audit_creation_date              2012-12-11T15:06:37-0500
_audit_creation_method            fapswitch 2.2
_symmetry_space_group_name_H-M    P1
_symmetry_Int_Tables_number       1
_space_group_crystal_system       triclinic
_cell_length_a                    7.222822
_cell_length_b                    15.106374
_cell_length_c                    22.594713
_cell_angle_alpha                 89.999672
_cell_angle_beta                  89.999171
_cell_angle_gamma                 90.010413
_cell_volume                      2465.32379154

loop_
_atom_site_label
_atom_site_type_symbol
_atom_type_description
_atom_site_fract_x
_atom_site_fract_y
_atom_site_fract_z
_atom_type_partial_charge
O1    O     O_R   0.390810 0.844810 0.447340 -0.533698
O2    O     O_R   0.109190 0.155190 0.947340 -0.533698
O3    O     O_R   0.890810 0.655190 0.552660 -0.533733
O4    O     O_R   0.609190 0.344810 0.052660 -0.533735
O5    O     O_R   0.720550 0.655820 0.440420 -0.540215
O6    O     O_R   0.779450 0.344180 0.940420 -0.540211
O7    O     O_R   0.220550 0.844180 0.559580 -0.540242
O8    O     O_R   0.279450 0.155820 0.059580 -0.540243
C1    C     C_R   0.551701 0.626258 0.426940 0.671034
C2    C     C_R   0.948300 0.373743 0.926941 0.671035
C3    C     C_R   0.051727 0.873693 0.573091 0.670991
C4    C     C_R   0.448272 0.126307 0.073091 0.670995
O9    O     O_R   0.720530 0.844130 0.440420 -0.541602
O10   O     O_R   0.779470 0.155870 0.940420 -0.541601
O11   O     O_R   0.220530 0.655870 0.559580 -0.541639
O12   O     O_R   0.279470 0.344130 0.059580 -0.541639
O13   O     O_R   0.890830 0.844810 0.552660 -0.531960
O14   O     O_R   0.609170 0.155190 0.052660 -0.531960
O15   O     O_R   0.390830 0.655190 0.447340 -0.531944
O16   O     O_R   0.109170 0.344810 0.947340 -0.531945
C5    C     C_R   0.551902 0.870368 0.424171 0.687401
C6    C     C_R   0.948100 0.129632 0.924171 0.687399
C7    C     C_R   0.051865 0.629682 0.575857 0.687254
C8    C     C_R   0.448134 0.370318 0.075858 0.687248
O17   O     O_3   0.557310 0.749980 0.536820 -0.374192
O18   O     O_3   0.942690 0.250020 0.036820 -0.374193
O19   O     O_3   0.057310 0.750020 0.463180 -0.374130
O20   O     O_3   0.442690 0.249980 0.963180 -0.374129
V1    V     V_3+5 0.832160 0.749980 0.493170 1.419624
V2    V     V_3+5 0.667840 0.250020 0.993170 1.419624
V3    V     V_3+5 0.332160 0.750020 0.506830 1.419575
V4    V     V_3+5 0.167840 0.249980 0.006830 1.419576
C9    C     C_R   0.057580 0.600156 0.869807 -0.154973
C10   C     C_R   0.442301 0.399855 0.369811 -0.154971
C11   C     C_R   0.555513 0.899722 0.130285 -0.154933
C12   C     C_R   0.944508 0.100276 0.630285 -0.154941
H1    H     H_    0.015392 0.542765 0.955380 0.105756
H2    H     H_    0.484474 0.457242 0.455385 0.105759
H3    H     H_    0.512982 0.957047 0.044711 0.105723
H4    H     H_    0.987015 0.042946 0.544711 0.105725
H5    H     H_    0.187055 0.711476 0.792450 0.117518
H6    H     H_    0.312813 0.288546 0.292454 0.117517
H7    H     H_    0.684600 0.788239 0.207587 0.117487
H8    H     H_    0.815439 0.211762 0.707586 0.117490
H9    H     H_    0.099816 0.663076 0.888528 0.106648
H10   H     H_    0.400005 0.336941 0.388534 0.106638
H11   H     H_    0.596660 0.836634 0.111568 0.106786
H12   H     H_    0.903369 0.163362 0.611568 0.106793
C13   C     C_R   0.962621 0.448752 0.885587 -0.027154
C14   C     C_R   0.537375 0.551247 0.385588 -0.027158
C15   C     C_R   0.462423 0.051372 0.114497 -0.026951
C16   C     C_R   0.037574 0.948629 0.614495 -0.026948
C17   C     C_R   0.973794 0.476582 0.596464 -0.156848
C18   C     C_R   0.526212 0.523415 0.096462 -0.156846
C19   C     C_R   0.475051 0.023654 0.403637 -0.157075
C20   C     C_R   0.024933 0.976348 0.903635 -0.157086
C21   C     C_R   0.920900 0.407751 0.633136 -0.129807
C22   C     C_R   0.579099 0.592245 0.133132 -0.129821
C23   C     C_R   0.423158 0.092694 0.366997 -0.129526
C24   C     C_R   0.076834 0.907316 0.866994 -0.129540
C25   C     C_R   0.928331 0.417340 0.694109 -0.144111
C26   C     C_R   0.571663 0.582658 0.194105 -0.144115
C27   C     C_R   0.430416 0.083157 0.306013 -0.144263
C28   C     C_R   0.069597 0.916857 0.806010 -0.144282
C29   C     C_R   0.998576 0.495105 0.720692 0.049812
C30   C     C_R   0.501419 0.504896 0.220691 0.049812
C31   C     C_R   0.499325 0.005171 0.279392 0.049745
C32   C     C_R   0.000697 0.994838 0.779389 0.049745
C33   C     C_R   0.062210 0.565808 0.682949 0.048002
C34   C     C_R   0.437774 0.434194 0.182948 0.047997
C35   C     C_R   0.562229 0.934302 0.317105 0.048115
C36   C     C_R   0.937795 0.065704 0.817103 0.048136
C37   C     C_R   0.003377 0.504778 0.783867 0.071205
C38   C     C_R   0.496610 0.495225 0.283866 0.071199
C39   C     C_R   0.503540 0.995430 0.216216 0.071239
C40   C     C_R   0.996483 0.004577 0.716215 0.071242
C41   C     C_R   0.060139 0.586476 0.808336 0.105569
C42   C     C_R   0.439785 0.413534 0.308338 0.105568
C43   C     C_R   0.558954 0.913521 0.191743 0.105518
C44   C     C_R   0.941074 0.086482 0.691742 0.105516
C45   C     C_R   0.130815 0.652412 0.772000 -0.192914
C46   C     C_R   0.369093 0.347601 0.272002 -0.192913
C47   C     C_R   0.629219 0.847463 0.228050 -0.192626
C48   C     C_R   0.870820 0.152540 0.728049 -0.192628
C49   C     C_R   0.143390 0.641529 0.710675 0.085825
C50   C     C_R   0.356562 0.358479 0.210676 0.085826
C51   C     C_R   0.642544 0.858427 0.289349 0.085916
C52   C     C_R   0.857494 0.141579 0.789348 0.085910
C53   C     C_R   0.958996 0.435405 0.824002 -0.212318
C54   C     C_R   0.541042 0.564594 0.324000 -0.212297
C55   C     C_R   0.459720 0.064878 0.176079 -0.212396
C56   C     C_R   0.040293 0.935129 0.676077 -0.212398
C57   C     C_R   0.008853 0.531884 0.908023 -0.160742
C58   C     C_R   0.491057 0.468121 0.408027 -0.160733
C59   C     C_R   0.507227 0.968054 0.092070 -0.160853
C60   C     C_R   0.992775 0.031943 0.592068 -0.160857
C61   C     C_R   0.039943 0.556508 0.619677 -0.076615
C62   C     C_R   0.460054 0.443492 0.119676 -0.076607
C63   C     C_R   0.540210 0.943594 0.380380 -0.076520
C64   C     C_R   0.959796 0.056409 0.880379 -0.076508
H13   H     H_    0.933384 0.369345 0.808812 0.101394
H14   H     H_    0.566737 0.630654 0.308808 0.101377
H15   H     H_    0.435114 0.131066 0.191246 0.101264
H16   H     H_    0.064902 0.868945 0.691244 0.101269
H17   H     H_    0.956496 0.468499 0.549089 0.108978
H18   H     H_    0.543515 0.531496 0.049087 0.108979
H19   H     H_    0.457969 0.031737 0.451019 0.108927
H20   H     H_    0.041995 0.968263 0.951017 0.108926
H21   H     H_    0.873464 0.363115 0.719356 0.106692
H22   H     H_    0.626511 0.636886 0.219350 0.106696
H23   H     H_    0.376543 0.137615 0.280789 0.106956
H24   H     H_    0.123475 0.862406 0.780785 0.106959
H25   H     H_    0.866476 0.347323 0.614074 0.110718
H26   H     H_    0.633519 0.652670 0.114069 0.110725
H27   H     H_    0.369716 0.153278 0.386093 0.110725
H28   H     H_    0.130267 0.846735 0.886089 0.110737
C65   C     C_3   0.261267 0.707932 0.678604 -0.717735
H29   H     H_    0.375094 0.673467 0.655034 0.226089
H30   H     H_    0.174234 0.746664 0.648358 0.189169
H31   H     H_    0.328289 0.756089 0.709000 0.183468
C66   C     C_3   0.238695 0.292075 0.178603 -0.717723
H32   H     H_    0.124874 0.326539 0.155031 0.226089
H33   H     H_    0.325737 0.253342 0.148359 0.189167
H34   H     H_    0.171667 0.243917 0.208997 0.183465
C67   C     C_3   0.760478 0.791997 0.321345 -0.717992
H35   H     H_    0.874533 0.826428 0.344835 0.226048
H36   H     H_    0.673552 0.753325 0.351664 0.189210
H37   H     H_    0.827212 0.743830 0.290902 0.183329
C68   C     C_3   0.739566 0.208010 0.821344 -0.718008
H38   H     H_    0.625508 0.173582 0.844835 0.226051
H39   H     H_    0.826492 0.246680 0.851663 0.189205
H40   H     H_    0.672839 0.256178 0.790902 0.183334

loop_
_geom_bond_atom_site_label_1
_geom_bond_atom_site_label_2
_ccdc_geom_bond_type
O17   V3    S    
C47   C51   A    
C22   C26   A    
C19   C23   A    
O19   V1    S    
C9    H9    S    
O3    C7    A    
H6    C46   S    
C44   C48   A    
O15   V3    S    
C36   C64   A    
C29   C37   A    
O1    C5    A    
C8    C62   S    
C28   C32   A    
O9    V1    S    
H4    C60   S    
C65   H30   S    
C18   C22   A    
O4    C8    A    
C29   C33   A    
C28   H24   S    
C30   C38   A    
H7    C47   S    
O1    V3    S    
O13   V1    S    
O2    V4    S    
O3    V1    S    
C12   C60   A    
C20   H20   S    
C66   H34   S    
C3    C16   S    
C15   C55   A    
C1    O15   A    
C54   H14   S    
C2    O16   A    
O2    C6    A    
C67   H37   S    
C16   C60   A    
O14   V2    S    
C39   C55   A    
C68   H40   S    
C53   H13   S    
O11   C7    A    
C25   H21   S    
C11   H11   S    
O12   C8    A    
C52   C68   S    
O10   V2    S    
C36   C52   A    
C14   C54   A    
O5    V1    S    
C27   C31   A    
C6    C64   S    
C18   H18   S    
O9    C5    A    
O8    V4    S    
C40   C44   A    
O7    V3    S    
C12   C44   A    
C65   H31   S    
C13   C53   A    
C26   C30   A    
O18   V4    S    
C14   C58   A    
C21   H25   S    
C17   C61   A    
C46   C50   A    
C35   C63   A    
O11   V3    S    
C20   C24   A    
C19   H19   S    
C32   C36   A    
O7    C3    A    
O5    C1    A    
C25   C29   A    
C42   C46   A    
C26   H22   S    
C41   C45   A    
O8    C4    A    
H5    C45   S    
H2    C58   S    
C50   C66   S    
H1    C57   S    
C49   C65   S    
H3    C59   S    
C66   H32   S    
C40   C56   A    
C10   H10   S    
C7    C61   S    
C10   C58   A    
C67   H35   S    
C35   C51   A    
C16   C56   A    
C32   C40   A    
C20   C64   A    
C19   C63   A    
C34   C50   A    
C51   C67   S    
C4    C15   S    
C33   C49   A    
C67   H36   S    
C68   H38   S    
O16   V4    S    
C3    O13   A    
C17   C21   A    
O6    V2    S    
C1    C14   S    
C48   C52   A    
C55   H15   S    
H8    C48   S    
C9    C57   A    
O6    C2    A    
C21   C25   A    
C11   C59   A    
O12   V4    S    
C23   C27   A    
C24   C28   A    
O10   C6    A    
O20   V2    S    
C37   C53   A    
C65   H29   S    
C10   C42   A    
C43   C47   A    
C9    C41   A    
C30   C34   A    
C5    C63   S    
C38   C54   A    
C11   C43   A    
C12   H12   S    
C31   C35   A    
C27   H23   S    
O4    V2    S    
C66   H33   S    
C24   H28   S    
C56   H16   S    
C17   H17   S    
C31   C39   A    
C23   H27   S    
C38   C42   A    
C4    O14   A    
C22   H26   S    
C37   C41   A    
C18   C62   A    
C13   C57   A    
C2    C13   S    
C39   C43   A    
C45   C49   A    
C34   C62   A    
C15   C59   A    
C68   H39   S    
C33   C61   A    
