data_mof_unit_21751.cif
_audit_creation_date              2012-12-10T17:03:58-0500
_audit_creation_method            fapswitch 2.2
_symmetry_space_group_name_H-M    P1
_symmetry_Int_Tables_number       1
_space_group_crystal_system       triclinic
_cell_length_a                    9.796386
_cell_length_b                    11.035955
_cell_length_c                    15.846605
_cell_angle_alpha                 94.655154
_cell_angle_beta                  79.310618
_cell_angle_gamma                 111.275079
_cell_volume                      1568.57589718

loop_
_atom_site_label
_atom_site_type_symbol
_atom_type_description
_atom_site_fract_x
_atom_site_fract_y
_atom_site_fract_z
_atom_type_partial_charge
C1    C     C_R   0.555935 0.745418 0.506585 0.839701
C2    C     C_2   0.513870 0.069213 0.504807 -0.163141
C3    C     C_2   0.923253 0.490422 0.492417 -0.076473
C4    C     C_2   0.076980 0.509950 0.507376 -0.078477
C5    C     C_R   0.411872 0.488490 0.662901 0.818690
C6    C     C_R   0.588942 0.515339 0.337170 0.818718
C7    C     C_R   0.359048 0.477207 0.756159 -0.138512
C8    C     C_R   0.640334 0.520839 0.243613 -0.139287
C9    C     C_R   0.159581 0.401562 0.876862 -0.209063
C10   C     C_R   0.822719 0.510254 0.119822 -0.202860
C11   C     C_R   0.207187 0.421551 0.788964 -0.273124
C12   C     C_R   0.443705 0.254511 0.494049 0.863649
C13   C     C_R   0.779555 0.513743 0.208605 -0.273986
C14   C     C_R   0.462992 0.516519 0.812839 0.389500
C15   C     C_R   0.545809 0.527706 0.188428 0.387539
C16   C     C_R   0.417772 0.476506 0.899279 -0.029601
C17   C     C_R   0.577959 0.501399 0.099617 -0.031811
C18   C     C_R   0.263560 0.427933 0.932193 0.117494
C19   C     C_R   0.722867 0.503497 0.065082 0.115709
C20   C     C_R   0.520864 0.485390 0.954135 0.061944
C21   C     C_R   0.471727 0.476137 0.044094 0.060448
C22   C     C_3   0.455911 0.695300 0.200927 0.047789
C23   C     C_R   0.317199 0.430767 0.075171 -0.181902
C24   C     C_3   0.507829 0.785793 0.276249 -0.320312
C25   C     C_3   0.533001 0.926554 0.257799 -0.927674
C26   C     C_3   0.625625 0.728010 0.810787 0.044355
C27   C     C_3   0.611202 0.803462 0.738008 -0.327733
C28   C     C_3   0.640659 0.946070 0.762875 -0.926479
C29   C     C_R   0.667627 0.491344 0.921618 -0.178519
C30   C     C_R   0.215010 0.404429 0.019744 -0.242655
C31   C     C_R   0.765656 0.497297 0.976370 -0.239057
C32   C     C_2   0.586995 0.884471 0.511198 -0.360040
C33   C     C_2   0.411583 0.115266 0.491430 -0.353794
C34   C     C_2   0.482508 0.930290 0.501620 -0.159558
Cu1   Cu    Cu3+1 0.362980 0.479380 0.485080 0.946303
Cu2   Cu    Cu3+1 0.637020 0.520620 0.514920 0.947150
H1    H     H_    0.097353 0.365792 0.045641 0.139110
H2    H     H_    0.373374 0.865192 0.490331 0.181178
H3    H     H_    0.303632 0.049939 0.478546 0.151593
H4    H     H_    0.695978 0.949830 0.522433 0.152695
H5    H     H_    0.122601 0.577800 0.557263 0.158676
H6    H     H_    0.877771 0.422782 0.442400 0.157159
H7    H     H_    0.111325 0.384724 0.415546 0.198008
H8    H     H_    0.888529 0.615131 0.584560 0.200356
H9    H     H_    0.350816 0.702714 0.189313 0.165407
H10   H     H_    0.538390 0.728628 0.140955 0.127050
H11   H     H_    0.422366 0.754248 0.334728 0.242979
H12   H     H_    0.875828 0.497856 0.949063 0.142397
H13   H     H_    0.613311 0.780148 0.288647 0.201483
H14   H     H_    0.618348 0.960388 0.199536 0.255049
H15   H     H_    0.572523 0.989798 0.312978 0.271107
H16   H     H_    0.427693 0.935581 0.248086 0.255509
H17   H     H_    0.739530 0.774184 0.826321 0.166478
H18   H     H_    0.547851 0.736197 0.870332 0.127130
H19   H     H_    0.692285 0.797756 0.680074 0.238370
H20   H     H_    0.497437 0.759424 0.722038 0.200675
H21   H     H_    0.559426 0.954396 0.820017 0.258821
H22   H     H_    0.629112 0.997544 0.708725 0.262689
H23   H     H_    0.855306 0.511465 0.249788 0.174892
H24   H     H_    0.755118 0.993392 0.777380 0.254334
H25   H     H_    0.125273 0.393372 0.746727 0.178078
H26   H     H_    0.041475 0.361223 0.901231 0.141735
H27   H     H_    0.932626 0.508883 0.093977 0.144037
H28   H     H_    0.272389 0.405552 0.141577 0.195670
H29   H     H_    0.705670 0.481573 0.853878 0.197988
H30   H     H_    0.622101 0.134223 0.517582 0.182421
N1    N     N_2   0.842890 0.551600 0.537350 -0.280762
N2    N     N_2   0.157110 0.448400 0.462650 -0.279655
O1    O     O_R   0.426810 0.668300 0.492040 -0.587096
O2    O     O_3   0.607175 0.598252 0.783679 -0.618734
O3    O     O_R   0.573190 0.331700 0.507960 -0.580184
O4    O     O_R   0.658240 0.703130 0.517240 -0.582386
O5    O     O_R   0.341760 0.296870 0.482760 -0.575864
O6    O     O_R   0.319390 0.472820 0.610170 -0.592144
O7    O     O_R   0.680610 0.527180 0.389830 -0.591309
O8    O     O_R   0.550820 0.507640 0.635370 -0.521740
O9    O     O_R   0.449180 0.492360 0.364630 -0.521814
O10   O     O_3   0.425065 0.564476 0.221798 -0.616316

loop_
_geom_bond_atom_site_label_1
_geom_bond_atom_site_label_2
_ccdc_geom_bond_type
Cu1   O6    S    
C8    C13   A    
Cu1   Cu2   S    
C19   C31   A    
Cu2   N1    S    
C6    O7    A    
C3    H6    S    
C28   H21   S    
C7    C11   A    
C26   C27   S    
C33   H3    S    
C27   H19   S    
C15   O10   S    
C4    H5    S    
C5    O6    A    
C25   H14   S    
Cu2   O8    S    
C7    C14   A    
C10   H27   S    
H7    N2    S    
C18   C30   A    
Cu2   O3    S    
C2    C34   S    
C12   O5    A    
C14   O2    S    
C26   H18   S    
C20   C29   A    
C28   H24   S    
C1    O4    A    
C9    H26   S    
C23   C30   A    
C24   C25   S    
C22   O10   S    
C4    N2    D    
C27   H20   S    
C6    O9    A    
C6    C8    S    
C11   H25   S    
Cu1   O9    S    
C1    C32   S    
C17   C21   A    
C30   H1    S    
C32   C34   D    
C25   H15   S    
Cu2   O7    S    
C10   C19   A    
C16   C20   A    
C9    C11   A    
C29   H29   S    
C2    C33   D    
C23   H28   S    
C22   H10   S    
C12   O3    A    
C8    C15   A    
C31   H12   S    
C21   C23   A    
C26   O2    S    
C14   C16   A    
C3    C4    S    
C26   H17   S    
C5    C7    S    
C24   H13   S    
C15   C17   A    
Cu1   O5    S    
C34   H2    S    
C24   H11   S    
C3    N1    D    
C2    H30   S    
C10   C13   A    
C13   H23   S    
C28   H22   S    
C5    O8    A    
C25   H16   S    
C29   C31   A    
Cu1   N2    S    
C17   C19   A    
C22   C24   S    
C32   H4    S    
C1    O1    A    
C9    C18   A    
C22   H9    S    
C20   C21   A    
Cu1   O1    S    
C16   C18   A    
C27   C28   S    
H8    N1    S    
C12   C33   S    
Cu2   O4    S    
