data_mof_unit_21359.cif
_audit_creation_date              2012-12-11T14:58:20-0500
_audit_creation_method            fapswitch 2.2
_symmetry_space_group_name_H-M    P1
_symmetry_Int_Tables_number       1
_space_group_crystal_system       triclinic
_cell_length_a                    10.949058
_cell_length_b                    10.917446
_cell_length_c                    18.785172
_cell_angle_alpha                 90.205103
_cell_angle_beta                  90.290786
_cell_angle_gamma                 59.967172
_cell_volume                      1943.9896656

loop_
_atom_site_label
_atom_site_type_symbol
_atom_type_description
_atom_site_fract_x
_atom_site_fract_y
_atom_site_fract_z
_atom_type_partial_charge
C1    C     C_R   0.359211 0.773292 0.397902 0.537410
C2    C     C_R   0.615587 0.115302 0.164544 0.059541
C3    C     C_R   0.366909 0.334755 0.160044 -0.002229
C4    C     C_R   0.483902 0.240655 0.272327 -0.141070
C5    C     C_R   0.487446 0.233999 0.198552 -0.015458
C6    C     C_R   0.069986 0.713975 0.279570 -0.092416
C7    C     C_R   0.948138 0.824417 0.310053 -0.113725
C8    C     C_R   0.671033 0.975684 0.189279 -0.096499
C9    C     C_R   0.786034 0.863302 0.155277 -0.124654
C10   C     C_R   0.260039 0.451939 0.195687 -0.164790
C11   C     C_R   0.254651 0.457185 0.270144 -0.020456
C12   C     C_R   0.388257 0.356506 0.386306 0.528254
C13   C     C_R   0.878669 0.796320 0.364062 -0.117251
C14   C     C_R   0.930555 0.657586 0.387333 -0.108819
C15   C     C_R   0.051527 0.546558 0.356408 -0.045976
C16   C     C_R   0.124967 0.574085 0.303433 0.058978
C17   C     C_R   0.368115 0.347525 0.309305 0.009022
C18   C     C_R   0.904997 0.328109 0.308491 -0.070706
C19   C     C_R   0.951645 0.309709 0.238883 0.069414
C20   C     C_R   0.854698 0.340764 0.182723 0.041929
C21   C     C_R   0.711036 0.397554 0.196650 -0.160106
C22   C     C_R   0.664293 0.420819 0.266764 -0.163208
C23   C     C_R   0.713160 0.415661 0.394775 0.551739
C24   C     C_R   0.761669 0.385632 0.322323 0.002657
C25   C     C_R   0.470784 0.792094 0.287644 -0.142565
C26   C     C_R   0.458875 0.816470 0.214579 -0.147696
C27   C     C_R   0.325041 0.883953 0.183808 0.029585
C28   C     C_R   0.203915 0.937288 0.226981 -0.134933
C29   C     C_R   0.215676 0.916801 0.299244 -0.128440
C30   C     C_R   0.348382 0.836324 0.329102 0.032300
C31   C     C_R   0.454651 0.312401 0.718366 -0.114074
C32   C     C_R   0.435076 0.306719 0.790578 0.075909
C33   C     C_R   0.304865 0.330654 0.814691 0.070832
C34   C     C_R   0.345192 0.766296 0.605213 0.549549
C35   C     C_R   0.191597 0.369013 0.767355 -0.171532
C36   C     C_R   0.211105 0.376419 0.694868 -0.161319
C37   C     C_R   0.344555 0.342147 0.670522 0.018574
C38   C     C_R   0.730887 0.475604 0.731104 -0.126997
C39   C     C_R   0.750527 0.462580 0.804150 0.240265
C40   C     C_R   0.823711 0.326212 0.833938 0.027814
C41   C     C_R   0.872809 0.205624 0.790228 -0.201819
C42   C     C_R   0.854490 0.220350 0.716837 -0.175602
C43   C     C_R   0.788010 0.355532 0.687155 -0.020344
C44   C     C_R   0.226623 0.784964 0.718363 -0.134030
C45   C     C_R   0.371559 0.351211 0.596645 0.542968
C46   C     C_R   0.219313 0.801412 0.791296 -0.147657
C47   C     C_R   0.304764 0.844795 0.825131 0.051316
C48   C     C_R   0.399513 0.869026 0.785367 -0.103494
C49   C     C_R   0.407919 0.851132 0.712565 -0.152641
C50   C     C_R   0.321278 0.809560 0.678763 0.029746
C51   C     C_R   0.905834 0.318136 0.110433 0.532494
C52   C     C_R   0.330900 0.296000 0.091249 0.539883
C53   C     C_R   0.302002 0.908529 0.107945 0.545548
C54   C     C_R   0.880759 0.309939 0.905310 0.579528
C55   C     C_R   0.294460 0.289626 0.885841 0.583595
C56   C     C_R   0.759389 0.378906 0.611611 0.553114
C57   C     C_R   0.275871 0.894415 0.897830 0.561010
C58   C     C_R   0.847861 0.888850 0.096654 -0.118948
C59   C     C_R   0.794306 0.026781 0.071709 -0.086338
C60   C     C_R   0.679624 0.139719 0.105677 -0.053441
Cr1   Cr    Cr6+3 0.601770 0.606860 0.505860 0.990157
Cr2   Cr    Cr6+3 0.291380 0.601660 0.495070 1.019430
Cr3   Cr    Cr6+3 0.606880 0.291510 0.499120 1.009217
Cr4   Cr    Cr6+3 0.062440 0.063090 0.008210 0.980856
Cr5   Cr    Cr6+3 0.062880 0.375170 0.998920 0.996951
Cr6   Cr    Cr6+3 0.374700 0.061720 0.992470 1.020410
H1    H     H_    0.576199 0.162432 0.300999 0.137888
H2    H     H_    0.784578 0.881980 0.387784 0.113029
H3    H     H_    0.877527 0.636449 0.429788 0.140911
H4    H     H_    0.089817 0.439610 0.374827 0.112869
H5    H     H_    0.979441 0.302907 0.351841 0.137464
H6    H     H_    0.635370 0.427174 0.153628 0.106788
H7    H     H_    0.552607 0.468549 0.277706 0.117301
H8    H     H_    0.575203 0.729795 0.310549 0.138037
H9    H     H_    0.552632 0.776845 0.182118 0.124122
H10   H     H_    0.098295 0.994183 0.204780 0.148219
H11   H     H_    0.827013 0.756239 0.174359 0.123973
H12   H     H_    0.121103 0.954554 0.330931 0.132041
H13   H     H_    0.556036 0.293565 0.699636 0.141903
H14   H     H_    0.091286 0.384742 0.785968 0.123471
H15   H     H_    0.124801 0.403775 0.658012 0.123442
H16   H     H_    0.670041 0.580690 0.708770 0.144482
H17   H     H_    0.932109 0.100069 0.812317 0.147970
H18   H     H_    0.894590 0.127175 0.683391 0.136410
H19   H     H_    0.160778 0.748886 0.693431 0.141707
H20   H     H_    0.907339 0.931838 0.291588 0.115002
H21   H     H_    0.144164 0.784500 0.820730 0.125004
H22   H     H_    0.463238 0.907908 0.809813 0.141212
H23   H     H_    0.482538 0.868525 0.682919 0.118135
H24   H     H_    0.936646 0.801681 0.070270 0.106130
H25   H     H_    0.840791 0.046000 0.025496 0.142515
H26   H     H_    0.637962 0.245392 0.084627 0.098433
H27   H     H_    0.121760 0.737428 0.237313 0.115060
H28   H     H_    0.623925 0.953320 0.234240 0.110275
H29   H     H_    0.169855 0.530335 0.165706 0.123850
O1    O     O_R   0.748800 0.497470 0.428000 -0.537827
O2    O     O_R   0.300070 0.471040 0.567100 -0.499296
O3    O     O_R   0.491670 0.258900 0.574910 -0.520902
O4    O     O_R   0.718780 0.304180 0.577850 -0.498870
O5    O     O_3   0.500010 0.500010 0.500020 -0.269530
O6    O     O_R   0.186690 0.923650 0.086970 -0.532474
O7    O     O_R   0.957250 0.194250 0.084630 -0.518026
O8    O     O_R   0.934970 0.407490 0.085330 -0.523041
O9    O     O_R   0.203780 0.365190 0.067090 -0.514085
O10   O     O_R   0.417600 0.174890 0.067840 -0.502571
O11   O     O_R   0.375320 0.946260 0.070860 -0.492723
O12   O     O_R   0.476420 0.724060 0.429470 -0.524713
O13   O     O_R   0.160600 0.919630 0.926660 -0.532121
O14   O     O_R   0.933060 0.190520 0.936020 -0.529435
O15   O     O_R   0.908880 0.403460 0.925020 -0.487739
O16   O     O_R   0.179600 0.361450 0.918490 -0.523524
O17   O     O_R   0.391510 0.170860 0.907530 -0.499766
O18   O     O_R   0.351130 0.942530 0.922260 -0.514344
O19   O     O_3   0.166667 0.166667 0.999870 -0.252932
O20   O     O_R   0.264580 0.744340 0.416750 -0.505727
O21   O     O_R   0.309380 0.472470 0.418200 -0.496697
O22   O     O_R   0.501710 0.260430 0.414300 -0.533756
O23   O     O_R   0.728090 0.305600 0.428960 -0.497307
O24   O     O_R   0.738760 0.495930 0.588610 -0.527219
O25   O     O_R   0.467110 0.722640 0.578360 -0.508408
O26   O     O_R   0.254530 0.742800 0.577360 -0.523777
N1    N     N_3   0.094539 0.273227 0.226161 -0.630633
H30   H     H_    0.139855 0.190479 0.189584 0.243798
H31   H     H_    0.088981 0.360611 0.201115 0.254242
N2    N     N_3   0.546933 0.275757 0.839785 -0.618742
H32   H     H_    0.568739 0.358213 0.836635 0.242343
H33   H     H_    0.635954 0.181528 0.824064 0.231534
O27   O     O_3   0.696537 0.581869 0.847374 -0.544406
C61   C     C_3   0.761261 0.662792 0.830930 0.005167
H34   H     H_    0.709671 0.730568 0.783739 0.108433
H35   H     H_    0.876223 0.595145 0.820001 0.132697
C62   C     C_3   0.745905 0.757691 0.893900 -0.342993
H36   H     H_    0.802181 0.692323 0.941077 0.165596
H37   H     H_    0.791835 0.825185 0.880422 0.076905
H38   H     H_    0.633052 0.826823 0.907429 0.174462

loop_
_geom_bond_atom_site_label_1
_geom_bond_atom_site_label_2
_ccdc_geom_bond_type
C33   C55   S    
C19   N1    S    
Cr6   O18   S    
C55   O17   A    
Cr1   O24   S    
C41   C42   A    
C35   C36   A    
O27   C61   S    
C23   O23   A    
Cr1   O1    S    
C51   O7    A    
Cr4   O7    S    
C26   C27   A    
Cr3   O5    S    
C18   C24   A    
C28   C29   A    
C25   H8    S    
C20   C51   S    
C45   O3    A    
C38   C39   A    
Cr3   O22   S    
C2    C60   A    
C7    H20   S    
C51   O8    A    
C15   C16   A    
C41   H17   S    
C35   H14   S    
C18   H5    S    
Cr2   O20   S    
C23   O1    A    
C54   O15   A    
C9    H11   S    
C9    C58   A    
Cr5   O19   S    
Cr5   O16   S    
Cr3   O4    S    
C33   C35   A    
C53   O11   A    
C11   C17   A    
C29   H12   S    
C47   C48   A    
C53   O6    A    
C62   H36   S    
C12   C17   S    
C23   C24   S    
C48   H22   S    
C61   C62   S    
C59   C60   A    
C21   C22   A    
C38   H16   S    
Cr1   O25   S    
Cr6   O11   S    
C44   C46   A    
Cr4   O13   S    
C60   H26   S    
C34   O25   A    
Cr4   O6    S    
C34   C50   S    
Cr4   O19   S    
C21   H6    S    
C42   H18   S    
C39   C40   A    
Cr3   O23   S    
C61   H34   S    
C18   C19   A    
C57   O18   A    
C58   C59   A    
C31   C37   A    
C54   O14   A    
C32   N2    S    
Cr2   O21   S    
C29   C30   A    
C47   C57   S    
Cr2   O2    S    
C11   C16   S    
C31   C32   A    
C36   H15   S    
C6    H27   S    
C26   H9    S    
C8    C9    A    
C8    H28   S    
C59   H25   S    
C58   H24   S    
C1    O12   A    
Cr2   O5    S    
C4    C17   A    
C62   H37   S    
C40   C41   A    
C52   O10   A    
C34   O26   A    
C40   C54   S    
N2    H32   S    
C14   H3    S    
C22   C24   A    
Cr1   O5    S    
C42   C43   A    
Cr5   O8    S    
Cr6   O10   S    
C37   C45   S    
C44   H19   S    
C28   H10   S    
C46   H21   S    
C44   C50   A    
C25   C30   A    
C15   H4    S    
C46   C47   A    
C52   O9    A    
C39   O27   S    
Cr6   O19   S    
C55   O16   A    
C2    C8    A    
C49   H23   S    
C4    C5    A    
C3    C5    A    
C4    H1    S    
C3    C52   S    
C27   C53   S    
C31   H13   S    
C6    C7    A    
Cr3   O3    S    
C22   H7    S    
C32   C33   A    
C19   C20   A    
C25   C26   A    
C38   C43   A    
C3    C10   A    
C45   O2    A    
Cr5   O9    S    
Cr4   O14   S    
C10   H29   S    
C62   H38   S    
C48   C49   A    
C61   H35   S    
C1    C30   S    
C56   O24   A    
Cr1   O12   S    
Cr5   O15   S    
C10   C11   A    
C6    C16   A    
C12   O22   A    
C2    C5    S    
C43   C56   S    
C7    C13   A    
C57   O13   A    
C20   C21   A    
C36   C37   A    
C49   C50   A    
C27   C28   A    
N2    H33   S    
C14   C15   A    
C1    O20   A    
C56   O4    A    
Cr6   O17   S    
N1    H30   S    
C13   C14   A    
N1    H31   S    
Cr2   O26   S    
C12   O21   A    
C13   H2    S    
