data_mof_unit_65617.cif
_audit_creation_date              2012-10-26T18:36:29-0400
_audit_creation_method            fapswitch 2.2
_symmetry_space_group_name_H-M    P1
_symmetry_Int_Tables_number       1
_space_group_crystal_system       triclinic
_cell_length_a                    12.750655
_cell_length_b                    13.900806
_cell_length_c                    17.286803
_cell_angle_alpha                 90.084843
_cell_angle_beta                  96.582057
_cell_angle_gamma                 81.987365
_cell_volume                      3013.75027435

loop_
_atom_site_label
_atom_site_type_symbol
_atom_type_description
_atom_site_fract_x
_atom_site_fract_y
_atom_site_fract_z
_atom_type_partial_charge
Br1   Br    Br    0.411141 0.364631 0.967893 -0.464328
Br2   Br    Br    0.588859 0.635369 0.032107 -0.464328
Br3   Br    Br    0.948617 0.609153 0.395355 -0.461611
Br4   Br    Br    0.051383 0.390846 0.604645 -0.461611
C1    C     C_R   0.516554 0.315805 0.500819 0.550651
C2    C     C_2   0.026528 0.525044 0.476464 0.121217
C3    C     C_1   0.144065 0.518776 0.483479 0.243537
C4    C     C_1   0.855935 0.481224 0.516521 0.243537
C5    C     C_R   0.512578 0.501346 0.650892 0.544475
C6    C     C_R   0.487422 0.498654 0.349108 0.544476
C7    C     C_R   0.516424 0.509833 0.735435 0.013892
C8    C     C_R   0.483576 0.490167 0.264565 0.013892
C9    C     C_R   0.421364 0.535574 0.768934 -0.099560
C10   C     C_R   0.578636 0.464425 0.231066 -0.099560
C11   C     C_R   0.423950 0.545441 0.848958 -0.063291
C12   C     C_R   0.483446 0.684195 0.499181 0.550651
C13   C     C_R   0.576050 0.454559 0.151042 -0.063291
C14   C     C_R   0.521280 0.528147 0.896392 0.084355
C15   C     C_R   0.478720 0.471853 0.103608 0.084355
C16   C     C_R   0.616626 0.504759 0.863456 -0.070237
C17   C     C_R   0.383373 0.495241 0.136544 -0.070237
C18   C     C_R   0.614312 0.495545 0.783078 -0.113293
C19   C     C_R   0.385687 0.504455 0.216922 -0.113293
C20   C     C_2   0.522935 0.532142 0.980757 0.135905
C21   C     C_2   0.477065 0.467858 0.019243 0.135905
C22   C     C_1   0.473921 0.787568 0.498793 0.017890
C23   C     C_1   0.526079 0.212432 0.501207 0.017890
C24   C     C_2   0.456266 0.978489 0.498111 -0.101801
C25   C     C_2   0.543733 0.021510 0.501889 -0.101801
C26   C     C_1   0.534637 0.125351 0.501543 -0.018544
C27   C     C_1   0.465363 0.874648 0.498457 -0.018544
C28   C     C_2   0.973472 0.474956 0.523536 0.121217
Cu1   Cu    Cu3+1 0.605120 0.493930 0.505020 1.053753
Cu2   Cu    Cu3+1 0.394880 0.506070 0.494980 1.053753
H1    H     H_    0.344971 0.548505 0.733382 0.157039
H2    H     H_    0.377528 0.020942 0.494750 0.156129
H3    H     H_    0.655029 0.451494 0.266618 0.157039
H4    H     H_    0.311359 0.523514 0.241610 0.153037
H5    H     H_    0.688641 0.476485 0.758390 0.153037
H6    H     H_    0.692228 0.491888 0.900040 0.153929
H7    H     H_    0.307772 0.508112 0.099960 0.153929
H8    H     H_    0.649952 0.435025 0.125821 0.153038
H9    H     H_    0.350048 0.564975 0.874179 0.153038
H10   H     H_    0.622471 0.979058 0.505250 0.156129
N1    N     N_1   0.763100 0.484810 0.512560 -0.176107
N2    N     N_1   0.236900 0.515190 0.487440 -0.176107
O1    O     O_R   0.601320 0.356300 0.504850 -0.490370
O2    O     O_R   0.398680 0.643700 0.495150 -0.490370
O3    O     O_R   0.423780 0.366550 0.496380 -0.482765
O4    O     O_R   0.576220 0.633450 0.503620 -0.482765
O5    O     O_R   0.599070 0.494270 0.618330 -0.500195
O6    O     O_R   0.400930 0.505730 0.381670 -0.500195
O7    O     O_R   0.421520 0.504520 0.609850 -0.496745
O8    O     O_R   0.578480 0.495480 0.390150 -0.496745

loop_
_geom_bond_atom_site_label_1
_geom_bond_atom_site_label_2
_ccdc_geom_bond_type
C12   O4    A    
C11   C14   A    
C2    C28   D    
C2    C3    S    
Cu2   N2    S    
Cu1   N1    S    
Cu1   O5    S    
C19   H4    S    
C5    C7    S    
C6    O8    A    
C7    C18   A    
Cu2   O6    S    
C5    O5    A    
Br3   C2    S    
C6    O6    A    
C12   O2    A    
Cu1   O1    S    
C9    C11   A    
Cu1   Cu2   S    
C11   H9    S    
C22   C27   T    
C1    C23   S    
C23   C26   T    
Br1   C21   S    
C7    C9    A    
C10   C13   A    
C1    O3    A    
Br4   C28   S    
C6    C8    S    
C14   C20   S    
C18   H5    S    
C24   C25   D    
C15   C17   A    
C8    C10   A    
C9    H1    S    
C14   C16   A    
C17   C19   A    
C25   H10   S    
C12   C22   S    
C16   H6    S    
C17   H7    S    
C5    O7    A    
C15   C21   S    
C25   C26   S    
C4    C28   S    
C3    N2    T    
Cu2   O2    S    
C20   C21   D    
C24   H2    S    
Cu2   O7    S    
Cu1   O8    S    
C13   H8    S    
C1    O1    A    
Cu2   O3    S    
C8    C19   A    
Br2   C20   S    
C13   C15   A    
Cu1   O4    S    
C4    N1    T    
C24   C27   S    
C16   C18   A    
C10   H3    S    
