data_mof_unit_60396.cif
_audit_creation_date              2012-10-26T20:08:34-0400
_audit_creation_method            fapswitch 2.2
_symmetry_space_group_name_H-M    P1
_symmetry_Int_Tables_number       1
_space_group_crystal_system       triclinic
_cell_length_a                    15.979033
_cell_length_b                    14.432887
_cell_length_c                    13.145363
_cell_angle_alpha                 89.999939
_cell_angle_beta                  90.000012
_cell_angle_gamma                 90.000013
_cell_volume                      3031.63064467

loop_
_atom_site_label
_atom_site_type_symbol
_atom_type_description
_atom_site_fract_x
_atom_site_fract_y
_atom_site_fract_z
_atom_type_partial_charge
C1    C     C_R   0.500000 0.328701 0.500000 0.564967
C2    C     C_1   0.500000 0.500025 0.949319 0.000240
C3    C     C_R   0.338095 0.499980 0.500000 0.568732
C4    C     C_R   0.661905 0.499980 0.500000 0.568732
C5    C     C_R   0.500000 0.671302 0.500000 0.563846
C6    C     C_3   0.048587 0.446292 0.593721 0.287293
C7    C     C_3   0.048587 0.454590 0.401114 0.287128
C8    C     C_3   0.951413 0.446292 0.593721 0.287293
C9    C     C_3   0.951413 0.454590 0.401114 0.287128
C10   C     C_1   0.750952 0.500113 0.500001 0.072987
C11   C     C_1   0.249048 0.500113 0.500001 0.072987
C12   C     C_1   0.500000 0.142310 0.500000 0.013166
C13   C     C_3   0.082337 0.500464 0.500016 -0.094337
C14   C     C_3   0.917663 0.500464 0.500016 -0.094337
C15   C     C_3   0.951138 0.601757 0.505277 0.641809
C16   C     C_3   0.048861 0.601757 0.505277 0.641810
C17   C     C_1   0.825995 0.500260 0.500006 0.133905
C18   C     C_1   0.174004 0.500260 0.500006 0.133905
C19   C     C_1   0.500000 0.227121 0.500000 0.004524
C20   C     C_1   0.500000 0.042406 0.500000 0.055017
C21   C     C_1   0.500000 0.957597 0.500000 0.054801
C22   C     C_1   0.500000 0.857693 0.500000 0.012453
C23   C     C_1   0.500000 0.772881 0.500000 0.003433
C24   C     C_1   0.500000 0.500023 0.173628 0.168516
C25   C     C_1   0.500000 0.500023 0.826372 0.168471
C26   C     C_1   0.500000 0.500025 0.050681 0.000255
Cu1   Cu    Cu3+1 0.500000 0.499990 0.592680 1.059931
Cu2   Cu    Cu3+1 0.500000 0.499990 0.407320 1.060058
F1    F     F_    0.921058 0.356213 0.594072 -0.462273
F2    F     F_    0.921059 0.364944 0.391429 -0.462635
F3    F     F_    0.078941 0.356213 0.594072 -0.462273
F4    F     F_    0.078941 0.364944 0.391429 -0.462635
F5    F     F_    0.078415 0.644555 0.592765 -0.532836
F6    F     F_    0.078415 0.651886 0.422615 -0.532418
F7    F     F_    0.921585 0.644555 0.592765 -0.532836
F8    F     F_    0.921585 0.651886 0.422615 -0.532418
H1    H     H_    0.071097 0.494204 0.333820 0.144316
H2    H     H_    0.071097 0.479943 0.664820 0.144272
H3    H     H_    0.928903 0.494204 0.333820 0.144316
H4    H     H_    0.928903 0.479943 0.664821 0.144272
N1    N     N_1   0.500000 0.500020 0.268070 -0.155081
N2    N     N_1   0.500000 0.500020 0.731930 -0.155095
O1    O     O_R   0.500000 0.376050 0.578280 -0.472469
O2    O     O_R   0.500000 0.376050 0.421720 -0.471885
O3    O     O_R   0.379430 0.500000 0.578300 -0.480496
O4    O     O_R   0.379430 0.500000 0.421700 -0.480396
O5    O     O_R   0.620570 0.500000 0.578300 -0.480496
O6    O     O_R   0.620570 0.500000 0.421700 -0.480396
O7    O     O_R   0.500000 0.623940 0.578240 -0.472340
O8    O     O_R   0.500000 0.623940 0.421760 -0.472908

loop_
_geom_bond_atom_site_label_1
_geom_bond_atom_site_label_2
_ccdc_geom_bond_type
C25   N2    T    
Cu2   O2    S    
C9    C14   S    
C6    H2    S    
C11   C18   T    
C16   F5    S    
C8    H4    S    
Cu2   N1    S    
C1    O2    A    
C14   C17   S    
C7    C13   S    
Cu2   O4    S    
C12   C20   S    
C6    F3    S    
C7    H1    S    
C3    O3    A    
C2    C26   T    
C21   C22   S    
C6    C13   S    
C24   N1    T    
Cu1   N2    S    
C5    O7    A    
C9    F2    S    
C6    C8    S    
C8    F1    S    
C13   C18   S    
C12   C19   T    
C15   F7    S    
C24   C26   S    
C2    C25   S    
C5    O8    A    
C1    C19   S    
C3    C11   S    
Cu1   O3    S    
C10   C17   T    
C4    C10   S    
C15   C16   S    
Cu1   O1    S    
C15   F8    S    
C9    H3    S    
C20   C21   T    
C4    O6    A    
C13   C16   S    
Cu1   O5    S    
Cu1   Cu2   S    
C7    C9    S    
C14   C15   S    
Cu2   O6    S    
C8    C14   S    
C7    F4    S    
C3    O4    A    
C16   F6    S    
C22   C23   T    
Cu2   O8    S    
C1    O1    A    
Cu1   O7    S    
C4    O5    A    
C5    C23   S    
