data_mof_unit_57275.cif
_audit_creation_date              2013-03-05T16:47:34-0500
_audit_creation_method            fapswitch 2.2
_symmetry_space_group_name_H-M    P1
_symmetry_Int_Tables_number       1
_space_group_crystal_system       triclinic
_cell_length_a                    15.828995
_cell_length_b                    8.895544
_cell_length_c                    8.312371
_cell_angle_alpha                 90.170468
_cell_angle_beta                  90.301256
_cell_angle_gamma                 90.12708
_cell_volume                      1170.42007947

loop_
_atom_site_label
_atom_site_type_symbol
_atom_site_description
_atom_site_fract_x
_atom_site_fract_y
_atom_site_fract_z
_atom_type_partial_charge
O1    O     O_R   0.500000 0.285340 0.636850 -0.605296
O2    O     O_R   0.500000 0.285340 0.363150 -0.609282
C1    C     C_R   0.499999 0.218892 0.499850 0.923882
O3    O     O_R   0.377140 0.500000 0.636930 -0.590771
O4    O     O_R   0.377140 0.500000 0.363070 -0.607229
O5    O     O_R   0.622860 0.500000 0.636930 -0.587121
O6    O     O_R   0.622860 0.500000 0.363070 -0.586277
C2    C     C_R   0.338735 0.499646 0.499605 0.869687
C3    C     C_R   0.661260 0.500413 0.500418 0.878320
Zn1   Zn    Zn3+2 0.500000 0.499990 0.682780 1.080729
Zn2   Zn    Zn3+2 0.500000 0.499990 0.317220 1.074133
C4    C     C_1   0.500026 0.934524 0.500217 -0.125849
O7    O     O_R   0.500000 0.714650 0.636900 -0.610175
O8    O     O_R   0.500000 0.714650 0.363100 -0.609205
C5    C     C_1   0.500017 0.065450 0.499785 -0.122010
C6    C     C_R   0.500024 0.781082 0.500150 0.911750
C7    C     C_3   0.050788 0.404101 0.655195 0.015873
C8    C     C_3   0.050981 0.422006 0.338415 0.001104
C9    C     C_3   0.948656 0.425707 0.666374 -0.034906
C10   C     C_3   0.948655 0.402180 0.349183 0.022129
N1    N     N_1   0.500000 0.500030 0.073640 0.003540
N2    N     N_1   0.500000 0.500030 0.926360 0.003817
C11   C     C_1   0.749418 0.501606 0.501376 0.085671
C12   C     C_1   0.250569 0.499168 0.499010 -0.044245
C13   C     C_3   0.083613 0.500651 0.503057 -0.167172
C14   C     C_3   0.916191 0.502385 0.500234 -0.122620
C15   C     C_3   0.949485 0.676745 0.488968 -0.202040
C16   C     C_3   0.052136 0.675190 0.513149 -0.222076
C17   C     C_1   0.824335 0.502303 0.501331 0.284772
C18   C     C_1   0.175694 0.499222 0.500490 0.011632
C19   C     C_2   0.088763 0.747440 0.667850 0.609604
H1    H     H_    0.153842 0.725364 0.699506 0.110606
O9    O     O_2   0.055431 0.850033 0.741456 -0.524342
C20   C     C_2   0.097280 0.778349 0.393278 0.364504
H2    H     H_    0.152243 0.741612 0.327574 0.164198
O10   O     O_2   0.078785 0.911382 0.383414 -0.581937
C21   C     C_2   0.907096 0.790398 0.603039 0.657402
H3    H     H_    0.930610 0.905103 0.606721 0.088120
O11   O     O_2   0.840462 0.766066 0.671341 -0.498160
C22   C     C_2   0.919073 0.749307 0.330523 0.507172
H4    H     H_    0.960656 0.803026 0.246473 0.195689
O12   O     O_2   0.843689 0.766739 0.302988 -0.493223
C23   C     C_2   0.907093 0.273856 0.711028 0.402630
H5    H     H_    0.939996 0.196626 0.790176 0.150139
O13   O     O_2   0.833310 0.244806 0.680310 -0.502102
C24   C     C_2   0.919612 0.237958 0.373542 0.456113
H6    H     H_    0.961814 0.147395 0.401660 0.063124
O14   O     O_2   0.845341 0.203511 0.354832 -0.468237
C25   C     C_2   0.079319 0.238881 0.635404 0.372534
H7    H     H_    0.037014 0.147890 0.607403 0.047719
O15   O     O_2   0.153373 0.204471 0.655932 -0.477931
C26   C     C_2   0.094336 0.270574 0.301792 0.472355
H8    H     H_    0.153984 0.241232 0.357500 0.120050
O16   O     O_2   0.068770 0.188296 0.194127 -0.436428
N3    N     N_R   0.080882 0.516649 0.203836 0.255519
O17   O     O_R   0.160312 0.513738 0.162467 -0.344630
O18   O     O_R   0.032754 0.610937 0.129898 -0.316807
N4    N     N_R   0.090877 0.443179 0.810792 0.303708
O19   O     O_R   0.066464 0.363495 0.932052 -0.235697
O20   O     O_R   0.167933 0.493591 0.819467 -0.332349
N5    N     N_R   0.908309 0.437496 0.192416 0.306481
O21   O     O_R   0.927126 0.350168 0.072556 -0.262895
O22   O     O_R   0.835245 0.503156 0.183190 -0.280918
N6    N     N_R   0.920982 0.523837 0.800434 0.287791
O23   O     O_R   0.842510 0.519845 0.847620 -0.234544
O24   O     O_R   0.968483 0.628314 0.860442 -0.266023

loop_
_geom_bond_atom_site_label_1
_geom_bond_atom_site_label_2
_geom_bond_distance
_ccdc_geom_bond_type
O5    Zn1   1.983707 S    
O4    C2    1.290308 A    
N3    O17   1.305497 A    
C19   O9    1.219767 D    
C21   H3    1.085644 S    
C7    N4    1.477854 S    
C20   O10   1.222590 D    
C19   H1    1.080422 S    
C4    C5    1.164678 T    
O3    C2    1.290443 A    
C15   C22   1.543627 S    
C23   H5    1.084783 S    
C7    C13   1.618109 S    
N6    O23   1.304999 A    
C25   H7    1.073580 S    
O5    C3    1.290104 A    
C22   O12   1.224116 D    
O2    C1    1.282407 A    
C8    C26   1.543398 S    
C21   O11   1.219712 D    
N1    N2    1.224245 T    
Zn1   N2    2.024726 S    
C13   C16   1.633709 S    
O6    Zn2   1.979774 S    
C23   O13   1.221118 D    
C14   C15   1.640115 S    
C8    C13   1.616935 S    
C10   C14   1.623973 S    
C8    N3    1.481102 S    
C15   C21   1.541242 S    
O2    Zn2   1.948337 S    
C11   C17   1.185873 T    
C22   H4    1.074781 S    
C2    C12   1.395565 S    
C9    N6    1.482127 S    
C9    C23   1.548174 S    
O4    Zn2   1.983709 S    
N4    O20   1.300190 A    
C8    C10   1.631846 S    
N3    O18   1.289412 A    
N5    O21   1.297839 A    
Zn2   O8    1.946116 S    
O8    C6    1.281804 A    
C12   C18   1.185324 T    
C25   O15   1.223390 D    
C16   C20   1.534789 S    
C10   N5    1.482973 S    
C24   O14   1.223275 D    
C13   C18   1.457909 S    
C1    C5    1.364944 S    
C26   H8    1.082220 S    
C14   C17   1.454066 S    
N5    O22   1.298824 A    
C20   H2    1.080361 S    
O7    C6    1.282708 A    
C7    C25   1.547050 S    
C15   C16   1.636286 S    
O6    C3    1.290579 A    
C9    C14   1.623644 S    
C24   H6    1.073196 S    
C3    C11   1.395450 S    
C7    C9    1.631568 S    
N4    O19   1.294175 A    
O3    Zn1   1.979776 S    
Zn2   N1    2.024728 S    
C16   C19   1.545449 S    
C10   C24   1.544729 S    
O1    Zn1   1.946109 S    
C4    C6    1.364946 S    
C26   O16   1.221226 D    
O1    C1    1.281497 A    
Zn1   O7    1.948342 S    
N6    O24   1.291545 A    
