data_mof_unit_31630.cif
_audit_creation_date              2012-12-11T14:21:02-0500
_audit_creation_method            fapswitch 2.2
_symmetry_space_group_name_H-M    P1
_symmetry_Int_Tables_number       1
_space_group_crystal_system       triclinic
_cell_length_a                    11.525787
_cell_length_b                    11.589106
_cell_length_c                    19.571524
_cell_angle_alpha                 90.066419
_cell_angle_beta                  89.569378
_cell_angle_gamma                 60.26263
_cell_volume                      2269.86440514

loop_
_atom_site_label
_atom_site_type_symbol
_atom_type_description
_atom_site_fract_x
_atom_site_fract_y
_atom_site_fract_z
_atom_type_partial_charge
C1    C     C_R   0.640104 0.116518 0.599421 0.548662
C2    C     C_1   0.640338 0.704016 0.668001 0.004065
C3    C     C_1   0.126566 0.200104 0.859271 0.004610
C4    C     C_1   0.171496 0.169889 0.727772 -0.029700
C5    C     C_1   0.150118 0.183021 0.798966 -0.029667
C6    C     C_1   0.195302 0.159914 0.667421 0.003219
C7    C     C_1   0.678999 0.191724 0.860687 0.003217
C8    C     C_1   0.658633 0.166525 0.729058 -0.029085
C9    C     C_1   0.666029 0.180870 0.800334 -0.029501
C10   C     C_1   0.652812 0.148703 0.668754 0.004701
C11   C     C_R   0.681219 0.587483 0.204673 -0.014918
C12   C     C_R   0.612072 0.746129 0.598663 0.558202
C13   C     C_R   0.548981 0.641122 0.232718 0.038082
C14   C     C_R   0.514205 0.727640 0.287983 0.025247
C15   C     C_R   0.751051 0.650247 0.306130 -0.122707
C16   C     C_R   0.782275 0.585642 0.243637 -0.155034
C17   C     C_R   0.448577 0.615976 0.205857 -0.096308
C18   C     C_R   0.315052 0.694163 0.222955 -0.111931
C19   C     C_R   0.278541 0.791036 0.272155 -0.100940
C20   C     C_R   0.376944 0.806208 0.304630 -0.093460
C21   C     C_R   0.617935 0.728198 0.326650 0.000797
C22   C     C_R   0.157520 0.184980 0.187395 0.012303
C23   C     C_R   0.241067 0.144810 0.598171 0.557924
C24   C     C_R   0.251625 0.221317 0.206391 0.036379
C25   C     C_R   0.285054 0.215675 0.275992 0.028130
C26   C     C_R   0.154319 0.107835 0.301743 -0.160102
C27   C     C_R   0.110385 0.127134 0.234912 -0.149413
C28   C     C_R   0.303358 0.274929 0.158139 -0.084671
C29   C     C_R   0.357152 0.351644 0.179766 -0.106451
C30   C     C_R   0.370633 0.365120 0.249095 -0.096501
C31   C     C_R   0.345889 0.290023 0.296195 -0.075852
C32   C     C_R   0.245605 0.146483 0.322776 0.000134
C33   C     C_R   0.680208 0.187329 0.196114 0.012308
C34   C     C_R   0.649186 0.110969 0.403147 0.526458
C35   C     C_R   0.727648 0.055713 0.218145 0.020613
C36   C     C_R   0.753932 0.029335 0.287915 0.010508
C37   C     C_R   0.645132 0.264493 0.313870 -0.169820
C38   C     C_R   0.655655 0.285981 0.244892 -0.162456
C39   C     C_R   0.769205 0.947858 0.171978 -0.103051
C40   C     C_R   0.862117 0.819435 0.192247 -0.090352
C41   C     C_R   0.911640 0.798519 0.258431 0.049246
C42   C     C_R   0.856120 0.900890 0.306188 -0.076715
C43   C     C_R   0.686204 0.136228 0.335414 0.001923
C44   C     C_R   0.081354 0.231893 0.928544 0.544030
C45   C     C_R   0.588539 0.788840 0.394023 0.520982
C46   C     C_R   0.684206 0.604462 0.929469 0.557005
C47   C     C_R   0.708783 0.207200 0.929992 0.544639
C48   C     C_R   0.084084 0.234464 0.124281 0.524583
C49   C     C_R   0.707747 0.548264 0.133027 0.551125
C50   C     C_R   0.708171 0.211017 0.126736 0.519216
C51   C     C_R   0.294343 0.120020 0.393475 0.514632
C52   C     C_1   0.671375 0.646313 0.860054 0.002633
C53   C     C_1   0.654359 0.683691 0.728383 -0.029755
C54   C     C_1   0.663997 0.666537 0.799612 -0.030323
Cr1   Cr    Cr6+3 0.404720 0.198220 0.499960 1.033149
Cr2   Cr    Cr6+3 0.698290 0.897110 0.500380 1.036675
Cr3   Cr    Cr6+3 0.396970 0.904720 0.499610 1.029145
Cr4   Cr    Cr6+3 0.926180 0.151990 0.028120 1.026125
Cr5   Cr    Cr6+3 0.921330 0.451820 0.027470 1.023236
Cr6   Cr    Cr6+3 0.626260 0.446870 0.028710 1.005836
H1    H     H_    0.830375 0.640513 0.338644 0.187819
H2    H     H_    0.383641 0.403831 0.142727 0.117515
H3    H     H_    0.400655 0.434124 0.267186 0.140868
H4    H     H_    0.363734 0.303880 0.348166 0.182871
H5    H     H_    0.606854 0.346558 0.349888 0.133880
H6    H     H_    0.738671 0.963879 0.119047 0.130828
H7    H     H_    0.642593 0.379957 0.229513 0.115194
H8    H     H_    0.901444 0.738560 0.155571 0.149736
H9    H     H_    0.904129 0.879918 0.355237 0.173371
H10   H     H_    0.470587 0.535907 0.170870 0.142356
H11   H     H_    0.884651 0.534713 0.225323 0.172444
H12   H     H_    0.240631 0.678548 0.197940 0.150447
H13   H     H_    0.174476 0.851481 0.286635 0.131024
H14   H     H_    0.343865 0.879355 0.343105 0.157130
H15   H     H_    0.114227 0.065278 0.337676 0.132065
H16   H     H_    0.293760 0.266114 0.103681 0.128990
H17   H     H_    0.034204 0.102532 0.221253 0.146370
O1    O     O_R   0.267740 0.231960 0.575440 -0.493758
O2    O     O_R   0.685970 0.784660 0.430010 -0.491754
O3    O     O_R   0.502530 0.767000 0.423990 -0.518054
O4    O     O_R   0.288330 0.026350 0.429250 -0.527419
O5    O     O_3   0.499990 0.000020 0.499980 -0.287135
O6    O     O_R   0.821500 0.119340 0.952830 -0.504083
O7    O     O_R   0.037130 0.162530 0.957360 -0.490272
O8    O     O_R   0.056440 0.344740 0.951340 -0.508840
O9    O     O_R   0.797900 0.560360 0.957470 -0.489272
O10   O     O_R   0.596130 0.579390 0.952730 -0.498615
O11   O     O_R   0.639060 0.321160 0.958670 -0.494318
O12   O     O_R   0.527280 0.186640 0.570530 -0.490815
O13   O     O_R   0.821240 0.124200 0.104370 -0.514361
O14   O     O_R   0.036890 0.167040 0.097840 -0.503077
O15   O     O_R   0.056180 0.349610 0.102880 -0.524015
O16   O     O_R   0.797660 0.564870 0.097950 -0.495576
O17   O     O_R   0.595880 0.584250 0.104270 -0.523618
O18   O     O_R   0.638830 0.325670 0.099150 -0.541879
O19   O     O_3   0.824590 0.350230 0.028100 -0.274394
O20   O     O_R   0.728090 0.003450 0.576380 -0.501510
O21   O     O_R   0.682970 0.789190 0.570490 -0.485525
O22   O     O_R   0.499290 0.771880 0.575530 -0.497737
O23   O     O_R   0.285330 0.030870 0.569730 -0.487583
O24   O     O_R   0.270980 0.227080 0.423890 -0.499888
O25   O     O_R   0.530280 0.182120 0.430050 -0.528084
O26   O     O_R   0.731330 0.998570 0.424830 -0.532918
I1    I     I_    0.072593 0.615969 0.288907 -0.519437

loop_
_geom_bond_atom_site_label_1
_geom_bond_atom_site_label_2
_ccdc_geom_bond_type
C25   C31   A    
C22   C48   S    
C26   C32   A    
C41   C42   A    
C36   C42   A    
C35   C36   A    
Cr2   O21   S    
C2    C12   S    
Cr6   O11   S    
C53   C54   S    
Cr1   O25   S    
C26   C27   A    
C29   C30   A    
Cr2   O2    S    
C14   C21   A    
C28   C29   A    
C30   C31   A    
C50   O18   A    
C15   C16   A    
Cr3   O22   S    
C46   C52   S    
C18   C19   A    
Cr4   O19   S    
C12   O22   A    
C50   O13   A    
C19   C20   A    
C8    C9    S    
C48   O14   A    
C37   H5    S    
C47   O6    A    
C49   O17   A    
Cr4   O14   S    
C51   O4    A    
C12   O21   A    
C25   C32   A    
C23   O23   A    
C17   H10   S    
C30   H3    S    
Cr3   O3    S    
C16   H11   S    
Cr2   O20   S    
Cr6   O10   S    
C52   C54   T    
C26   H15   S    
C21   C45   S    
C18   H12   S    
C3    C44   S    
C34   C43   S    
C14   C20   A    
C19   H13   S    
C24   C25   A    
C4    C6    T    
C1    O20   A    
C39   C40   A    
Cr1   O1    S    
C27   H17   S    
C33   C50   S    
Cr3   O23   S    
C42   H9    S    
C7    C47   S    
C37   C43   A    
C35   C39   A    
Cr5   O8    S    
C32   C51   S    
C37   C38   A    
C11   C49   S    
Cr4   O7    S    
C11   C16   A    
C17   C18   A    
C15   H1    S    
C20   H14   S    
C45   O2    A    
C34   O25   A    
Cr1   O5    S    
Cr4   O13   S    
Cr6   O19   S    
C40   C41   A    
C22   C27   A    
C48   O15   A    
C39   H6    S    
C22   C24   A    
Cr5   O19   S    
C44   O8    A    
C28   H16   S    
C3    C5    T    
C46   O10   A    
C7    C9    T    
C29   H2    S    
C1    O12   A    
C31   H4    S    
C1    C10   S    
C24   C28   A    
Cr2   O26   S    
C4    C5    S    
C44   O7    A    
C2    C53   T    
Cr2   O5    S    
C51   O24   A    
Cr1   O24   S    
C33   C38   A    
C41   I1    S    
C13   C17   A    
C47   O11   A    
Cr5   O9    S    
Cr1   O12   S    
Cr4   O6    S    
C11   C13   A    
C6    C23   S    
C34   O26   A    
C33   C35   A    
C45   O3    A    
Cr3   O4    S    
Cr5   O15   S    
C23   O1    A    
Cr6   O18   S    
C15   C21   A    
C38   H7    S    
C8    C10   T    
C40   H8    S    
Cr3   O5    S    
C36   C43   A    
Cr5   O16   S    
C49   O16   A    
C13   C14   A    
C46   O9    A    
Cr6   O17   S    
