data_mof_unit_53814.cif
_audit_creation_date              2012-12-11T15:59:37-0500
_audit_creation_method            fapswitch 2.2
_symmetry_space_group_name_H-M    P1
_symmetry_Int_Tables_number       1
_space_group_crystal_system       triclinic
_cell_length_a                    10.742449
_cell_length_b                    10.75876
_cell_length_c                    17.064873
_cell_angle_alpha                 99.996683
_cell_angle_beta                  99.664405
_cell_angle_gamma                 60.455481
_cell_volume                      1681.9697604

loop_
_atom_site_label
_atom_site_type_symbol
_atom_type_description
_atom_site_fract_x
_atom_site_fract_y
_atom_site_fract_z
_atom_type_partial_charge
C1    C     C_R   0.354961 0.778574 0.402296 0.537440
C2    C     C_R   0.853849 0.316878 0.331919 -0.000691
C3    C     C_R   0.315764 0.868896 0.171280 0.005683
C4    C     C_R   0.406731 0.374052 0.356332 0.585939
C5    C     C_R   0.452207 0.818741 0.214260 0.010731
C6    C     C_R   0.463176 0.830092 0.299044 0.042881
C7    C     C_R   0.205080 0.909549 0.291801 -0.156588
C8    C     C_R   0.192992 0.919405 0.211595 -0.138863
C9    C     C_R   0.577287 0.755654 0.174266 -0.102112
C10   C     C_R   0.710387 0.714744 0.216674 -0.151945
C11   C     C_R   0.721762 0.740222 0.299332 -0.110233
C12   C     C_R   0.812117 0.237031 0.192291 0.006216
C13   C     C_R   0.599349 0.807483 0.341671 0.061077
C14   C     C_R   0.339425 0.854378 0.334857 -0.007709
C15   C     C_R   0.299064 0.275511 0.799097 -0.005156
C16   C     C_R   0.780618 0.372357 0.404948 0.548966
C17   C     C_R   0.426343 0.175541 0.762427 0.020810
C18   C     C_R   0.477936 0.224948 0.711939 0.030282
C19   C     C_R   0.246378 0.444490 0.706196 -0.149379
C20   C     C_R   0.208604 0.408403 0.769272 -0.147435
C21   C     C_R   0.507480 0.029760 0.777827 -0.067255
C22   C     C_R   0.647241 0.943021 0.755613 0.006406
C23   C     C_R   0.825021 0.220250 0.273712 0.020728
C24   C     C_R   0.707518 0.002262 0.717809 -0.105757
C25   C     C_R   0.624116 0.141401 0.696344 -0.105905
C26   C     C_R   0.379960 0.353068 0.676334 0.000709
C27   C     C_1   0.818477 0.342156 0.708945 -0.064677
C28   C     C_R   0.357768 0.769543 0.627368 0.549721
C29   C     C_1   0.845617 0.313483 0.776547 -0.053261
C30   C     C_1   0.339053 0.809204 0.709470 -0.055416
C31   C     C_1   0.313529 0.836465 0.777635 -0.066182
C32   C     C_R   0.898141 0.308262 0.090050 0.534973
C33   C     C_R   0.321689 0.302958 0.119258 0.564407
C34   C     C_R   0.915250 0.391613 0.310202 -0.142335
C35   C     C_R   0.290280 0.898374 0.088207 0.540983
C36   C     C_R   0.886614 0.297208 0.858930 0.547817
C37   C     C_R   0.279037 0.252204 0.877002 0.545203
C38   C     C_R   0.279602 0.883765 0.857480 0.541147
C39   C     C_R   0.407000 0.375450 0.600155 0.557176
C40   C     C_R   0.773351 0.380770 0.629743 0.545483
C41   C     C_1   0.375129 0.361581 0.272010 -0.033001
C42   C     C_1   0.349035 0.343788 0.201241 -0.041372
C43   C     C_R   0.864840 0.321873 0.170917 0.006907
C44   C     C_3   0.617447 0.865439 0.428840 -0.227182
C45   C     C_R   0.926149 0.388976 0.230596 -0.138788
C46   C     C_3   0.702001 0.950075 0.442706 -0.318499
C47   C     C_3   0.853042 0.869193 0.485070 -0.447898
C48   C     C_3   0.733895 0.789852 0.774287 -0.388504
C49   C     C_R   0.754372 0.162466 0.134927 -0.094435
C50   C     C_R   0.732536 0.056526 0.156805 -0.098557
C51   C     C_R   0.764904 0.026128 0.235717 -0.130709
C52   C     C_R   0.809975 0.107180 0.293943 -0.101907
Cr1   Cr    Cr6+3 0.608100 0.610860 0.522250 0.981113
Cr2   Cr    Cr6+3 0.288890 0.599990 0.488420 0.997333
Cr3   Cr    Cr6+3 0.603040 0.289190 0.489390 0.957663
Cr4   Cr    Cr6+3 0.053960 0.052250 0.967380 1.016593
Cr5   Cr    Cr6+3 0.059890 0.373160 0.992710 1.011306
Cr6   Cr    Cr6+3 0.373370 0.061690 0.991710 0.995307
H1    H     H_    0.948454 0.457527 0.354478 0.135837
H2    H     H_    0.981585 0.441722 0.215865 0.139786
H3    H     H_    0.694490 0.995080 0.112159 0.135337
H4    H     H_    0.754754 0.939958 0.251918 0.123316
H5    H     H_    0.840319 0.075964 0.353919 0.123506
H6    H     H_    0.110107 0.934813 0.319013 0.134920
H7    H     H_    0.574100 0.734023 0.109873 0.132417
H8    H     H_    0.085839 0.963965 0.180679 0.162422
H9    H     H_    0.846054 0.849688 0.545624 0.139435
H10   H     H_    0.918610 0.764605 0.451065 0.149100
H11   H     H_    0.908379 0.935065 0.491669 0.150192
H12   H     H_    0.804833 0.669756 0.184793 0.124524
H13   H     H_    0.707748 0.982151 0.385968 0.170449
H14   H     H_    0.644040 0.049849 0.481473 0.223228
H15   H     H_    0.509827 0.939034 0.450296 0.148450
H16   H     H_    0.673794 0.774681 0.466260 0.194156
H17   H     H_    0.671108 0.757345 0.803612 0.137326
H18   H     H_    0.767757 0.717892 0.718150 0.161460
H19   H     H_    0.831149 0.776149 0.814843 0.130028
H20   H     H_    0.826788 0.714679 0.329626 0.108829
H21   H     H_    0.171336 0.544046 0.681018 0.141380
H22   H     H_    0.463445 0.983384 0.807963 0.149166
H23   H     H_    0.109353 0.484844 0.795049 0.141523
H24   H     H_    0.817728 0.939675 0.703017 0.113345
H25   H     H_    0.675062 0.181767 0.666803 0.155437
H26   H     H_    0.728340 0.183203 0.072889 0.135173
O1    O     O_R   0.749810 0.499790 0.438040 -0.520897
O2    O     O_R   0.411730 0.181020 0.091530 -0.511435
O3    O     O_R   0.365010 0.944360 0.063320 -0.504298
O4    O     O_R   0.477660 0.726260 0.439290 -0.519262
O5    O     O_R   0.159380 0.906670 0.876210 -0.499499
O6    O     O_R   0.930820 0.177420 0.886730 -0.492192
O7    O     O_R   0.910360 0.395420 0.895720 -0.524375
O8    O     O_R   0.186010 0.361730 0.919870 -0.494816
O9    O     O_R   0.400000 0.173010 0.914630 -0.519539
O10   O     O_R   0.354140 0.936940 0.899340 -0.537572
O11   O     O_3   0.162410 0.162370 0.983930 -0.264844
O12   O     O_R   0.298970 0.468800 0.557390 -0.489644
O13   O     O_R   0.260150 0.743000 0.412270 -0.523912
O14   O     O_R   0.297740 0.466550 0.394720 -0.491732
O15   O     O_R   0.488080 0.253500 0.386430 -0.520192
O16   O     O_R   0.722670 0.303800 0.421940 -0.526750
O17   O     O_R   0.751130 0.502220 0.613520 -0.514148
O18   O     O_R   0.478890 0.728510 0.601960 -0.497433
O19   O     O_R   0.261470 0.745430 0.587750 -0.524953
O20   O     O_R   0.489400 0.255930 0.561910 -0.541762
O21   O     O_R   0.723890 0.306050 0.584610 -0.537992
O22   O     O_3   0.500010 0.500010 0.500020 -0.274678
O23   O     O_R   0.171100 0.914680 0.053100 -0.518135
O24   O     O_R   0.941680 0.184840 0.050710 -0.506570
O25   O     O_R   0.922080 0.403420 0.072610 -0.528102
O26   O     O_R   0.196880 0.369150 0.083850 -0.495259

loop_
_geom_bond_atom_site_label_1
_geom_bond_atom_site_label_2
_ccdc_geom_bond_type
Cr4   O11   S    
C22   C48   S    
C45   H2    S    
C8    H8    S    
Cr5   O8    S    
C4    O14   A    
C27   C29   T    
C41   C42   T    
C48   H18   S    
C19   C20   A    
C18   C26   A    
Cr6   O11   S    
Cr6   O3    S    
C12   C49   A    
C7    C8    A    
C51   H4    S    
C29   C36   S    
Cr3   O21   S    
C33   C42   S    
C49   H26   S    
Cr6   O9    S    
C12   C43   A    
C30   C31   T    
C26   C39   S    
C4    C41   S    
C19   C26   A    
C24   H24   S    
Cr4   O24   S    
C40   O17   A    
C35   O3    A    
Cr1   O22   S    
C7    C14   A    
Cr5   O25   S    
Cr1   O17   S    
Cr3   O16   S    
Cr2   O13   S    
C2    C16   S    
C9    C10   A    
C27   C40   S    
C46   H14   S    
C2    C34   A    
C1    O4    A    
Cr4   O6    S    
C34   H1    S    
C20   H23   S    
C48   H17   S    
C18   C25   A    
Cr6   O2    S    
C47   H9    S    
C44   C46   S    
C50   C51   A    
C15   C20   A    
C39   O12   A    
C32   O25   A    
Cr2   O22   S    
Cr3   O22   S    
C51   C52   A    
Cr2   O19   S    
C39   O20   A    
C24   C25   A    
C3    C8    A    
C1    O13   A    
C16   O16   A    
Cr3   O20   S    
C17   C21   A    
C48   H19   S    
C19   H21   S    
C33   O2    A    
Cr4   O23   S    
C5    C9    A    
C11   H20   S    
C6    C14   A    
Cr5   O26   S    
C12   C23   A    
C3    C35   S    
Cr1   O18   S    
C38   O10   A    
C17   C18   A    
C37   O9    A    
C34   C45   A    
C44   H16   S    
C43   C45   A    
C46   H13   S    
C10   H12   S    
C36   O7    A    
Cr4   O5    S    
Cr5   O11   S    
C16   O1    A    
C22   C24   A    
C47   H10   S    
C36   O6    A    
C15   C17   A    
C46   C47   S    
Cr5   O7    S    
C37   O8    A    
Cr2   O12   S    
C3    C5    A    
C52   H5    S    
C1    C14   S    
C47   H11   S    
C31   C38   S    
C38   O5    A    
C28   C30   S    
Cr6   O10   S    
C15   C37   S    
C6    C13   A    
C11   C13   A    
C28   O19   A    
C23   C52   A    
C5    C6    A    
C21   H22   S    
C32   C43   S    
Cr1   O4    S    
C44   H15   S    
C9    H7    S    
C7    H6    S    
C35   O23   A    
C10   C11   A    
C28   O18   A    
C49   C50   A    
C32   O24   A    
C4    O15   A    
Cr3   O15   S    
C2    C23   A    
C25   H25   S    
C50   H3    S    
Cr2   O14   S    
Cr1   O1    S    
C33   O26   A    
C21   C22   A    
C13   C44   S    
C40   O21   A    
