data_mof_unit_41619.cif
_audit_creation_date              2013-03-05T16:04:20-0500
_audit_creation_method            fapswitch 2.2
_symmetry_space_group_name_H-M    P1
_symmetry_Int_Tables_number       1
_space_group_crystal_system       triclinic
_cell_length_a                    9.628938
_cell_length_b                    10.782193
_cell_length_c                    13.611467
_cell_angle_alpha                 93.782233
_cell_angle_beta                  74.227955
_cell_angle_gamma                 90.246552
_cell_volume                      1356.85404734

loop_
_atom_site_label
_atom_site_type_symbol
_atom_site_description
_atom_site_fract_x
_atom_site_fract_y
_atom_site_fract_z
_atom_type_partial_charge
O1    O     O_R   0.381250 0.680340 0.500010 -0.594560
O2    O     O_R   0.618820 0.680370 0.500010 -0.538416
C1    C     C_R   0.498823 0.737398 0.503719 0.843030
O3    O     O_R   0.323240 0.499950 0.650980 -0.586630
O4    O     O_R   0.560810 0.499980 0.650980 -0.566897
C2    C     C_R   0.425618 0.488445 0.697657 0.843557
Cu1   Cu    Cu3+1 0.359340 0.499980 0.500000 1.012013
Cu2   Cu    Cu3+1 0.640660 0.500020 0.500000 1.048731
O5    O     O_R   0.381180 0.319630 0.499990 -0.562732
O6    O     O_R   0.618750 0.319660 0.499990 -0.543491
O7    O     O_R   0.439190 0.500020 0.349020 -0.561979
O8    O     O_R   0.676760 0.500050 0.349020 -0.564960
C3    C     C_R   0.498443 0.262753 0.502523 0.817025
C4    C     C_R   0.575572 0.503794 0.301706 0.836840
C5    C     C_R   0.788853 0.552668 0.033194 -0.136849
H1    H     H_    0.828146 0.582083 0.179993 0.175479
H2    H     H_    0.853954 0.498381 0.834049 0.154487
H3    H     H_    0.896825 0.580351 0.993516 0.138589
C6    C     C_R   0.614001 0.512332 0.190985 -0.062235
C7    C     C_R   0.246396 0.431472 0.853812 -0.213781
C8    C     C_R   0.202879 0.407711 0.956596 0.049067
C9    C     C_R   0.299221 0.427216 0.016959 -0.217183
C10   C     C_R   0.445583 0.456443 0.972177 0.053718
C11   C     C_R   0.493777 0.457759 0.863884 0.099479
C12   C     C_R   0.547078 0.482908 0.030255 0.068960
C13   C     C_R   0.691644 0.511226 0.978724 0.133493
C14   C     C_R   0.740333 0.490927 0.873476 -0.171728
C15   C     C_R   0.644559 0.455983 0.817921 -0.101384
C16   C     C_R   0.511129 0.482944 0.137385 -0.210040
C17   C     C_R   0.750239 0.553059 0.139042 -0.128374
C18   C     C_R   0.389611 0.459171 0.806355 -0.103955
H4    H     H_    0.404939 0.458154 0.180711 0.193736
H5    H     H_    0.167676 0.426216 0.810045 0.171794
H6    H     H_    0.258168 0.414740 0.097483 0.193621
H7    H     H_    0.694130 0.424714 0.739639 0.183857
C19   C     C_R   0.604797 0.930524 0.439879 -0.151783
H8    H     H_    0.688562 0.877057 0.383879 0.149838
C20   C     C_R   0.603113 0.058093 0.438063 -0.123781
H9    H     H_    0.685585 0.100954 0.380508 0.195867
C21   C     C_R   0.494643 0.128934 0.507759 -0.116949
C22   C     C_R   0.386577 0.071572 0.582361 -0.073252
C23   C     C_R   0.387063 0.940890 0.583646 -0.066281
C24   C     C_R   0.496764 0.871681 0.510525 -0.072145
C25   C     C_R   0.905810 0.589713 0.556421 0.390425
C26   C     C_R   0.054339 0.590228 0.554353 -0.094663
H10   H     H_    0.094076 0.663212 0.597555 0.181781
N1    N     N_R   0.147940 0.499970 0.499970 -0.233405
C27   C     C_R   0.095513 0.408899 0.445445 0.035659
C28   C     C_R   0.951610 0.415660 0.436354 -0.050582
N2    N     N_R   0.852060 0.500060 0.499990 -0.259673
C29   C     C_2   0.282651 0.147504 0.664451 0.882865
O9    O     O_2   0.295457 0.152846 0.751544 -0.573934
O10   O     O_R   0.167835 0.208716 0.642956 -0.689361
H11   H     H_    0.102118 0.254488 0.705698 0.344999
C30   C     C_2   0.276760 0.877410 0.662545 0.868485
O11   O     O_2   0.149634 0.908737 0.682930 -0.537899
O12   O     O_R   0.318738 0.782106 0.713690 -0.741932
H12   H     H_    0.234220 0.745966 0.765146 0.328985
N3    N     N_R   0.817451 0.692511 0.609321 0.143760
O13   O     O_R   0.730531 0.680520 0.699521 -0.338532
O14   O     O_R   0.849965 0.803756 0.579582 -0.320763
C31   C     C_2   0.184037 0.296683 0.400672 0.970961
O15   O     O_2   0.291065 0.303379 0.328493 -0.578356
O16   O     O_R   0.137601 0.180955 0.436676 -0.723955
H13   H     H_    0.205067 0.110522 0.399711 0.336400
C32   C     C_2   0.925034 0.339054 0.346529 0.895935
O17   O     O_2   0.807705 0.298982 0.345975 -0.564653
O18   O     O_R   0.040714 0.307007 0.261306 -0.756629
H14   H     H_    0.017646 0.235543 0.216280 0.362074
C33   C     C_2   0.055435 0.362465 0.999488 0.834902
O19   O     O_2   0.996851 0.379494 0.090655 -0.597609
O20   O     O_R   0.981927 0.301150 0.935290 -0.758029
H15   H     H_    0.881794 0.274645 0.973722 0.348949

loop_
_geom_bond_atom_site_label_1
_geom_bond_atom_site_label_2
_geom_bond_distance
_ccdc_geom_bond_type
C5    H3    1.083985 S    
C32   O18   1.397763 S    
C10   C11   1.420969 A    
O6    C3    1.301763 A    
C31   O15   1.220992 D    
Cu2   N2    2.035519 S    
C23   C30   1.490138 S    
O4    Cu2   1.988863 S    
C22   C23   1.410345 A    
C29   O10   1.396802 S    
C27   C31   1.480235 S    
N1    C27   1.368623 A    
Cu2   O8    1.988932 S    
C8    C33   1.474961 S    
C30   O11   1.223117 D    
O16   H13   1.013931 S    
C19   C20   1.377569 A    
C2    C18   1.480093 S    
C13   C14   1.383608 A    
C11   C18   1.431118 A    
N3    O13   1.298458 A    
O1    Cu1   1.955179 S    
O10   H11   1.013224 S    
C7    C8    1.387869 A    
Cu1   O7    1.988865 S    
C1    C24   1.444594 S    
O12   H12   1.013965 S    
O4    C2    1.293489 A    
C19   H8    1.084310 S    
O3    Cu1   1.988931 S    
C7    H5    1.083199 S    
O3    C2    1.320137 A    
C27   C28   1.426836 A    
C20   C21   1.395305 A    
C22   C29   1.482800 S    
O8    C4    1.307893 A    
O2    C1    1.298454 A    
C16   H4    1.074880 S    
Cu1   O5    1.956792 S    
C30   O12   1.398167 S    
O18   H14   1.014356 S    
C12   C16   1.404176 A    
C20   H9    1.079036 S    
C9    H6    1.076632 S    
O7    C4    1.297757 A    
N3    O14   1.300972 A    
C19   C24   1.392959 A    
C28   C32   1.509191 S    
C25   N3    1.428507 S    
H1    C17   1.083355 S    
C29   O9    1.222388 D    
H2    C14   1.084973 S    
C26   H10   1.081723 S    
Cu1   Cu2   2.708812 S    
C33   O19   1.217415 D    
C32   O17   1.209582 D    
C25   C26   1.422780 A    
C5    C17   1.386369 A    
Cu2   O6    1.955179 S    
C10   C12   1.431529 A    
C23   C24   1.414386 A    
C26   N1    1.362771 A    
C25   N2    1.380631 A    
C14   C15   1.379409 A    
C28   N2    1.396204 A    
O5    C3    1.296957 A    
C9    C10   1.418288 A    
C21   C22   1.413984 A    
C5    C13   1.398371 A    
C31   O16   1.397804 S    
O1    C1    1.297569 A    
C12   C13   1.420122 A    
C8    C9    1.403483 A    
C6    C17   1.394775 A    
C4    C6    1.459982 S    
C33   O20   1.399144 S    
O2    Cu2   1.956795 S    
C11   C15   1.415824 A    
C15   H7    1.074415 S    
Cu1   N1    2.035668 S    
O20   H15   1.013966 S    
C3    C21   1.449122 S    
C7    C18   1.394919 A    
C6    C16   1.404818 A    
