data_mof_unit_28582.cif
_audit_creation_date              2012-12-11T14:46:01-0500
_audit_creation_method            fapswitch 2.2
_symmetry_space_group_name_H-M    P1
_symmetry_Int_Tables_number       1
_space_group_crystal_system       triclinic
_cell_length_a                    10.899552
_cell_length_b                    10.939397
_cell_length_c                    18.814368
_cell_angle_alpha                 89.964053
_cell_angle_beta                  90.283631
_cell_angle_gamma                 119.744511
_cell_volume                      1947.72817502

loop_
_atom_site_label
_atom_site_type_symbol
_atom_type_description
_atom_site_fract_x
_atom_site_fract_y
_atom_site_fract_z
_atom_type_partial_charge
C1    C     C_R   0.864593 0.637875 0.603279 0.550469
C2    C     C_R   0.418357 0.620596 0.778012 -0.118686
C3    C     C_R   0.398646 0.612827 0.705610 -0.128504
C4    C     C_R   0.324566 0.672774 0.675035 0.028311
C5    C     C_R   0.842621 0.168452 0.822815 -0.007016
C6    C     C_R   0.090203 0.226809 0.826291 -0.083948
C7    C     C_R   0.211634 0.248121 0.791671 -0.125316
C8    C     C_R   0.208066 0.222965 0.719020 -0.134520
C9    C     C_R   0.084961 0.184073 0.679954 -0.079523
C10   C     C_R   0.963939 0.174610 0.712651 0.010242
C11   C     C_R   0.964524 0.186971 0.787894 -0.011317
C12   C     C_R   0.270945 0.632906 0.603604 0.550440
C13   C     C_R   0.718823 0.122622 0.709406 -0.039435
C14   C     C_R   0.729462 0.161149 0.781191 0.034250
C15   C     C_R   0.587268 0.069689 0.674144 -0.091512
C16   C     C_R   0.477707 0.080825 0.705229 -0.183609
C17   C     C_R   0.497801 0.143855 0.771503 -0.108294
C18   C     C_R   0.623634 0.187433 0.808733 0.407632
C19   C     C_R   0.843046 0.153535 0.672703 -0.035257
C20   C     C_R   0.720298 0.539998 0.711645 -0.143557
C21   C     C_R   0.710393 0.551293 0.784727 -0.137929
C22   C     C_R   0.801513 0.678206 0.818761 0.031426
C23   C     C_R   0.861208 0.222051 0.601992 0.536864
C24   C     C_R   0.892067 0.797357 0.778512 -0.135730
C25   C     C_R   0.899442 0.787330 0.706097 -0.143212
C26   C     C_R   0.819907 0.657037 0.672767 0.025952
C27   C     C_R   0.415908 0.637934 0.296319 0.351672
C28   C     C_R   0.439386 0.649272 0.224067 -0.082245
C29   C     C_R   0.367644 0.696328 0.179367 0.022902
C30   C     C_R   0.277749 0.739878 0.207528 -0.090266
C31   C     C_R   0.254191 0.728980 0.280314 -0.155279
C32   C     C_R   0.320656 0.674552 0.324528 0.042377
C33   C     C_R   0.693162 0.077342 0.300306 -0.000614
C34   C     C_R   0.864838 0.638574 0.397701 0.551676
C35   C     C_R   0.675473 0.047082 0.228114 0.336009
C36   C     C_R   0.791455 0.074338 0.185737 0.019847
C37   C     C_R   0.926025 0.129553 0.216482 -0.204420
C38   C     C_R   0.945925 0.166657 0.287969 -0.174879
C39   C     C_R   0.831182 0.147191 0.329711 -0.044849
C40   C     C_R   0.899279 0.785989 0.294615 -0.134797
C41   C     C_R   0.895596 0.795412 0.222076 -0.141979
C42   C     C_R   0.808856 0.675868 0.180843 0.011241
C43   C     C_R   0.722680 0.546405 0.213466 -0.139948
C44   C     C_R   0.730084 0.535662 0.286783 -0.066223
C45   C     C_R   0.270132 0.634130 0.396299 0.589323
C46   C     C_R   0.822208 0.655174 0.327139 0.063596
C47   C     C_R   0.808467 0.107314 0.895656 0.559210
C48   C     C_R   0.399689 0.702370 0.895322 0.538772
C49   C     C_R   0.793142 0.697973 0.894359 0.571556
C50   C     C_R   0.768095 0.043142 0.109905 0.588270
C51   C     C_R   0.398678 0.705597 0.104529 0.547407
C52   C     C_R   0.796471 0.697794 0.106002 0.545823
C53   C     C_R   0.859618 0.224084 0.397119 0.539495
C54   C     C_R   0.276790 0.747234 0.717122 -0.126122
C55   C     C_R   0.300447 0.758494 0.789921 -0.130808
C56   C     C_R   0.367242 0.691009 0.820537 0.039397
Cr1   Cr    Cr6+3 0.791660 0.390250 0.499930 1.046341
Cr2   Cr    Cr6+3 0.098520 0.708290 0.500540 1.027729
Cr3   Cr    Cr6+3 0.109770 0.401430 0.499480 1.040950
Cr4   Cr    Cr6+3 0.874790 0.925890 0.000070 1.014066
Cr5   Cr    Cr6+3 0.574120 0.948670 0.999300 1.105269
Cr6   Cr    Cr6+3 0.551420 0.625320 0.000920 1.036846
H1    H     H_    0.215526 0.791064 0.694418 0.138610
H2    H     H_    0.379328 0.045628 0.676717 0.114613
H3    H     H_    0.571324 0.025061 0.621240 0.145254
H4    H     H_    0.415427 0.158020 0.794481 0.118323
H5    H     H_    0.656093 0.438436 0.686501 0.140512
H6    H     H_    0.633376 0.461722 0.814525 0.178878
H7    H     H_    0.958221 0.899397 0.802839 0.152380
H8    H     H_    0.974840 0.879559 0.677030 0.131215
H9    H     H_    0.513243 0.620163 0.202672 0.152216
H10   H     H_    0.224461 0.778956 0.173446 0.144437
H11   H     H_    0.263400 0.815486 0.822218 0.126236
H12   H     H_    0.178572 0.756231 0.301458 0.153481
H13   H     H_    0.016972 0.150520 0.184709 0.150945
H14   H     H_    0.052514 0.218821 0.309246 0.164908
H15   H     H_    0.970078 0.879567 0.324628 0.142512
H16   H     H_    0.960770 0.897730 0.198409 0.146273
H17   H     H_    0.652122 0.454448 0.182421 0.145258
H18   H     H_    0.669759 0.433033 0.311171 0.163291
H19   H     H_    0.473559 0.570791 0.800919 0.134797
H20   H     H_    0.434956 0.554131 0.674122 0.130955
H21   H     H_    0.308485 0.284278 0.821629 0.118213
H22   H     H_    0.301423 0.235102 0.692610 0.103148
H23   H     H_    0.097271 0.248445 0.882747 0.138037
H24   H     H_    0.085236 0.159082 0.624423 0.131046
O1    O     O_R   0.766500 0.250040 0.579790 -0.512061
O2    O     O_R   0.218690 0.701900 0.425960 -0.506707
O3    O     O_R   0.249490 0.516440 0.419420 -0.461659
O4    O     O_R   0.982880 0.281910 0.424890 -0.507425
O5    O     O_3   0.999980 0.499990 0.499980 -0.257678
O6    O     O_R   0.895110 0.806860 0.920430 -0.522629
O7    O     O_R   0.872260 0.046970 0.925000 -0.522089
O8    O     O_R   0.691430 0.085060 0.918550 -0.436188
O9    O     O_R   0.451490 0.822460 0.925250 -0.504489
O10   O     O_R   0.413330 0.603360 0.920440 -0.527007
O11   O     O_R   0.676110 0.626250 0.926750 -0.488006
O12   O     O_R   0.798570 0.516780 0.574780 -0.499185
O13   O     O_R   0.895350 0.809870 0.080950 -0.526671
O14   O     O_R   0.872490 0.049760 0.073800 -0.525701
O15   O     O_R   0.691680 0.088070 0.079070 -0.437538
O16   O     O_R   0.451720 0.825250 0.074050 -0.461878
O17   O     O_R   0.413580 0.606370 0.080960 -0.531575
O18   O     O_R   0.676340 0.629040 0.075550 -0.498849
O19   O     O_3   0.666780 0.833290 0.000090 -0.295375
O20   O     O_R   0.984000 0.732950 0.581090 -0.530429
O21   O     O_R   0.218600 0.700890 0.574760 -0.510120
O22   O     O_R   0.249390 0.515350 0.579940 -0.512655
O23   O     O_R   0.982790 0.280900 0.573700 -0.508643
O24   O     O_R   0.766600 0.251130 0.419260 -0.511693
O25   O     O_R   0.798660 0.517790 0.425980 -0.495479
O26   O     O_R   0.984100 0.734040 0.420570 -0.529322
F1    F     F_    0.482428 0.587448 0.338226 -0.636920
C57   C     C_1   0.568352 0.041243 0.341912 0.287207
N1    N     N_1   0.468775 0.012946 0.375216 -0.282042
F2    F     F_    0.545681 0.997709 0.198414 -0.638198
F3    F     F_    0.644899 0.262798 0.869425 -0.640107

loop_
_geom_bond_atom_site_label_1
_geom_bond_atom_site_label_2
_ccdc_geom_bond_type
C53   O24   A    
C7    H21   S    
C55   C56   A    
C48   O9    A    
Cr6   O10   S    
C34   O26   A    
C41   C42   A    
C14   C18   A    
C20   H5    S    
Cr5   O15   S    
C35   C36   A    
Cr4   O13   S    
C57   N1    T    
C7    C8    A    
Cr6   O19   S    
C38   H14   S    
C51   O16   A    
C40   C46   A    
C5    C47   S    
C17   H4    S    
C29   C30   A    
C6    H23   S    
Cr2   O26   S    
C28   C29   A    
C29   C51   S    
C33   C57   S    
C5    C11   A    
Cr3   O3    S    
C38   C39   A    
C54   H1    S    
C43   H17   S    
C15   C16   A    
C15   H3    S    
C48   O10   A    
Cr2   O21   S    
C32   C45   S    
C39   C53   S    
Cr3   O23   S    
C31   C32   A    
C8    C9    A    
C34   C46   S    
C4    C12   S    
Cr5   O19   S    
C9    C10   A    
C1    O20   A    
Cr4   O7    S    
C37   H13   S    
C23   O1    A    
C21   C22   A    
C34   O25   A    
C44   C46   A    
C24   H7    S    
Cr6   O18   S    
Cr4   O6    S    
C23   O23   A    
C13   C19   A    
C44   H18   S    
C45   O2    A    
C24   C25   A    
C6    C11   A    
C12   O22   A    
Cr5   O8    S    
C16   C17   A    
C31   H12   S    
Cr3   O5    S    
C25   C26   A    
Cr1   O1    S    
Cr2   O20   S    
Cr3   O4    S    
C19   C23   S    
C43   C44   A    
C37   C38   A    
C9    H24   S    
Cr6   O11   S    
Cr1   O24   S    
C10   C19   A    
C3    H20   S    
C17   C18   A    
C47   O7    A    
C35   F2    S    
C33   C39   A    
C18   F3    S    
C5    C14   A    
C22   C49   S    
C27   F1    S    
C40   C41   A    
C13   C15   A    
C21   H6    S    
C1    C26   S    
C22   C24   A    
C28   H9    S    
C42   C43   A    
C49   O6    A    
C3    C4    A    
C41   H16   S    
C36   C50   S    
Cr6   O17   S    
Cr2   O5    S    
C48   C56   S    
C54   C55   A    
C52   O18   A    
C45   O3    A    
Cr1   O5    S    
C4    C54   A    
C27   C32   A    
C8    H22   S    
Cr4   O14   S    
Cr2   O2    S    
C1    O12   A    
C12   O21   A    
C30   H10   S    
Cr1   O25   S    
Cr5   O9    S    
C6    C7    A    
C52   O13   A    
C50   O14   A    
Cr3   O22   S    
Cr5   O16   S    
C2    C56   A    
C30   C31   A    
C20   C26   A    
Cr1   O12   S    
C33   C35   A    
C47   O8    A    
C2    C3    A    
C10   C11   A    
C49   O11   A    
C55   H11   S    
C20   C21   A    
C50   O15   A    
C36   C37   A    
C53   O4    A    
C40   H15   S    
C2    H19   S    
C25   H8    S    
C16   H2    S    
C13   C14   A    
C51   O17   A    
Cr4   O19   S    
C42   C52   S    
C27   C28   A    
