data_mof_unit_10975.cif
_audit_creation_date              2012-12-11T15:53:44-0500
_audit_creation_method            fapswitch 2.2
_symmetry_space_group_name_H-M    P1
_symmetry_Int_Tables_number       1
_space_group_crystal_system       triclinic
_cell_length_a                    6.929162
_cell_length_b                    14.545599
_cell_length_c                    15.972976
_cell_angle_alpha                 90.395195
_cell_angle_beta                  89.952679
_cell_angle_gamma                 89.950893
_cell_volume                      1609.85782944

loop_
_atom_site_label
_atom_site_type_symbol
_atom_type_description
_atom_site_fract_x
_atom_site_fract_y
_atom_site_fract_z
_atom_type_partial_charge
O1    O     O_R   0.361600 0.167310 0.164620 -0.541188
O2    O     O_R   0.638400 0.832690 0.835380 -0.541192
O3    O     O_R   0.691080 0.157570 0.338750 -0.546825
O4    O     O_R   0.308920 0.842430 0.661250 -0.546827
O5    O     O_R   0.861410 0.336420 0.339360 -0.538875
O6    O     O_R   0.138590 0.663580 0.660640 -0.538877
C1    C     C_R   0.522022 0.135230 0.367511 0.689221
C2    C     C_R   0.477978 0.864774 0.632493 0.689254
O7    O     O_R   0.691320 0.156280 0.165240 -0.543629
O8    O     O_R   0.308680 0.843720 0.834760 -0.543631
O9    O     O_R   0.861640 0.335130 0.164600 -0.540314
O10   O     O_R   0.138360 0.664870 0.835400 -0.540317
C3    C     C_R   0.522333 0.133782 0.136065 0.686431
C4    C     C_R   0.477667 0.866218 0.863935 0.686419
O11   O     O_R   0.361370 0.168600 0.339370 -0.544215
O12   O     O_R   0.638630 0.831400 0.660630 -0.544187
O13   O     O_3   0.527990 0.310540 0.251980 -0.367560
O14   O     O_3   0.472010 0.689460 0.748020 -0.367564
V1    V     V_3+5 0.802830 0.240980 0.251990 1.396858
V2    V     V_3+5 0.197170 0.759020 0.748010 1.396866
O15   O     O_R   0.191360 0.346160 0.165220 -0.544745
O16   O     O_R   0.808640 0.653840 0.834780 -0.544745
C5    C     C_R   0.022294 0.368352 0.136151 0.697650
C6    C     C_R   0.977706 0.631648 0.863849 0.697628
O17   O     O_R   0.191130 0.347440 0.338740 -0.540255
O18   O     O_R   0.808870 0.652560 0.661260 -0.540247
C7    C     C_R   0.021993 0.369022 0.367599 0.754825
C8    C     C_R   0.978007 0.630975 0.632403 0.754843
V3    V     V_3+5 0.302840 0.262750 0.251990 1.405334
V4    V     V_3+5 0.697160 0.737250 0.748010 1.405371
O19   O     O_3   0.027820 0.193180 0.251990 -0.376184
O20   O     O_3   0.972180 0.806820 0.748010 -0.376182
C9    C     C_3   0.819231 0.470458 0.479974 -0.381310
C10   C     C_3   0.180772 0.529537 0.520028 -0.381359
C11   C     C_3   0.918500 0.463100 0.567142 0.369289
C12   C     C_3   0.081500 0.536895 0.432858 0.369192
H1    H     H_    0.671108 0.447802 0.463455 0.144285
H2    H     H_    0.328898 0.552190 0.536545 0.144299
C13   C     C_3   0.989890 0.562738 0.562094 -0.249212
C14   C     C_3   0.010110 0.437258 0.437908 -0.249193
C15   C     C_3   0.894780 0.570664 0.474986 0.404208
C16   C     C_3   0.105220 0.429332 0.525015 0.404240
C17   C     C_R   0.820651 0.524259 0.966624 -0.156253
C18   C     C_R   0.179349 0.475741 0.033377 -0.156238
H3    H     H_    0.679971 0.541867 0.941977 0.113538
H4    H     H_    0.320029 0.458133 0.058024 0.113534
C19   C     C_R   0.831651 0.461392 0.032498 -0.144699
C20   C     C_R   0.168348 0.538609 0.967503 -0.144700
H5    H     H_    0.698887 0.432384 0.056403 0.117511
H6    H     H_    0.301112 0.567617 0.943597 0.117512
C21   C     C_R   0.011165 0.436201 0.066803 -0.042375
C22   C     C_R   0.988835 0.563799 0.933198 -0.042376
C23   C     C_R   0.678809 0.036154 0.476475 -0.169451
C24   C     C_R   0.321190 0.963862 0.523538 -0.169475
C25   C     C_R   0.667900 0.971047 0.540361 -0.158175
C26   C     C_R   0.332099 0.028970 0.459653 -0.158174
C27   C     C_R   0.488956 0.934054 0.564724 -0.039199
C28   C     C_R   0.511044 0.065959 0.435287 -0.039142
C29   C     C_R   0.679507 0.025388 0.032733 -0.155565
C30   C     C_R   0.320493 0.974612 0.967267 -0.155564
C31   C     C_R   0.668419 0.961364 0.967003 -0.150299
C32   C     C_R   0.331581 0.038636 0.032996 -0.150299
C33   C     C_R   0.488754 0.935074 0.933307 -0.046851
C34   C     C_R   0.511246 0.064926 0.066693 -0.046855
O21   O     O_3   0.848004 0.423409 0.641591 -0.556529
C35   C     C_3   0.645666 0.432331 0.645079 0.100827
H7    H     H_    0.578393 0.383096 0.600368 0.167164
H8    H     H_    0.597828 0.503564 0.630446 0.136543
C36   C     C_3   0.576017 0.409624 0.732814 -0.658874
H9    H     H_    0.640714 0.458128 0.778892 0.211843
H10   H     H_    0.416339 0.415728 0.735772 0.196404
H11   H     H_    0.617942 0.338238 0.749101 0.214719
O22   O     O_3   0.151991 0.576569 0.358401 -0.556575
C37   C     C_3   0.354336 0.567681 0.354928 0.100845
H12   H     H_    0.402226 0.496464 0.369594 0.136551
H13   H     H_    0.421554 0.616953 0.399621 0.167168
C38   C     C_3   0.423989 0.590352 0.267186 -0.658948
H14   H     H_    0.381929 0.661705 0.250848 0.214723
H15   H     H_    0.583679 0.584319 0.264249 0.196422
H16   H     H_    0.359416 0.541782 0.221132 0.211856
O23   O     O_3   0.776134 0.642254 0.445242 -0.562018
C39   C     C_3   0.871728 0.727677 0.451596 0.103216
H17   H     H_    0.027189 0.723399 0.434243 0.139819
H18   H     H_    0.859187 0.755073 0.516419 0.109214
C40   C     C_3   0.775269 0.795497 0.392883 -0.696199
H19   H     H_    0.621540 0.805031 0.410784 0.221136
H20   H     H_    0.850103 0.862880 0.396502 0.176044
H21   H     H_    0.782781 0.769381 0.327454 0.230049
O24   O     O_3   0.223826 0.357732 0.554770 -0.562008
C41   C     C_3   0.128262 0.272307 0.548339 0.103244
H22   H     H_    0.141212 0.244888 0.483538 0.109312
H23   H     H_    0.972691 0.276585 0.565508 0.139621
C42   C     C_3   0.224353 0.204510 0.607187 -0.696086
H24   H     H_    0.216383 0.230642 0.672601 0.230091
H25   H     H_    0.149573 0.137118 0.603483 0.175993
H26   H     H_    0.378203 0.194986 0.589480 0.221144
H27   H     H_    0.818912 0.063342 0.459637 0.111596
H28   H     H_    0.181086 0.936673 0.540375 0.111609
H29   H     H_    0.800158 0.949812 0.570713 0.117484
H30   H     H_    0.199840 0.050204 0.429301 0.117460
H31   H     H_    0.820306 0.043892 0.056850 0.116766
H32   H     H_    0.179694 0.956108 0.943150 0.116766
H33   H     H_    0.801256 0.932371 0.942694 0.118807
H34   H     H_    0.198744 0.067629 0.057306 0.118807

loop_
_geom_bond_atom_site_label_1
_geom_bond_atom_site_label_2
_ccdc_geom_bond_type
C6    C22   S    
C35   H8    S    
C42   H24   S    
O13   V3    S    
O22   C37   S    
C23   C25   A    
C10   C16   S    
O4    C2    A    
V1    O19   S    
O23   C39   S    
C19   H5    S    
C38   H14   S    
O9    V1    S    
C29   C34   A    
C37   H13   S    
C30   C33   A    
C31   H33   S    
O3    C1    A    
C17   C22   A    
C40   H21   S    
C35   C36   S    
C11   O21   S    
O12   V4    S    
C30   C32   A    
C36   H10   S    
C11   C16   S    
O7    C3    A    
C32   C34   A    
C9    C11   S    
O5    C7    A    
C41   H23   S    
O7    V1    S    
O6    C8    A    
O8    V2    S    
C37   C38   S    
O3    V1    S    
O14   V4    S    
C1    C28   S    
C10   C12   S    
C20   H6    S    
C35   H7    S    
C42   H25   S    
C12   C15   S    
C30   H32   S    
O1    V3    S    
C18   H4    S    
O11   V3    S    
C32   H34   S    
C38   H15   S    
O17   V3    S    
C24   C26   A    
C29   C31   A    
C9    C14   S    
C37   H12   S    
C40   H20   S    
C10   C13   S    
C29   H31   S    
C12   C14   S    
C13   C15   S    
O8    C4    A    
C19   C21   A    
C1    O11   A    
C8    C13   S    
C23   H27   S    
C40   H19   S    
O15   V3    S    
C9    H1    S    
C36   H11   S    
C11   C13   S    
C2    C27   S    
C5    C21   S    
C7    C14   S    
C15   O23   S    
O10   V2    S    
C31   C33   A    
C17   H3    S    
C18   C21   A    
O18   V4    S    
C42   H26   S    
C39   H18   S    
O15   C5    A    
O16   C6    A    
O1    C3    A    
C26   H30   S    
C41   C42   S    
V2    O20   S    
C38   H16   S    
O16   V4    S    
C10   H2    S    
C14   C16   S    
C23   C28   A    
O5    V1    S    
O17   C7    A    
C39   C40   S    
O6    V2    S    
O10   C6    A    
O18   C8    A    
O2    V4    S    
C16   O24   S    
C9    C15   S    
C25   C27   A    
V3    O19   S    
V4    O20   S    
C41   H22   S    
C3    C34   S    
C4    C33   S    
O9    C5    A    
O13   V1    S    
C26   C28   A    
O14   V2    S    
O21   C35   S    
C36   H9    S    
O2    C4    A    
C12   O22   S    
O4    V2    S    
C20   C22   A    
C2    O12   A    
C39   H17   S    
C25   H29   S    
C24   H28   S    
O24   C41   S    
C17   C19   A    
C18   C20   A    
C24   C27   A    
