data_mof_unit_57886.cif
_audit_creation_date              2012-10-26T20:21:18-0400
_audit_creation_method            fapswitch 2.2
_symmetry_space_group_name_H-M    P1
_symmetry_Int_Tables_number       1
_space_group_crystal_system       triclinic
_cell_length_a                    9.530377
_cell_length_b                    10.866371
_cell_length_c                    15.688988
_cell_angle_alpha                 90.334744
_cell_angle_beta                  73.025874
_cell_angle_gamma                 91.193112
_cell_volume                      1553.64426612

loop_
_atom_site_label
_atom_site_type_symbol
_atom_type_description
_atom_site_fract_x
_atom_site_fract_y
_atom_site_fract_z
_atom_type_partial_charge
C1    C     C_R   0.996783 0.262253 0.503681 0.579641
C2    C     C_R   0.125488 0.070153 0.460188 -0.109646
C3    C     C_R   0.005307 0.871755 0.494626 -0.036130
C4    C     C_R   0.994750 0.128238 0.504647 -0.050542
C5    C     C_R   0.542325 0.435817 0.562764 0.109136
C6    C     C_R   0.457835 0.563431 0.436848 0.098606
C7    C     C_R   0.393687 0.435959 0.562930 0.046039
C8    C     C_R   0.606380 0.563696 0.436892 0.031312
C9    C     C_R   0.916835 0.508995 0.671568 0.575861
C10   C     C_R   0.083294 0.491211 0.328398 0.584233
C11   C     C_R   0.869138 0.527762 0.768752 0.009309
C12   C     C_R   0.003280 0.737732 0.496111 0.592381
C13   C     C_R   0.131586 0.473386 0.231107 0.020017
C14   C     C_R   0.925468 0.552277 0.908767 -0.131293
C15   C     C_R   0.075838 0.450071 0.090868 -0.131369
C16   C     C_R   0.972153 0.532408 0.817022 -0.155710
C17   C     C_R   0.028793 0.468546 0.182728 -0.145883
C18   C     C_R   0.720777 0.550195 0.813970 0.226543
C19   C     C_R   0.280571 0.453161 0.185778 0.188280
C20   C     C_R   0.672136 0.529926 0.906535 0.036548
C21   C     C_R   0.329089 0.474017 0.093239 0.018679
C22   C     C_R   0.775570 0.545194 0.954704 0.024341
C23   C     C_R   0.579045 0.540092 0.092560 -0.047194
C24   C     C_R   0.225708 0.458450 0.045008 0.019343
C25   C     C_R   0.523593 0.501570 0.952661 0.049119
C26   C     C_R   0.477473 0.503252 0.047080 0.049877
C27   C     C_R   0.422003 0.465489 0.907045 -0.068126
C28   C     C_R   0.727074 0.556437 0.047257 -0.101583
C29   C     C_R   0.274169 0.448249 0.952378 -0.112338
C30   C     C_R   0.867873 0.057049 0.546367 0.197838
C31   C     C_R   0.132107 0.942969 0.452620 0.245954
C32   C     C_R   0.874431 0.929894 0.538834 -0.123195
Cu1   Cu    Cu3+1 0.140660 0.500020 0.500000 1.089456
Cu2   Cu    Cu3+1 0.859340 0.499980 0.500000 1.082847
H1    H     H_    0.803151 0.579141 0.084738 0.114887
H2    H     H_    0.223252 0.124802 0.429620 0.229989
H3    H     H_    0.571830 0.386170 0.614138 0.213798
H4    H     H_    0.428335 0.612948 0.385418 0.187017
H5    H     H_    0.312289 0.384770 0.613572 0.125919
H6    H     H_    0.687757 0.614929 0.386266 0.113939
H7    H     H_    0.431756 0.219395 0.117060 0.358160
H8    H     H_    0.489141 0.669255 0.683809 0.379410
H9    H     H_    0.797780 0.204350 0.707865 0.336380
H10   H     H_    0.499189 0.840898 0.419619 0.355805
H11   H     H_    0.198231 0.425481 0.914827 0.115866
H12   H     H_    0.912241 0.472997 0.216180 0.155070
H13   H     H_    0.088592 0.526800 0.783545 0.149436
H14   H     H_    0.006157 0.568993 0.943760 0.127806
H15   H     H_    0.995284 0.433396 0.055755 0.127641
H16   H     H_    0.545052 0.556293 0.163504 0.170112
H17   H     H_    0.455958 0.450379 0.835962 0.182578
H18   H     H_    0.776593 0.875346 0.569437 0.219301
N1    N     N_R   0.352080 0.500030 0.499980 -0.230419
N2    N     N_R   0.647920 0.499970 0.500020 -0.234751
O1    O     O_R   0.118740 0.319660 0.500000 -0.505135
O2    O     O_2   0.268508 0.252323 0.287080 -0.268334
O3    O     O_3   0.494414 0.265551 0.147199 -0.475445
O4    O     O_2   0.529488 0.736381 0.844766 -0.238100
O5    O     O_2   0.740618 0.750330 0.711743 -0.275075
O6    O     O_3   0.527574 0.599212 0.709752 -0.570966
O7    O     O_2   0.616833 0.163715 0.551777 -0.250279
O8    O     O_2   0.610255 0.024093 0.674239 -0.218155
O9    O     O_3   0.734819 0.238373 0.673805 -0.533669
O10   O     O_2   0.270127 0.772127 0.334082 -0.300192
O11   O     O_2   0.387031 0.976128 0.323696 -0.226265
O12   O     O_R   0.881260 0.680340 0.500000 -0.515574
O13   O     O_3   0.394934 0.836404 0.455862 -0.518536
O14   O     O_R   0.881170 0.319630 0.500010 -0.433753
O15   O     O_R   0.118830 0.680370 0.499990 -0.435954
O16   O     O_R   0.055570 0.500030 0.629830 -0.541011
O17   O     O_R   0.944430 0.499970 0.370170 -0.533177
O18   O     O_R   0.818000 0.500000 0.629840 -0.432666
O19   O     O_R   0.182000 0.500000 0.370160 -0.440600
O20   O     O_2   0.461311 0.404205 0.285845 -0.279363
S1    S     S_3+6 0.376484 0.342778 0.230065 0.034388
S2    S     S_3+6 0.628637 0.663893 0.770032 0.030656
S3    S     S_3+6 0.701464 0.119980 0.612534 0.034621
S4    S     S_3+6 0.299103 0.880329 0.387047 0.032293

loop_
_geom_bond_atom_site_label_1
_geom_bond_atom_site_label_2
_ccdc_geom_bond_type
Cu1   O1    S    
C21   C26   A    
C11   C18   A    
C5    H3    S    
C27   C29   A    
O8    S3    D    
C9    O18   A    
C12   O15   A    
Cu2   O12   S    
H9    O9    S    
H8    O6    S    
C19   C21   A    
C10   O19   A    
C20   C25   A    
C1    O14   A    
C23   C26   A    
C24   C29   A    
C32   H18   S    
C3    C12   S    
C30   S3    S    
C28   H1    S    
O7    S3    D    
C6    H4    S    
Cu1   O15   S    
C10   O17   A    
O2    S1    D    
C22   C28   A    
O13   S4    S    
C16   H13   S    
C27   H17   S    
Cu1   N1    S    
O20   S1    D    
C13   C19   A    
O4    S2    D    
C5    N2    A    
C17   H12   S    
C8    N2    A    
C5    C7    A    
C23   H16   S    
C14   H14   S    
C25   C26   A    
C12   O12   A    
O6    S2    S    
C29   H11   S    
C2    C31   A    
C2    C4    A    
C11   C16   A    
Cu1   Cu2   S    
C23   C28   A    
C9    O16   A    
C3    C31   A    
C9    C11   S    
Cu1   O16   S    
Cu1   O19   S    
C15   C24   A    
C20   C22   A    
Cu2   N2    S    
C14   C16   A    
C7    N1    A    
C6    N1    A    
Cu2   O14   S    
Cu2   O18   S    
C31   S4    S    
O9    S3    S    
C2    H2    S    
C15   C17   A    
C18   S2    S    
O11   S4    D    
O10   S4    D    
C10   C13   S    
C6    C8    A    
C25   C27   A    
C13   C17   A    
C1    C4    S    
O3    S1    S    
C19   S1    S    
C1    O1    A    
H7    O3    S    
C30   C32   A    
C14   C22   A    
Cu2   O17   S    
C18   C20   A    
C15   H15   S    
C3    C32   A    
C21   C24   A    
C7    H5    S    
H10   O13   S    
C8    H6    S    
O5    S2    D    
C4    C30   A    
