data_mof_unit_18600.cif
_audit_creation_date              2013-03-05T16:08:48-0500
_audit_creation_method            fapswitch 2.2
_symmetry_space_group_name_H-M    P1
_symmetry_Int_Tables_number       1
_space_group_crystal_system       triclinic
_cell_length_a                    14.972271
_cell_length_b                    6.9444
_cell_length_c                    13.677235
_cell_angle_alpha                 89.959002
_cell_angle_beta                  100.908153
_cell_angle_gamma                 89.896958
_cell_volume                      1396.37185296

loop_
_atom_site_label
_atom_site_type_symbol
_atom_site_description
_atom_site_fract_x
_atom_site_fract_y
_atom_site_fract_z
_atom_type_partial_charge
O1    O     O_R   0.398250 0.605080 0.401520 -0.592306
O2    O     O_R   0.898250 0.394920 0.901520 -0.596010
O3    O     O_R   0.584130 0.932110 0.405450 -0.565071
O4    O     O_R   0.084130 0.067890 0.905450 -0.571272
O5    O     O_R   0.601750 0.105090 0.598480 -0.588721
O6    O     O_R   0.101750 0.894910 0.098480 -0.595985
C1    C     C_R   0.610908 0.762735 0.382382 1.031136
C2    C     C_R   0.113734 0.236673 0.885612 1.032215
O7    O     O_R   0.397870 0.934620 0.389680 -0.600015
O8    O     O_R   0.897870 0.065380 0.889680 -0.587404
O9    O     O_R   0.414160 0.107620 0.582600 -0.586369
O10   O     O_R   0.914160 0.892380 0.082600 -0.591433
C3    C     C_R   0.363943 0.765840 0.362729 0.998547
C4    C     C_R   0.864120 0.234408 0.862524 1.003718
O11   O     O_R   0.585840 0.602550 0.417400 -0.611285
O12   O     O_R   0.085840 0.397450 0.917400 -0.610011
O13   O     O_3   0.505560 0.772440 0.563310 -0.247805
O14   O     O_3   0.005560 0.227560 0.063310 -0.265176
V1    V     V_3+5 0.498970 0.046250 0.488250 1.250420
V2    V     V_3+5 0.998970 0.953750 0.988250 1.231099
O15   O     O_R   0.415870 0.437500 0.594550 -0.548452
O16   O     O_R   0.915870 0.562500 0.094550 -0.556707
C5    C     C_R   0.385917 0.268948 0.613829 1.023118
C6    C     C_R   0.888798 0.731706 0.117026 1.053438
O17   O     O_R   0.602130 0.434980 0.610320 -0.594880
O18   O     O_R   0.102130 0.565020 0.110320 -0.587414
C7    C     C_R   0.635820 0.265767 0.637496 0.985381
C8    C     C_R   0.135942 0.733979 0.137357 1.001186
V3    V     V_3+5 0.501030 0.546580 0.511750 1.261968
V4    V     V_3+5 0.001030 0.453420 0.011750 1.242304
O19   O     O_3   0.494440 0.270520 0.436690 -0.281806
O20   O     O_3   0.994440 0.729480 0.936690 -0.301894
C9    C     C_1   0.716366 0.255023 0.716841 -0.187837
C10   C     C_1   0.216263 0.744656 0.216986 -0.205616
C11   C     C_1   0.783772 0.245132 0.782930 -0.195978
C12   C     C_1   0.283562 0.755152 0.283175 -0.206023
C13   C     C_2   0.299036 0.118898 0.732550 0.091944
C14   C     C_2   0.760341 0.864154 0.186881 0.046260
C15   C     C_2   0.307667 0.261886 0.666244 -0.107513
C16   C     C_2   0.834227 0.744244 0.196637 -0.126635
C17   C     C_2   0.215454 0.100847 0.776889 0.578569
C18   C     C_2   0.710103 0.896231 0.270406 0.607607
C19   C     C_2   0.187017 0.249953 0.826764 -0.584399
C20   C     C_2   0.669714 0.746200 0.307095 -0.526736
H1    H     H_    0.221533 0.387669 0.827430 0.187121
H2    H     H_    0.679483 0.602825 0.279270 0.152321
N1    N     N_R   0.372075 0.984104 0.765552 0.259571
O21   O     O_R   0.455874 0.043908 0.786733 -0.372160
O22   O     O_R   0.354005 0.810402 0.791694 -0.303102
N2    N     N_R   0.727368 0.964734 0.094598 0.249870
O23   O     O_R   0.688412 0.132164 0.095614 -0.335122
O24   O     O_R   0.722669 0.877129 0.009665 -0.378635
N3    N     N_R   0.234273 0.395581 0.633490 0.227493
O25   O     O_R   0.251934 0.574990 0.617643 -0.366961
O26   O     O_R   0.152298 0.331803 0.601411 -0.459943
N4    N     N_R   0.869754 0.645874 0.289160 0.216190
O27   O     O_R   0.919898 0.492742 0.288699 -0.412257
O28   O     O_R   0.868794 0.728784 0.374182 -0.474707
O29   O     O_3   0.174527 0.922444 0.776985 -0.609904
C21   C     C_3   0.108582 0.905277 0.688831 0.261087
H3    H     H_    0.142571 0.883633 0.623975 0.160102
H4    H     H_    0.063888 0.035308 0.675570 0.083924
C22   C     C_3   0.048223 0.732540 0.699051 -0.286998
H5    H     H_    0.090650 0.601267 0.716616 0.251907
H6    H     H_    0.011859 0.759443 0.761058 0.217956
C23   C     C_3   0.977856 0.699169 0.604712 -0.880314
H7    H     H_    0.935684 0.830098 0.585183 0.264757
H8    H     H_    0.932374 0.580066 0.618012 0.254433
H9    H     H_    0.011860 0.660274 0.541969 0.320054
O30   O     O_3   0.693676 0.082496 0.299211 -0.631811
C24   C     C_3   0.776488 0.172147 0.342401 0.311952
H10   H     H_    0.768949 0.328178 0.326305 0.154887
H11   H     H_    0.836101 0.123683 0.310635 0.122389
C25   C     C_3   0.794998 0.145608 0.455589 -0.363723
H12   H     H_    0.742926 0.226339 0.487014 0.190029
H13   H     H_    0.790047 0.991056 0.474713 0.220347
C26   C     C_3   0.889251 0.219183 0.502424 -0.884305
H14   H     H_    0.942598 0.131098 0.477194 0.291504
H15   H     H_    0.898759 0.209772 0.584812 0.233805
H16   H     H_    0.896792 0.371224 0.480687 0.310090

loop_
_geom_bond_atom_site_label_1
_geom_bond_atom_site_label_2
_geom_bond_distance
_ccdc_geom_bond_type
C23   H8    1.108868 S    
C22   H6    1.106886 S    
O13   V3    1.716345 S    
C2    C19   1.481458 S    
O4    C2    1.300320 A    
V1    O19   1.705112 S    
N1    O22   1.301248 A    
C26   H14   1.110877 S    
C7    C9    1.463503 S    
O9    V1    2.019474 S    
C25   H13   1.110422 S    
C21   C22   1.525328 S    
C14   C18   1.498480 S    
O3    C1    1.300179 A    
C23   H9    1.110737 S    
O12   V4    2.011921 S    
C18   O30   1.387481 S    
N4    O27   1.301327 A    
C21   H4    1.117020 S    
O7    C3    1.303677 A    
C6    C16   1.482341 S    
O5    C7    1.299953 A    
O7    V1    1.985731 S    
O6    C8    1.299172 A    
O8    V2    1.982851 S    
C16   N4    1.446963 S    
C25   C26   1.524392 S    
N2    O24   1.301806 A    
O3    V1    2.020058 S    
O30   C24   1.414191 S    
O14   V4    1.715199 S    
C13   N1    1.443860 S    
C10   C12   1.222805 T    
C1    O11   1.294774 A    
C23   H7    1.109266 S    
C22   C23   1.521627 S    
C8    C10   1.463763 S    
O29   C21   1.411695 S    
C2    O12   1.295280 A    
C17   C19   1.352077 D    
C18   C20   1.348840 D    
C20   H2    1.085650 S    
O11   V3    2.012445 S    
N3    O26   1.301341 A    
O17   V3    1.982769 S    
C25   H12   1.110166 S    
V4    O20   2.167255 S    
C17   O29   1.383255 S    
C3    C12   1.463769 S    
O8    C4    1.302808 A    
C4    C11   1.463471 S    
C24   H11   1.115596 S    
O13   V1    2.153454 S    
N3    O25   1.300628 A    
O15   V3    2.007675 S    
C21   H3    1.113190 S    
N1    O21   1.301943 A    
O10   V2    2.020049 S    
O1    V3    1.981134 S    
N2    O23   1.301124 A    
C26   H15   1.110616 S    
C1    C20   1.480415 S    
C19   H1    1.087090 S    
O5    V1    1.983200 S    
O18   V4    1.985651 S    
O15   C5    1.298807 A    
O16   C6    1.298260 A    
O1    C3    1.298303 A    
V2    O20   1.706257 S    
C26   H16   1.108427 S    
O16   V4    2.006554 S    
C24   C25   1.531151 S    
C14   N2    1.444417 S    
O17   C7    1.303725 A    
O6    V2    1.981615 S    
O10   C6    1.295885 A    
O18   C8    1.304461 A    
O2    V4    1.982710 S    
C24   H10   1.106835 S    
V3    O19   2.168868 S    
C14   C16   1.369528 D    
C15   N3    1.442090 S    
C5    C15   1.485586 S    
O9    C5    1.297584 A    
C9    C11   1.222584 T    
N4    O28   1.300459 A    
O14   V2    2.155064 S    
C13   C17   1.495720 S    
O2    C4    1.299156 A    
C22   H5    1.110007 S    
O4    V2    2.021221 S    
C13   C15   1.366987 D    
