data_mof_unit_16454.cif
_audit_creation_date              2013-03-05T16:31:07-0500
_audit_creation_method            fapswitch 2.2
_symmetry_space_group_name_H-M    P1
_symmetry_Int_Tables_number       1
_space_group_crystal_system       triclinic
_cell_length_a                    10.845483
_cell_length_b                    10.998146
_cell_length_c                    9.647871
_cell_angle_alpha                 90.114965
_cell_angle_beta                  90.937146
_cell_angle_gamma                 91.11617
_cell_volume                      1150.42466134

loop_
_atom_site_label
_atom_site_type_symbol
_atom_site_description
_atom_site_fract_x
_atom_site_fract_y
_atom_site_fract_z
_atom_type_partial_charge
O1    O     O_R   0.500000 0.319640 0.618810 -0.561392
O2    O     O_R   0.500010 0.319680 0.381230 -0.588037
C1    C     C_R   0.503331 0.262648 0.499707 0.817426
O3    O     O_R   0.319640 0.499980 0.618820 -0.599591
O4    O     O_R   0.319650 0.500020 0.381230 -0.577184
C2    C     C_R   0.263408 0.511385 0.499239 0.809820
Cu1   Cu    Cu3+1 0.499990 0.499980 0.640670 0.994839
Cu2   Cu    Cu3+1 0.500010 0.500020 0.359330 1.003075
O5    O     O_R   0.499990 0.680320 0.618770 -0.593533
O6    O     O_R   0.500000 0.680360 0.381190 -0.586853
O7    O     O_R   0.680350 0.499980 0.618770 -0.591043
O8    O     O_R   0.680360 0.500020 0.381180 -0.587431
C3    C     C_R   0.497980 0.737360 0.499008 0.801810
C4    C     C_R   0.737980 0.493876 0.502579 0.799909
H1    H     H_    0.107283 0.490259 0.280742 0.206270
C5    C     C_R   0.125715 0.601034 0.739540 -0.197062
H2    H     H_    0.206908 0.658493 0.726397 0.190469
C6    C     C_R   0.084517 0.576532 0.872696 0.331913
C7    C     C_R   0.986147 0.492933 0.887223 -0.128217
C8    C     C_R   0.910097 0.462756 0.771170 -0.117885
C9    C     C_R   0.945460 0.500891 0.635635 0.070366
C10   C     C_R   0.067283 0.545625 0.623909 0.033535
C11   C     C_R   0.129550 0.526507 0.499109 -0.101762
C12   C     C_R   0.061730 0.502258 0.378301 -0.088370
H3    H     H_    0.883232 0.486345 0.286009 0.188888
C13   C     C_R   0.934511 0.493416 0.382556 -0.133495
C14   C     C_R   0.873708 0.490282 0.509469 -0.112682
C15   C     C_R   0.459185 0.063016 0.610548 0.019091
C16   C     C_R   0.504060 0.128786 0.497133 -0.115214
C17   C     C_R   0.544353 0.062811 0.380232 -0.028128
C18   C     C_R   0.535446 0.935355 0.378538 -0.169904
H4    H     H_    0.573156 0.886857 0.292074 0.148481
C19   C     C_R   0.490461 0.870639 0.493163 -0.065273
C20   C     C_R   0.448290 0.936245 0.605549 0.023877
C21   C     C_3   0.491936 0.919441 0.749206 -0.520892
C22   C     C_3   0.512031 0.054256 0.756680 0.571676
H5    H     H_    0.417906 0.881911 0.816075 0.235770
H6    H     H_    0.580723 0.871798 0.749007 0.199285
C23   C     C_R   0.593650 0.555313 0.076285 0.197615
N1    N     N_R   0.500790 0.500930 0.147930 -0.217100
C24   C     C_R   0.415879 0.432623 0.072942 0.058923
C25   C     C_R   0.413906 0.434916 0.924388 0.069082
N2    N     N_R   0.500790 0.500890 0.852020 -0.217915
C26   C     C_R   0.594057 0.554825 0.928938 0.167102
C27   C     C_3   0.623290 0.687006 0.928627 -0.326346
C28   C     C_3   0.626004 0.686593 0.085845 -0.306418
H7    H     H_    0.541974 0.733956 0.889605 0.187307
H8    H     H_    0.550772 0.740562 0.129969 0.192414
N3    N     N_R   0.435918 0.110601 0.862269 0.102559
O9    O     O_R   0.487108 0.174631 0.961689 -0.362812
O10   O     O_R   0.318810 0.083053 0.868869 -0.337359
N4    N     N_R   0.644759 0.082738 0.773195 0.128464
O11   O     O_R   0.713861 0.097588 0.665165 -0.378704
O12   O     O_R   0.698780 0.059719 0.891512 -0.293180
C29   C     C_1   0.328891 0.355223 0.144613 0.369969
N5    N     N_1   0.259310 0.292044 0.200739 -0.231624
C30   C     C_1   0.316887 0.368636 0.851089 0.379187
N6    N     N_1   0.237918 0.315773 0.793812 -0.219065
C31   C     C_1   0.739663 0.717588 0.858626 0.347368
N7    N     N_1   0.830417 0.743096 0.803369 -0.220707
C32   C     C_1   0.746569 0.709560 0.154387 0.316522
N8    N     N_1   0.840838 0.728909 0.208631 -0.197234
N9    N     N_R   0.147503 0.629955 0.990937 0.110215
O13   O     O_R   0.259190 0.674011 0.980110 -0.390157
O14   O     O_R   0.086396 0.653915 0.102155 -0.352816
C33   C     C_1   0.978454 0.419473 0.011071 0.286377
N10   N     N_1   0.972609 0.355644 0.105884 -0.252618
C34   C     C_1   0.808534 0.379707 0.795366 0.342639
N11   N     N_1   0.725965 0.315999 0.819493 -0.139519
C35   C     C_1   0.611509 0.121570 0.270093 0.359507
N12   N     N_1   0.666774 0.168991 0.183263 -0.154228

loop_
_geom_bond_atom_site_label_1
_geom_bond_atom_site_label_2
_geom_bond_distance
_ccdc_geom_bond_type
O4    Cu2   1.970902 S    
C5    C10   1.405923 A    
C11   C12   1.390573 A    
C18   C19   1.405305 A    
C3    C19   1.470815 S    
C23   C26   1.421662 A    
Cu1   N2    2.038959 S    
C4    C14   1.473754 S    
C24   C25   1.433314 A    
C18   H4    1.079595 S    
C21   C22   1.495861 S    
C22   N4    1.473233 S    
Cu2   O8    1.963880 S    
N2    C26   1.369694 A    
C32   N8    1.156734 T    
C29   N5    1.157568 T    
N9    O14   1.299597 A    
C19   C20   1.389759 A    
C9    C14   1.437273 A    
C15   C20   1.397616 A    
C31   N7    1.157025 T    
O1    Cu1   1.994169 S    
C9    C10   1.407225 A    
C26   C27   1.481890 S    
Cu1   O7    1.970902 S    
C1    C16   1.472566 S    
C30   N6    1.157902 T    
C16   C17   1.419406 A    
N4    O11   1.302347 A    
C23   C28   1.481549 S    
C24   C29   1.444036 S    
O4    C2    1.307315 A    
C25   C30   1.443038 S    
O3    C2    1.303546 A    
H1    C12   1.079199 S    
C17   C35   1.444637 S    
C27   C31   1.474600 S    
C12   C13   1.382571 A    
C33   N10   1.155997 T    
O2    C1    1.305265 A    
C27   H7    1.092600 S    
C13   C14   1.400358 A    
C17   C18   1.403268 A    
Cu2   O6    1.994169 S    
O7    C4    1.294623 A    
C28   H8    1.108371 S    
C6    N9    1.438544 S    
C5    H2    1.083115 S    
C25   N2    1.377972 A    
C2    C11   1.464451 S    
C28   C32   1.472768 S    
N9    O13   1.301696 A    
Cu1   O5    1.995049 S    
O8    C4    1.320956 A    
Cu1   Cu2   2.714337 S    
C35   N12   1.157168 T    
C6    C7    1.403714 A    
C8    C9    1.430109 A    
C15   C22   1.517153 S    
C7    C33   1.446351 S    
C5    C6    1.392154 A    
C20   C21   1.470425 S    
N3    O10   1.302582 A    
C21   H5    1.111891 S    
C23   N1    1.360426 A    
N3    O9    1.299555 A    
O5    C3    1.315944 A    
C21   H6    1.105223 S    
C15   C16   1.401529 A    
N1    C24   1.372928 A    
Cu2   N1    2.039759 S    
O3    Cu1   1.963878 S    
H3    C13   1.078917 S    
C27   C28   1.516646 S    
C8    C34   1.439491 S    
C10   C11   1.407521 A    
O2    Cu2   1.995051 S    
C22   N3    1.465647 S    
C7    C8    1.414826 A    
N4    O12   1.302097 A    
C34   N11   1.153294 T    
O1    C1    1.309178 A    
O6    C3    1.297702 A    
