data_mof_unit_28828.cif
_audit_creation_date              2012-12-10T21:06:57-0500
_audit_creation_method            fapswitch 2.2
_symmetry_space_group_name_H-M    P1
_symmetry_Int_Tables_number       1
_space_group_crystal_system       triclinic
_cell_length_a                    10.777372
_cell_length_b                    15.894639
_cell_length_c                    15.072286
_cell_angle_alpha                 88.889247
_cell_angle_beta                  90.863579
_cell_angle_gamma                 89.503448
_cell_volume                      2581.03731185

loop_
_atom_site_label
_atom_site_type_symbol
_atom_type_description
_atom_site_fract_x
_atom_site_fract_y
_atom_site_fract_z
_atom_type_partial_charge
C1    C     C_R   0.500336 0.338964 0.500842 0.906815
C2    C     C_R   0.499665 0.661035 0.499157 0.906786
C3    C     C_R   0.872797 0.498250 0.502624 -0.096147
C4    C     C_R   0.127203 0.501753 0.497377 -0.096142
C5    C     C_R   0.941743 0.479279 0.580880 0.024560
C6    C     C_R   0.058257 0.520727 0.419123 0.024554
C7    C     C_R   0.580422 0.953558 0.559342 0.053648
C8    C     C_R   0.420154 0.046428 0.440462 0.053662
C9    C     C_R   0.505160 0.913191 0.495924 0.026539
C10   C     C_R   0.495356 0.086798 0.503914 0.026621
C11   C     C_R   0.427620 0.958177 0.435148 0.161009
C12   C     C_R   0.573000 0.041816 0.564634 0.161109
C13   C     C_1   0.502973 0.823818 0.495756 -0.032126
C14   C     C_1   0.497343 0.176174 0.504179 -0.032157
C15   C     C_1   0.499065 0.250826 0.502941 -0.203886
C16   C     C_1   0.501083 0.749170 0.497047 -0.203749
C17   C     C_R   0.477113 0.425053 0.953237 0.150357
C18   C     C_R   0.522897 0.574955 0.046763 0.150349
C19   C     C_R   0.498978 0.500899 0.905050 -0.037153
C20   C     C_R   0.501030 0.499108 0.094950 -0.037156
C21   C     C_R   0.520978 0.576181 0.951864 0.176843
C22   C     C_R   0.479032 0.423827 0.048135 0.176872
C23   C     C_R   0.259420 0.501347 0.499025 0.878563
C24   C     C_R   0.740580 0.498654 0.500975 0.878559
C25   C     C_1   0.499485 0.500466 0.806944 0.111178
C26   C     C_1   0.500519 0.499538 0.193056 0.111196
C27   C     C_R   0.208922 0.654221 0.242062 0.220619
C28   C     C_R   0.791041 0.345791 0.757929 0.220644
C29   C     C_R   0.164214 0.625426 0.323592 -0.181725
C30   C     C_R   0.835751 0.374589 0.676400 -0.181655
C31   C     C_R   0.113061 0.544984 0.332471 0.050092
C32   C     C_R   0.886939 0.455022 0.667532 0.050079
C33   C     C_R   0.107485 0.491596 0.257985 0.221050
C34   C     C_R   0.892550 0.508398 0.742028 0.220975
C35   C     C_R   0.150992 0.521762 0.174980 0.199540
C36   C     C_R   0.849036 0.478230 0.825030 0.199547
C37   C     C_R   0.201569 0.602611 0.168113 -0.179966
C38   C     C_R   0.798423 0.397390 0.831886 -0.179979
C39   C     C_R   0.931160 0.519177 0.423208 -0.251341
C40   C     C_R   0.068840 0.480827 0.576793 -0.251340
H1    H     H_    0.235570 0.625491 0.104869 0.151100
H2    H     H_    0.764419 0.374508 0.895128 0.151107
H3    H     H_    0.168185 0.666170 0.380440 0.139195
H4    H     H_    0.831756 0.333853 0.619546 0.139190
H5    H     H_    0.877841 0.535316 0.363530 0.178381
H6    H     H_    0.122159 0.464687 0.636471 0.178390
N1    N     N_1   0.499960 0.500020 0.270550 -0.096311
N2    N     N_1   0.500040 0.499980 0.729450 -0.096319
O1    O     O_R   0.500000 0.378020 0.573650 -0.611744
O2    O     O_R   0.500000 0.621980 0.426350 -0.611755
O3    O     O_R   0.500060 0.378020 0.426320 -0.611487
O4    O     O_R   0.499940 0.621980 0.573680 -0.611486
O5    O     O_R   0.316730 0.500010 0.573660 -0.625010
O6    O     O_R   0.683270 0.499990 0.426340 -0.625008
O7    O     O_R   0.316790 0.500010 0.426330 -0.608743
O8    O     O_R   0.683210 0.499990 0.573670 -0.608761
Zn1   Zn    Zn3+2 0.499960 0.500000 0.598370 0.971861
Zn2   Zn    Zn3+2 0.500040 0.500000 0.401630 0.971881
C41   C     C_3   0.450007 0.346382 0.900948 -0.899472
H7    H     H_    0.438155 0.288588 0.941766 0.247027
H8    H     H_    0.363439 0.356228 0.861067 0.241150
H9    H     H_    0.527310 0.333967 0.855236 0.246098
C42   C     C_3   0.549998 0.653626 0.099053 -0.899471
H10   H     H_    0.561889 0.711416 0.058236 0.247028
H11   H     H_    0.472673 0.666053 0.144744 0.246094
H12   H     H_    0.636545 0.643772 0.138956 0.241146
C43   C     C_3   0.263753 0.740295 0.234816 -0.954322
H13   H     H_    0.288914 0.756741 0.165474 0.240366
H14   H     H_    0.195806 0.787848 0.257526 0.249989
H15   H     H_    0.348747 0.742173 0.277125 0.256833
C44   C     C_3   0.736178 0.259725 0.765164 -0.954381
H16   H     H_    0.711021 0.243273 0.834505 0.240357
H17   H     H_    0.651177 0.257865 0.722859 0.256831
H18   H     H_    0.804107 0.212164 0.742445 0.250038
C45   C     C_3   0.057299 0.403119 0.265814 -0.914485
H19   H     H_    0.032934 0.384499 0.334522 0.247043
H20   H     H_    0.972785 0.397522 0.223415 0.242627
H21   H     H_    0.128415 0.357348 0.244100 0.240893
C46   C     C_3   0.942794 0.596861 0.734214 -0.914511
H22   H     H_    0.967125 0.615495 0.665503 0.247060
H23   H     H_    0.871728 0.642650 0.755966 0.240975
H24   H     H_    0.027339 0.602417 0.776589 0.242636
C47   C     C_3   0.142795 0.469129 0.092957 -0.909788
H25   H     H_    0.182202 0.501987 0.034202 0.236407
H26   H     H_    0.195181 0.409458 0.103683 0.254178
H27   H     H_    0.044238 0.454854 0.077578 0.245858
C48   C     C_3   0.857258 0.530853 0.907061 -0.909777
H28   H     H_    0.817854 0.497991 0.965815 0.236402
H29   H     H_    0.955821 0.545115 0.922434 0.245869
H30   H     H_    0.804884 0.590530 0.896349 0.254166
C49   C     C_3   0.643675 0.090228 0.634820 -0.921832
H31   H     H_    0.710490 0.133309 0.602338 0.244503
H32   H     H_    0.576375 0.127696 0.673050 0.246781
H33   H     H_    0.695754 0.051273 0.684264 0.242571
C50   C     C_3   0.357072 0.909775 0.364890 -0.921834
H34   H     H_    0.289988 0.866839 0.397292 0.244505
H35   H     H_    0.305356 0.948754 0.315269 0.242736
H36   H     H_    0.424407 0.872154 0.326851 0.246761
C51   C     C_3   0.668736 0.901957 0.619481 -0.388724
C52   C     C_3   0.608113 0.880355 0.708401 -0.324375
C53   C     C_3   0.697221 0.830962 0.769783 -0.901581
H37   H     H_    0.720627 0.769303 0.740566 0.265636
H38   H     H_    0.783694 0.867023 0.781000 0.262613
H39   H     H_    0.652663 0.819710 0.834772 0.254619
H40   H     H_    0.578941 0.938755 0.741919 0.227037
H41   H     H_    0.523998 0.841893 0.696570 0.229586
H42   H     H_    0.697362 0.842678 0.587447 0.201334
H43   H     H_    0.757879 0.935148 0.629308 0.198998
C54   C     C_3   0.331824 0.098002 0.380314 -0.388745
C55   C     C_3   0.392556 0.119756 0.291472 -0.324604
C56   C     C_3   0.303105 0.168510 0.229797 -0.901556
H44   H     H_    0.217402 0.131737 0.218181 0.262531
H45   H     H_    0.278314 0.229926 0.259001 0.265624
H46   H     H_    0.347975 0.180214 0.165005 0.254669
H47   H     H_    0.476129 0.158723 0.303392 0.229629
H48   H     H_    0.422594 0.061451 0.258151 0.227147
H49   H     H_    0.242781 0.064716 0.370381 0.199279
H50   H     H_    0.303004 0.157221 0.412384 0.201117
C57   C     C_3   0.458357 0.341741 0.098624 -0.923114
H51   H     H_    0.460175 0.347618 0.171706 0.247691
H52   H     H_    0.366264 0.316023 0.080472 0.239079
H53   H     H_    0.532117 0.295710 0.082036 0.242807
C58   C     C_3   0.541652 0.658268 0.901374 -0.923040
H54   H     H_    0.539809 0.652391 0.828292 0.247649
H55   H     H_    0.467905 0.704303 0.917973 0.242842
H56   H     H_    0.633755 0.683978 0.919512 0.239075

loop_
_geom_bond_atom_site_label_1
_geom_bond_atom_site_label_2
_ccdc_geom_bond_type
C48   H28   S    
C42   H11   S    
C53   H37   S    
C27   C29   A    
C18   C21   A    
C12   C49   S    
C50   H34   S    
C46   H24   S    
C50   H36   S    
C54   H49   S    
N2    Zn1   S    
C40   H6    S    
C51   H43   S    
C52   H40   S    
C7    C51   S    
C35   C37   A    
C38   H2    S    
C18   C42   S    
C58   H55   S    
C24   O6    A    
O1    Zn1   S    
O8    Zn1   S    
C9    C13   S    
C55   C56   S    
C2    O2    A    
C33   C35   A    
C33   C45   S    
C4    C40   A    
C31   C33   A    
C1    C15   S    
C2    C16   S    
C18   C20   A    
C39   H5    S    
C5    C32   S    
C6    C31   S    
C42   H12   S    
C3    C39   A    
C41   H7    S    
C53   H38   S    
C29   H3    S    
C30   H4    S    
C3    C24   S    
C22   C57   S    
C10   C12   A    
C8    C54   S    
C54   H50   S    
C23   O5    A    
C57   H52   S    
C36   C48   S    
C7    C12   A    
C41   H8    S    
C43   H13   S    
O2    Zn2   S    
C58   H54   S    
C4    C6    A    
C10   C14   S    
C49   H31   S    
C44   H17   S    
C4    C23   S    
C35   C47   S    
C58   H56   S    
C46   H22   S    
C43   H14   S    
C32   C34   A    
C21   C58   S    
C45   H19   S    
C34   C46   S    
C49   H32   S    
C45   H20   S    
C47   H25   S    
C28   C38   A    
C56   H45   S    
O3    Zn2   S    
C1    O3    A    
C25   N2    T    
C2    O4    A    
C26   N1    T    
C17   C41   S    
C47   H26   S    
C20   C22   A    
C53   H39   S    
C9    C11   A    
C48   H30   S    
C28   C44   S    
C36   C38   A    
C55   H48   S    
C46   H23   S    
O6    Zn2   S    
C57   H53   S    
C11   C50   S    
C7    C9    A    
C41   H9    S    
O5    Zn1   S    
C56   H44   S    
C19   C21   A    
C14   C15   T    
C3    C5    A    
C44   H18   S    
C57   H51   S    
C50   H35   S    
C23   O7    A    
C24   O8    A    
C51   H42   S    
C52   H41   S    
C17   C22   A    
C51   C52   S    
C43   H15   S    
C48   H29   S    
C13   C16   T    
C44   H16   S    
C29   C31   A    
C54   C55   S    
N1    Zn2   S    
C30   C32   A    
C20   C26   S    
C27   C37   A    
C8    C11   A    
C28   C30   A    
C52   C53   S    
C17   C19   A    
C56   H46   S    
C34   C36   A    
C37   H1    S    
C19   C25   S    
C45   H21   S    
C27   C43   S    
O4    Zn1   S    
C42   H10   S    
C47   H27   S    
C8    C10   A    
O7    Zn2   S    
C6    C39   A    
C5    C40   A    
C1    O1    A    
C55   H47   S    
C49   H33   S    
