data_mof_unit_54913.cif
_audit_creation_date              2013-03-05T16:12:50-0500
_audit_creation_method            fapswitch 2.2
_symmetry_space_group_name_H-M    P1
_symmetry_Int_Tables_number       1
_space_group_crystal_system       triclinic
_cell_length_a                    25.787296
_cell_length_b                    6.898556
_cell_length_c                    21.693342
_cell_angle_alpha                 89.983517
_cell_angle_beta                  96.216072
_cell_angle_gamma                 89.984825
_cell_volume                      3836.44972781

loop_
_atom_site_label
_atom_site_type_symbol
_atom_site_description
_atom_site_fract_x
_atom_site_fract_y
_atom_site_fract_z
_atom_type_partial_charge
O1    O     O_R   0.208650 0.594520 0.175450 -0.589631
O2    O     O_R   0.791350 0.405480 0.824550 -0.587297
O3    O     O_R   0.291350 0.094520 0.324550 -0.589628
O4    O     O_R   0.708650 0.905480 0.675450 -0.587287
O5    O     O_R   0.192980 0.260780 0.300160 -0.593948
O6    O     O_R   0.807020 0.739220 0.699840 -0.595633
O7    O     O_R   0.307020 0.760780 0.199840 -0.593905
O8    O     O_R   0.692980 0.239220 0.800160 -0.595638
C1    C     C_R   0.178935 0.432660 0.318554 0.931635
C2    C     C_R   0.821084 0.567332 0.681471 0.930474
C3    C     C_R   0.321064 0.932658 0.181444 0.931908
C4    C     C_R   0.678915 0.067334 0.818529 0.930622
O9    O     O_R   0.202550 0.264660 0.174420 -0.590856
O10   O     O_R   0.797450 0.735340 0.825580 -0.588918
O11   O     O_R   0.297450 0.764660 0.325580 -0.590871
O12   O     O_R   0.702550 0.235340 0.674420 -0.588871
O13   O     O_R   0.300990 0.096480 0.197920 -0.595070
O14   O     O_R   0.699010 0.903520 0.802080 -0.594186
O15   O     O_R   0.199010 0.596480 0.302080 -0.595078
O16   O     O_R   0.800990 0.403520 0.697920 -0.594177
C5    C     C_R   0.191294 0.432844 0.150683 0.947615
C6    C     C_R   0.809035 0.566951 0.848928 0.944066
C7    C     C_R   0.308714 0.932747 0.349326 0.947585
C8    C     C_R   0.690951 0.067057 0.651070 0.944037
O17   O     O_3   0.282290 0.427760 0.257860 -0.267164
O18   O     O_3   0.717710 0.572240 0.742140 -0.266723
O19   O     O_3   0.217710 0.927760 0.242140 -0.267168
O20   O     O_3   0.782290 0.072240 0.757860 -0.266698
V1    V     V_3+5 0.244010 0.152080 0.248540 1.158496
V2    V     V_3+5 0.755990 0.847920 0.751460 1.162120
V3    V     V_3+5 0.255990 0.652080 0.251460 1.158579
V4    V     V_3+5 0.744010 0.347920 0.748540 1.162175
C9    C     C_R   0.656492 0.064962 0.592104 -0.136421
C10   C     C_R   0.341570 0.932802 0.409696 -0.146858
C11   C     C_R   0.843450 0.564217 0.907906 -0.135782
C12   C     C_R   0.158416 0.433359 0.090351 -0.146693
C13   C     C_R   0.644275 0.146289 0.482379 0.267156
C14   C     C_R   0.358675 0.785133 0.511995 0.241674
C15   C     C_R   0.855159 0.637658 0.018185 0.267129
C16   C     C_R   0.141539 0.288560 0.987657 0.242192
C17   C     C_R   0.676730 0.119025 0.537868 -0.223293
C18   C     C_R   0.326211 0.816352 0.456864 -0.214207
C19   C     C_R   0.822899 0.612841 0.962427 -0.224204
C20   C     C_R   0.173910 0.318360 0.042936 -0.214749
C21   C     C_R   0.603096 0.027346 0.590859 -0.197979
C22   C     C_R   0.391472 0.015332 0.416501 -0.213724
C23   C     C_R   0.896980 0.529624 0.909032 -0.198168
C24   C     C_R   0.108430 0.515259 0.083741 -0.213376
C25   C     C_R   0.568018 0.059223 0.536336 0.096146
C26   C     C_R   0.426091 0.989317 0.471842 0.084041
C27   C     C_R   0.931827 0.558594 0.963901 0.095157
C28   C     C_R   0.073821 0.489922 0.028378 0.083952
C29   C     C_R   0.588785 0.136667 0.483053 -0.046414
C30   C     C_R   0.407204 0.887045 0.522182 -0.051724
C31   C     C_R   0.910701 0.630866 0.017639 -0.047639
C32   C     C_R   0.092921 0.390103 0.977714 -0.051850
C33   C     C_R   0.513131 0.016336 0.533147 0.037738
C34   C     C_R   0.479599 0.053086 0.477605 0.034604
C35   C     C_R   0.986811 0.517409 0.967021 0.036712
C36   C     C_R   0.020152 0.551909 0.022857 0.033698
C37   C     C_R   0.500544 0.154707 0.429860 -0.284605
C38   C     C_R   0.490440 0.941307 0.584220 -0.290986
C39   C     C_R   0.998796 0.648825 0.071241 -0.284543
C40   C     C_R   0.009741 0.445594 0.915677 -0.291614
C41   C     C_R   0.553357 0.201734 0.432785 0.327737
C42   C     C_R   0.438306 0.884935 0.580087 0.310790
C43   C     C_R   0.945836 0.693463 0.068503 0.327933
C44   C     C_R   0.061934 0.389904 0.919734 0.310803
H1    H     H_    0.402727 0.090119 0.376484 0.119322
H2    H     H_    0.590352 0.979634 0.633973 0.107997
H3    H     H_    0.097175 0.589383 0.123863 0.118854
H4    H     H_    0.909979 0.486297 0.865611 0.107469
H5    H     H_    0.289281 0.740310 0.448814 0.113615
H6    H     H_    0.718573 0.137956 0.538997 0.102392
H7    H     H_    0.210907 0.242611 0.050832 0.113470
H8    H     H_    0.780977 0.629220 0.961308 0.102369
H9    H     H_    0.476217 0.208950 0.390176 0.170077
H10   H     H_    0.511734 0.930992 0.629521 0.172954
H11   H     H_    0.022825 0.700537 0.111499 0.170162
H12   H     H_    0.988545 0.436699 0.870294 0.173135
C45   C     C_R   0.437419 0.799335 0.093903 0.249964
C46   C     C_R   0.562479 0.200616 0.905930 0.252004
C47   C     C_R   0.062577 0.299392 0.406086 0.250116
C48   C     C_R   0.937523 0.700537 0.594073 0.252161
C49   C     C_R   0.397132 0.787268 0.133055 -0.227962
C50   C     C_R   0.602799 0.212692 0.866826 -0.232132
C51   C     C_R   0.102866 0.287326 0.366937 -0.227998
C52   C     C_R   0.897203 0.712620 0.633178 -0.232140
H13   H     H_    0.392871 0.656094 0.159524 0.143043
H14   H     H_    0.607076 0.343859 0.840359 0.142893
H15   H     H_    0.107129 0.156195 0.340466 0.142932
H16   H     H_    0.892928 0.843745 0.659648 0.142805
C53   C     C_R   0.363155 0.944144 0.139326 -0.150681
C54   C     C_R   0.636787 0.055828 0.860596 -0.149456
C55   C     C_R   0.136842 0.444150 0.360670 -0.150602
C56   C     C_R   0.863212 0.555818 0.639405 -0.149373
C57   C     C_R   0.369611 0.113429 0.104763 -0.155868
C58   C     C_R   0.630298 0.886522 0.895137 -0.154455
C59   C     C_R   0.130382 0.613383 0.395232 -0.155862
C60   C     C_R   0.869700 0.386565 0.604861 -0.154615
H17   H     H_    0.343963 0.236557 0.107918 0.134052
H18   H     H_    0.655946 0.763379 0.892003 0.132824
H19   H     H_    0.156030 0.736471 0.392079 0.134058
H20   H     H_    0.844050 0.263471 0.607992 0.132853
C61   C     C_R   0.408646 0.125473 0.064829 -0.199218
C62   C     C_R   0.591235 0.874480 0.935032 -0.205700
C63   C     C_R   0.091346 0.625422 0.435164 -0.199045
C64   C     C_R   0.908764 0.374518 0.564967 -0.205591
H21   H     H_    0.411996 0.256601 0.038047 0.125860
H22   H     H_    0.587865 0.743350 0.961807 0.124371
H23   H     H_    0.087994 0.756507 0.461946 0.125850
H24   H     H_    0.912132 0.243431 0.538189 0.124419
C65   C     C_R   0.442990 0.970706 0.059180 0.131350
C66   C     C_R   0.556888 0.029256 0.940652 0.134050
C67   C     C_R   0.057004 0.470704 0.440812 0.131544
C68   C     C_R   0.943112 0.529234 0.559348 0.134097
C69   C     C_1   0.483177 0.991087 0.017317 -0.052658
C70   C     C_1   0.516685 0.008904 0.982495 -0.055142
C71   C     C_1   0.016819 0.491074 0.482677 -0.052544
C72   C     C_1   0.983312 0.508885 0.517502 -0.055060
N1    N     N_R   0.568530 0.337854 0.388169 0.227206
O21   O     O_R   0.553640 0.312367 0.329479 -0.404963
O22   O     O_R   0.586206 0.506855 0.407022 -0.426145
N2    N     N_R   0.416421 0.847307 0.636880 0.231281
O23   O     O_R   0.441251 0.737778 0.679149 -0.393763
O24   O     O_R   0.378030 0.954271 0.651559 -0.404009
N3    N     N_R   0.930148 0.824788 0.114173 0.227389
O25   O     O_R   0.944896 0.794630 0.172673 -0.404608
O26   O     O_R   0.912095 0.994633 0.096703 -0.426932
N4    N     N_R   0.083973 0.354879 0.862882 0.231315
O27   O     O_R   0.059303 0.246795 0.820124 -0.393639
O28   O     O_R   0.122368 0.462767 0.848760 -0.405104
C73   C     C_3   0.671314 0.162800 0.423541 -0.411813
C74   C     C_3   0.658672 0.989629 0.380590 -0.744622
H25   H     H_    0.670321 0.852527 0.405200 0.259748
H26   H     H_    0.616449 0.983272 0.364259 0.276719
H27   H     H_    0.680591 0.002390 0.339451 0.241358
H28   H     H_    0.662522 0.300479 0.398688 0.245830
H29   H     H_    0.714415 0.164966 0.434896 0.180661
C75   C     C_3   0.343424 0.618235 0.552507 -0.356835
C76   C     C_3   0.381351 0.447980 0.551450 -0.796725
H30   H     H_    0.383211 0.398303 0.503022 0.246015
H31   H     H_    0.421102 0.488980 0.571931 0.266089
H32   H     H_    0.367693 0.325415 0.578686 0.277405
H33   H     H_    0.339421 0.663231 0.600545 0.251452
H34   H     H_    0.304099 0.561908 0.535309 0.180662
C77   C     C_3   0.827926 0.648097 0.077012 -0.414600
C78   C     C_3   0.840927 0.471997 0.118626 -0.739892
H35   H     H_    0.829651 0.336472 0.092930 0.259931
H36   H     H_    0.883146 0.466070 0.135008 0.277035
H37   H     H_    0.818902 0.480434 0.159783 0.241109
H38   H     H_    0.836282 0.784081 0.102953 0.246200
H39   H     H_    0.784835 0.649261 0.065522 0.180825
C79   C     C_3   0.156990 0.123329 0.946637 -0.357881
C80   C     C_3   0.119187 0.952547 0.947031 -0.795445
H40   H     H_    0.117312 0.900945 0.995265 0.245778
H41   H     H_    0.079424 0.993817 0.926632 0.265812
H42   H     H_    0.132974 0.831240 0.919379 0.278656
H43   H     H_    0.161024 0.170102 0.898769 0.251574
H44   H     H_    0.196341 0.066922 0.963732 0.180888
C81   C     C_3   0.473465 0.627848 0.089735 -0.444294
C82   C     C_3   0.526795 0.664344 0.125659 -0.794481
H45   H     H_    0.546572 0.789291 0.106048 0.248599
H46   H     H_    0.522459 0.693564 0.175202 0.274424
H47   H     H_    0.551706 0.534006 0.122842 0.248848
H48   H     H_    0.456679 0.496147 0.109368 0.204699
H49   H     H_    0.477967 0.595758 0.040412 0.190696
C83   C     C_3   0.526409 0.372059 0.910034 -0.468035
C84   C     C_3   0.473119 0.335456 0.874029 -0.749262
H50   H     H_    0.477519 0.306155 0.824506 0.272831
H51   H     H_    0.453327 0.210515 0.893625 0.248887
H52   H     H_    0.448189 0.465774 0.876779 0.250342
H53   H     H_    0.521845 0.404161 0.959340 0.191700
H54   H     H_    0.543207 0.503777 0.890425 0.207544
C85   C     C_3   0.026532 0.127963 0.410248 -0.445172
C86   C     C_3   0.973197 0.164655 0.374339 -0.792642
H55   H     H_    0.953405 0.289481 0.393999 0.248565
H56   H     H_    0.977527 0.194163 0.324806 0.274237
H57   H     H_    0.948301 0.034298 0.377107 0.248994
H58   H     H_    0.043313 0.996282 0.390597 0.204832
H59   H     H_    0.022038 0.095748 0.459569 0.190744
C87   C     C_3   0.973594 0.871911 0.589973 -0.468118
C88   C     C_3   0.026884 0.835121 0.625979 -0.749383
H60   H     H_    0.022483 0.805722 0.675500 0.272714
H61   H     H_    0.046674 0.710180 0.606379 0.249020
H62   H     H_    0.051815 0.965392 0.623234 0.250318
H63   H     H_    0.978159 0.904100 0.540668 0.191764
H64   H     H_    0.956798 0.003627 0.609584 0.207513

loop_
_geom_bond_atom_site_label_1
_geom_bond_atom_site_label_2
_geom_bond_distance
_ccdc_geom_bond_type
O17   V3    1.689045 S    
C47   C51   1.413747 A    
C52   C56   1.408088 A    
O1    C5    1.296712 A    
C47   C85   1.513071 S    
C80   H41   1.108964 S    
C9    C21   1.398621 A    
C84   H50   1.111029 S    
O12   C8    1.288982 A    
C59   H19   1.083134 S    
C77   C78   1.528657 S    
C10   C18   1.391654 A    
C78   H37   1.110380 S    
C60   H20   1.083139 S    
C11   C23   1.398418 A    
C74   H27   1.110379 S    
C81   C82   1.526499 S    
C25   C33   1.440362 A    
C33   C38   1.406434 A    
C5    C12   1.480377 S    
C46   C83   1.513033 S    
C83   H54   1.110920 S    
C6    C11   1.476129 S    
C35   C40   1.406596 A    
C26   C30   1.429156 A    
C62   C66   1.400849 A    
C36   C39   1.406183 A    
C40   C44   1.393148 A    
C61   C65   1.400856 A    
C66   C70   1.456784 S    
C78   H36   1.108799 S    
C14   C18   1.400181 A    
C51   H15   1.083552 S    
C88   H61   1.109546 S    
C62   H22   1.083478 S    
O4    C8    1.295216 A    
C55   C59   1.407240 A    
O19   V1    1.689447 S    
C54   C58   1.407264 A    
O1    V3    1.982823 S    
O13   V1    1.965038 S    
O2    V4    1.982818 S    
O3    V1    1.982500 S    
C87   C88   1.526490 S    
C22   H1    1.076283 S    
C50   C54   1.408087 A    
C17   H6    1.084566 S    
C40   H12   1.074850 S    
O3    C7    1.296957 A    
C1    O15   1.308822 A    
C86   H57   1.110445 S    
C15   C31   1.434361 A    
C52   H16   1.083552 S    
C37   H9    1.075824 S    
O20   V2    1.689446 S    
C16   C32   1.431772 A    
C58   H18   1.083139 S    
C51   C55   1.408108 A    
O2    C6    1.294932 A    
C12   C24   1.400303 A    
N4    O28   1.301544 A    
C10   C22   1.400411 A    
C2    C56   1.494650 S    
C11   C19   1.388577 A    
C1    C55   1.494651 S    
C16   C20   1.400217 A    
O5    V1    1.966472 S    
C81   H48   1.110913 S    
C45   C49   1.413748 A    
C85   H59   1.111011 S    
C13   C29   1.434147 A    
C3    C53   1.494651 S    
C34   C37   1.406026 A    
O11   C7    1.289344 A    
O15   V3    1.965062 S    
C73   H28   1.103313 S    
C48   C68   1.417285 A    
C80   H42   1.110347 S    
C84   H51   1.109545 S    
C16   C79   1.525445 S    
C49   C53   1.408107 A    
O10   V2    1.989514 S    
C82   H46   1.111020 S    
O17   V1    2.142461 S    
C83   H53   1.111009 S    
C39   C43   1.394872 A    
C60   C64   1.399791 A    
O7    V3    1.966494 S    
C79   H44   1.112155 S    
C38   C42   1.393143 A    
O19   V3    2.141894 S    
C26   C34   1.440852 A    
C47   C67   1.417286 A    
O20   V4    2.141892 S    
C78   H35   1.111182 S    
C46   C66   1.417283 A    
C50   H14   1.083550 S    
C76   H32   1.110391 S    
C75   H34   1.112149 S    
C49   H13   1.083550 S    
O18   V4    1.689046 S    
C23   C27   1.425767 A    
C32   C44   1.415217 A    
C68   C72   1.456785 S    
O8    V4    1.966494 S    
C20   H7    1.084859 S    
O7    C3    1.314377 A    
C88   H60   1.111030 S    
N3    O26   1.301711 A    
C35   C36   1.427521 A    
O5    C1    1.314413 A    
C43   N3    1.432865 S    
C82   H47   1.110448 S    
C45   C65   1.417283 A    
C31   C43   1.417355 A    
C85   C86   1.526505 S    
C14   C30   1.431727 A    
C21   C25   1.426057 A    
O8    C4    1.314391 A    
C7    C10   1.480794 S    
N1    O21   1.301399 A    
O9    C5    1.289430 A    
C87   H64   1.110923 S    
C75   C76   1.529972 S    
C44   N4    1.433300 S    
C63   C67   1.400860 A    
C79   C80   1.529973 S    
C81   H49   1.111009 S    
C65   C69   1.456790 S    
C86   H55   1.109514 S    
O6    V2    1.966474 S    
C73   H29   1.112189 S    
C41   N1    1.432936 S    
C76   H30   1.111110 S    
C73   C74   1.528616 S    
C84   H52   1.110446 S    
C42   N2    1.433261 S    
C12   C20   1.391517 A    
C27   C35   1.440366 A    
C24   H3    1.076182 S    
C15   C77   1.523507 S    
N3    O25   1.301414 A    
C53   C57   1.407240 A    
C29   C41   1.417405 A    
N2    O24   1.301532 A    
C82   H45   1.109539 S    
O16   V4    1.965065 S    
O9    V1    1.989517 S    
C19   H8    1.084554 S    
C61   H21   1.083473 S    
C83   C84   1.526490 S    
C18   H5    1.084864 S    
C21   H2    1.075894 S    
C63   H23   1.083477 S    
C38   H10   1.074911 S    
C48   C52   1.413731 A    
C3    O13   1.308781 A    
C75   H33   1.102926 S    
O6    C2    1.314429 A    
C15   C19   1.402403 A    
C71   C72   1.213979 T    
O11   V3    1.990098 S    
C85   H58   1.110917 S    
C39   H11   1.075646 S    
O12   V4    1.990099 S    
C59   C63   1.399806 A    
C22   C26   1.427638 A    
C74   H25   1.111151 S    
C67   C71   1.456792 S    
C8    C9    1.476466 S    
C58   C62   1.399790 A    
C88   H62   1.110445 S    
C9    C17   1.388730 A    
C64   C68   1.400852 A    
C76   H31   1.108952 S    
N4    O27   1.301487 A    
C57   C61   1.399801 A    
C79   H43   1.102935 S    
C46   C50   1.413730 A    
C69   C70   1.213977 T    
C4    C54   1.494650 S    
O10   C6    1.289150 A    
C33   C34   1.427537 A    
C2    O16   1.308812 A    
C25   C29   1.429028 A    
C56   C60   1.407268 A    
C48   C87   1.513031 S    
C74   H26   1.108799 S    
C77   H38   1.103316 S    
C27   C31   1.429020 A    
C87   H63   1.111008 S    
C37   C41   1.394854 A    
C13   C17   1.402291 A    
C77   H39   1.112185 S    
C13   C73   1.523493 S    
O4    V2    1.982504 S    
C23   H4    1.075860 S    
N1    O22   1.301714 A    
O14   V2    1.965033 S    
C64   H24   1.083482 S    
C24   C28   1.427439 A    
C28   C36   1.440942 A    
C4    O14   1.308778 A    
C80   H40   1.111158 S    
C14   C75   1.525504 S    
N2    O23   1.301500 A    
C45   C81   1.513067 S    
C30   C42   1.415348 A    
C57   H17   1.083133 S    
C28   C32   1.429059 A    
C86   H56   1.111028 S    
O18   V2    2.142462 S    
