data_mof_unit_52223.cif
_audit_creation_date              2013-03-05T16:48:44-0500
_audit_creation_method            fapswitch 2.2
_symmetry_space_group_name_H-M    P1
_symmetry_Int_Tables_number       1
_space_group_crystal_system       triclinic
_cell_length_a                    27.814832
_cell_length_b                    8.923138
_cell_length_c                    8.08502
_cell_angle_alpha                 89.999963
_cell_angle_beta                  90.000059
_cell_angle_gamma                 89.986315
_cell_volume                      2006.66620641

loop_
_atom_site_label
_atom_site_type_symbol
_atom_site_description
_atom_site_fract_x
_atom_site_fract_y
_atom_site_fract_z
_atom_type_partial_charge
O1    O     O_R   0.500000 0.285350 0.636850 -0.608846
O2    O     O_R   0.500000 0.714650 0.363150 -0.608118
O3    O     O_R   0.500000 0.714650 0.636850 -0.608850
O4    O     O_R   0.500000 0.285350 0.363150 -0.608111
C1    C     C_R   0.500001 0.217932 0.500000 0.944874
C2    C     C_R   0.499999 0.782068 0.500000 0.944878
O5    O     O_R   0.428760 0.500000 0.636860 -0.581000
O6    O     O_R   0.571240 0.500000 0.363140 -0.581166
O7    O     O_R   0.571240 0.500000 0.636860 -0.581018
O8    O     O_R   0.428760 0.500000 0.363140 -0.581175
C3    C     C_R   0.405687 0.500337 0.499975 0.979264
C4    C     C_R   0.594313 0.499645 0.499975 0.979274
Zn1   Zn    Zn3+2 0.500000 0.500000 0.682780 1.113873
Zn2   Zn    Zn3+2 0.500000 0.500000 0.317220 1.114322
C5    C     C_R   0.176840 0.371525 0.460205 0.588427
C6    C     C_R   0.823161 0.628110 0.460160 0.588358
C7    C     C_R   0.176385 0.632082 0.528703 0.588515
C8    C     C_R   0.823611 0.367556 0.528673 0.588567
O9    O     O_2   0.201876 0.246526 0.422299 -0.503684
O10   O     O_2   0.798128 0.753112 0.422243 -0.503691
O11   O     O_2   0.200949 0.757565 0.568131 -0.504897
O12   O     O_2   0.799045 0.242080 0.568110 -0.504887
N1    N     N_R   0.200574 0.501998 0.495360 -0.322884
N2    N     N_R   0.799425 0.497646 0.495335 -0.322889
C9    C     C_R   0.277354 0.581489 0.373757 -0.075823
C10   C     C_R   0.722630 0.418218 0.373787 -0.075835
C11   C     C_R   0.276738 0.423328 0.622378 -0.077033
C12   C     C_R   0.723276 0.576398 0.622393 -0.077008
C13   C     C_R   0.327815 0.583980 0.377359 0.282794
C14   C     C_R   0.672169 0.415833 0.377381 0.282755
C15   C     C_R   0.327224 0.420177 0.621317 0.283238
C16   C     C_R   0.672791 0.579655 0.621321 0.283263
C17   C     C_R   0.252104 0.502365 0.497255 0.062654
C18   C     C_R   0.747894 0.497311 0.497272 0.062648
C19   C     C_R   0.101089 0.501056 0.492219 -0.044137
C20   C     C_R   0.898910 0.498567 0.492181 -0.044134
C21   C     C_R   0.126649 0.367240 0.464502 -0.028982
C22   C     C_R   0.873353 0.632384 0.464451 -0.028983
C23   C     C_R   0.126214 0.635413 0.521202 -0.028410
C24   C     C_R   0.873783 0.364215 0.521165 -0.028407
C25   C     C_R   0.101649 0.232973 0.440910 -0.129243
C26   C     C_R   0.898354 0.766648 0.440854 -0.129248
C27   C     C_R   0.100804 0.769185 0.543247 -0.129618
C28   C     C_R   0.899191 0.230440 0.543213 -0.129616
C29   C     C_R   0.352842 0.501560 0.499677 -0.234318
C30   C     C_R   0.647157 0.498324 0.499679 -0.234312
H1    H     H_    0.120519 0.129124 0.416351 0.192246
H2    H     H_    0.879485 0.870498 0.416283 0.192246
H3    H     H_    0.119329 0.873477 0.568465 0.191500
H4    H     H_    0.880665 0.126149 0.568429 0.191503
C31   C     C_R   0.974964 0.361695 0.500290 0.048447
C32   C     C_R   0.025034 0.637923 0.500298 0.048450
C33   C     C_R   0.974569 0.637240 0.481579 0.048358
C34   C     C_R   0.025431 0.362378 0.481597 0.048355
C35   C     C_R   0.949623 0.499153 0.491225 0.076023
C36   C     C_R   0.050376 0.500465 0.491248 0.076023
C37   C     C_R   0.948989 0.228619 0.530438 -0.214943
C38   C     C_R   0.051007 0.771000 0.530459 -0.214947
C39   C     C_R   0.948183 0.769618 0.451744 -0.215372
C40   C     C_R   0.051819 0.230000 0.451786 -0.215362
H5    H     H_    0.966619 0.122698 0.551679 0.134455
H6    H     H_    0.033375 0.876919 0.551696 0.134455
H7    H     H_    0.965490 0.875909 0.429770 0.135020
H8    H     H_    0.034513 0.123705 0.429814 0.135014
C41   C     C_1   0.500000 0.065195 0.499998 -0.102983
C42   C     C_1   0.499999 0.934805 0.499998 -0.103000
N3    N     N_1   0.500000 0.500000 0.073640 0.026134
N4    N     N_1   0.500000 0.500000 0.926360 0.025840
Cl1   Cl    Cl    0.358056 0.313007 0.773140 -0.469388
Cl2   Cl    Cl    0.641978 0.686894 0.773132 -0.469336
Cl3   Cl    Cl    0.359358 0.691696 0.227742 -0.471046
Cl4   Cl    Cl    0.640606 0.308159 0.227776 -0.471110
C43   C     C_2   0.249024 0.345483 0.754456 1.045427
O13   O     O_2   0.258942 0.216690 0.793296 -0.493706
O14   O     O_R   0.210594 0.418609 0.831317 -0.802370
H9    H     H_    0.193972 0.353507 0.916705 0.367782
C44   C     C_2   0.751005 0.654186 0.754473 1.045363
O15   O     O_2   0.741112 0.782997 0.793318 -0.493719
O16   O     O_R   0.789421 0.580986 0.831329 -0.802346
H10   H     H_    0.806055 0.646052 0.916722 0.367766
C45   C     C_2   0.250332 0.659783 0.240324 1.044797
O17   O     O_2   0.260297 0.788941 0.203195 -0.493306
O18   O     O_R   0.212497 0.586632 0.160145 -0.801448
H11   H     H_    0.196285 0.652094 0.074140 0.368834
C46   C     C_2   0.749637 0.339850 0.240370 1.044856
O19   O     O_2   0.739648 0.210699 0.203281 -0.493291
O20   O     O_R   0.787482 0.412920 0.160160 -0.801443
H12   H     H_    0.803681 0.347409 0.074171 0.368842

loop_
_geom_bond_atom_site_label_1
_geom_bond_atom_site_label_2
_geom_bond_distance
_ccdc_geom_bond_type
C38   H6    1.078457 S    
O20   H12   1.013869 S    
C43   O13   1.222832 D    
O3    C2    1.259406 A    
C45   O17   1.222847 D    
C33   C39   1.411282 A    
C34   C40   1.411285 A    
C44   O15   1.222833 D    
C11   C17   1.410676 A    
C5    O9    1.350016 S    
C7    N1    1.368338 A    
C2    C42   1.362892 S    
C21   C25   1.398474 A    
O1    C1    1.259406 A    
C19   C21   1.407481 A    
C22   C26   1.398468 A    
C7    C23   1.397121 A    
C8    C24   1.397151 A    
C5    C21   1.397044 A    
C20   C24   1.407476 A    
O7    Zn1   2.016007 S    
C27   C38   1.389059 A    
C10   C18   1.410288 A    
N1    C17   1.433393 S    
Zn2   N3    1.969349 S    
C31   C37   1.411327 A    
O3    Zn1   1.951016 S    
C6    O10   1.350022 S    
C5    N1    1.368351 A    
C12   C18   1.410682 A    
C6    N2    1.368337 A    
C9    C45   1.488822 S    
C43   O14   1.397932 S    
O2    C2    1.259401 A    
C45   O18   1.397887 S    
O5    C3    1.279334 A    
C33   C35   1.416398 A    
C9    C13   1.404048 A    
C34   C36   1.416402 A    
C46   O20   1.397885 S    
C11   C15   1.404566 A    
N3    N4    1.190761 T    
C12   C16   1.404563 A    
C4    C30   1.469904 S    
O8    Zn2   2.016010 S    
C27   H3    1.083205 S    
C16   Cl2   1.776606 S    
C46   O19   1.222850 D    
N2    C18   1.433404 S    
C13   C29   1.415353 A    
C19   C23   1.407482 A    
O14   H9    1.013875 S    
C15   Cl1   1.776601 S    
O18   H11   1.013869 S    
C24   C28   1.398470 A    
C28   C37   1.389076 A    
O6    C4    1.278982 A    
C25   H1    1.083225 S    
C44   O16   1.397929 S    
C26   H2    1.083228 S    
C12   C44   1.489045 S    
C32   C38   1.411319 A    
C1    C41   1.362892 S    
C10   C14   1.404043 A    
C8    N2    1.368331 A    
C3    C29   1.469909 S    
O1    Zn1   1.951018 S    
C32   C33   1.411837 A    
C28   H4    1.083204 S    
O6    Zn2   2.016006 S    
C19   C36   1.410598 A    
C8    O12   1.350011 S    
C16   C30   1.415107 A    
C14   C30   1.415362 A    
C25   C40   1.389040 A    
O4    C1    1.259401 A    
C26   C39   1.389033 A    
C14   Cl4   1.776875 S    
C37   H5    1.078452 S    
C39   H7    1.078469 S    
C40   H8    1.078474 S    
C31   C34   1.411852 A    
C20   C22   1.407473 A    
C20   C35   1.410608 A    
C10   C46   1.488820 S    
C31   C35   1.416421 A    
O4    Zn2   1.951017 S    
O2    Zn2   1.951017 S    
O7    C4    1.279332 A    
C7    O11   1.350007 S    
O8    C3    1.278987 A    
O16   H10   1.013877 S    
O5    Zn1   2.016009 S    
C23   C27   1.398468 A    
C41   C42   1.163491 T    
C15   C29   1.415118 A    
C9    C17   1.410296 A    
C11   C43   1.489042 S    
C32   C36   1.416419 A    
C6    C22   1.397046 A    
C13   Cl3   1.776865 S    
Zn1   N4    1.969349 S    
