data_mof_unit_38771.cif
_audit_creation_date              2012-12-10T16:56:37-0500
_audit_creation_method            fapswitch 2.2
_symmetry_space_group_name_H-M    P1
_symmetry_Int_Tables_number       1
_space_group_crystal_system       triclinic
_cell_length_a                    10.762331
_cell_length_b                    10.937969
_cell_length_c                    9.772425
_cell_angle_alpha                 90.731633
_cell_angle_beta                  90.80786
_cell_angle_gamma                 91.809773
_cell_volume                      1149.60211922

loop_
_atom_site_label
_atom_site_type_symbol
_atom_type_description
_atom_site_fract_x
_atom_site_fract_y
_atom_site_fract_z
_atom_type_partial_charge
C1    C     C_R   0.502354 0.265419 0.498993 0.875027
C2    C     C_3   0.877786 0.502978 0.500445 0.008949
C3    C     C_3   0.933325 0.616155 0.421876 0.054614
C4    C     C_3   0.920051 0.381398 0.432287 0.098289
C5    C     C_2   0.508572 0.930222 0.390863 -0.200301
C6    C     C_2   0.492362 0.865895 0.504638 -0.389356
C7    C     C_2   0.487671 0.061820 0.386343 0.282042
C8    C     C_2   0.512915 0.133133 0.497651 -0.385819
C9    C     C_2   0.438435 0.419862 0.921588 0.325582
C10   C     C_2   0.418301 0.439934 0.073127 0.204935
C11   C     C_R   0.260012 0.498815 0.499748 0.796259
C12   C     C_R   0.499700 0.734296 0.501080 0.866980
C13   C     C_R   0.739765 0.504028 0.500668 0.837675
C14   C     C_3   0.073050 0.518739 0.648666 -0.394496
C15   C     C_3   0.930685 0.512012 0.649505 -0.455048
C16   C     C_3   0.076575 0.606875 0.413421 -0.482796
C17   C     C_3   0.065019 0.376183 0.437715 0.072390
C18   C     C_3   0.121736 0.498670 0.500495 0.029427
Cu1   Cu    Cu3+1 0.500030 0.500020 0.638630 0.919536
Cu2   Cu    Cu3+1 0.499970 0.499980 0.361370 0.936687
H1    H     H_    0.105984 0.610404 0.687741 0.180567
H2    H     H_    0.891224 0.383415 0.322519 0.110725
H3    H     H_    0.105528 0.594374 0.305432 0.177518
H4    H     H_    0.529543 0.884438 0.294986 0.181576
H5    H     H_    0.466953 0.908696 0.600603 0.149351
H6    H     H_    0.547279 0.094054 0.591788 0.125251
H7    H     H_    0.532287 0.577078 0.895722 0.156440
H8    H     H_    0.109471 0.451489 0.722042 0.171040
H9    H     H_    0.580523 0.527241 0.108733 0.169767
H10   H     H_    0.898547 0.432580 0.710913 0.189774
H11   H     H_    0.896708 0.595265 0.701981 0.171223
H12   H     H_    0.121531 0.694372 0.450786 0.161228
H13   H     H_    0.912770 0.699189 0.484049 0.146304
H14   H     H_    0.096135 0.370256 0.329578 0.111274
N1    N     N_2   0.498630 0.498660 0.846910 -0.325875
N2    N     N_2   0.498590 0.498630 0.153040 -0.301881
O1    O     O_R   0.500020 0.321960 0.617040 -0.576391
O2    O     O_R   0.499980 0.321920 0.382900 -0.565561
O3    O     O_R   0.317710 0.500000 0.617070 -0.601021
O4    O     O_R   0.317670 0.499960 0.382930 -0.588358
O5    O     O_R   0.500020 0.678080 0.617100 -0.587904
O6    O     O_R   0.499980 0.678040 0.382960 -0.565092
O7    O     O_R   0.682330 0.500040 0.617070 -0.587824
O8    O     O_R   0.682290 0.500000 0.382930 -0.561626
N3    N     N_2   0.878313 0.628660 0.285615 -0.404451
H15   H     H_    0.902015 0.563065 0.214770 0.245812
C19   C     C_3   0.880403 0.751100 0.231132 -0.711676
H16   H     H_    0.830715 0.750443 0.130756 0.220559
H17   H     H_    0.977821 0.784506 0.216549 0.222440
H18   H     H_    0.832436 0.814285 0.301306 0.228255
N4    N     N_2   0.444142 0.112394 0.261515 -0.410604
H19   H     H_    0.514870 0.148105 0.202769 0.253791
C20   C     C_3   0.350197 0.041030 0.185106 -0.753990
H20   H     H_    0.296329 0.102384 0.118945 0.237292
H21   H     H_    0.283845 0.994666 0.255168 0.245000
H22   H     H_    0.394605 0.971575 0.119648 0.222035
N5    N     N_2   0.379125 0.314487 0.859833 -0.417642
H23   H     H_    0.333925 0.325343 0.767786 0.288986
C21   C     C_3   0.444882 0.202206 0.875805 -0.700715
H24   H     H_    0.537199 0.208524 0.826885 0.243622
H25   H     H_    0.389311 0.124656 0.829462 0.215118
H26   H     H_    0.460357 0.184215 0.985261 0.231561
C22   C     C_3   0.298510 0.388420 0.129641 -0.741912
H27   H     H_    0.243374 0.332342 0.054050 0.198024
H28   H     H_    0.317423 0.328608 0.217040 0.268238
H29   H     H_    0.238327 0.464734 0.157996 0.209969
N6    N     N_2   0.105813 0.268693 0.511386 -0.422820
H30   H     H_    0.130568 0.278526 0.613067 0.245586
C23   C     C_3   0.176401 0.181010 0.436214 -0.706316
H31   H     H_    0.268897 0.221390 0.414329 0.246840
H32   H     H_    0.128474 0.154932 0.338366 0.226680
H33   H     H_    0.187516 0.097507 0.498055 0.228666
N7    N     N_2   0.857732 0.275349 0.494225 -0.411263
H34   H     H_    0.886120 0.252585 0.591534 0.269920
C24   C     C_3   0.826428 0.172224 0.404644 -0.690946
H35   H     H_    0.778751 0.098993 0.463699 0.221220
H36   H     H_    0.911417 0.134876 0.359642 0.236762
H37   H     H_    0.762544 0.200532 0.321430 0.224880

loop_
_geom_bond_atom_site_label_1
_geom_bond_atom_site_label_2
_ccdc_geom_bond_type
N4    C20   S    
C22   H28   S    
C11   C18   S    
C1    C8    S    
C8    H6    S    
N7    H34   S    
C14   C18   S    
C10   C22   S    
C7    C8    D    
C19   H17   S    
C20   H20   S    
H9    N2    S    
C14   H1    S    
C6    C12   S    
C5    C6    D    
Cu2   O4    S    
N5    C21   S    
C6    H5    S    
C3    H13   S    
C4    H2    S    
C23   H32   S    
C2    C13   S    
C12   O6    A    
Cu1   O1    S    
Cu1   Cu2   S    
C9    C10   S    
C1    O1    A    
N3    C19   S    
C22   H29   S    
C21   H24   S    
N7    C24   S    
C23   H31   S    
Cu2   O8    S    
Cu1   O7    S    
C19   H18   S    
C20   H21   S    
C17   N6    S    
C21   H25   S    
N6    H30   S    
C5    C7    S    
H7    N1    S    
N3    H15   S    
C3    N3    S    
N4    H19   S    
N6    C23   S    
C23   H33   S    
C2    C4    S    
C24   H35   S    
C12   O5    A    
Cu2   O2    S    
C19   H16   S    
C17   C18   S    
C11   O3    A    
C2    C15   S    
C24   H36   S    
C4    N7    S    
Cu1   O3    S    
C1    O2    A    
C4    C17   S    
C16   H3    S    
C17   H14   S    
C13   O7    A    
C15   H10   S    
C20   H22   S    
C21   H26   S    
Cu2   O6    S    
C15   H11   S    
C16   H12   S    
C2    C3    S    
C7    N4    S    
Cu1   N1    S    
N5    H23   S    
C5    H4    S    
C9    N5    S    
C11   O4    A    
C24   H37   S    
C22   H27   S    
Cu2   N2    S    
C16   C18   S    
C9    N1    D    
C14   C15   S    
C10   N2    D    
C14   H8    S    
C13   O8    A    
C3    C16   S    
Cu1   O5    S    
