data_mof_unit_22611.cif
_audit_creation_date              2012-12-10T19:38:45-0500
_audit_creation_method            fapswitch 2.2
_symmetry_space_group_name_H-M    P1
_symmetry_Int_Tables_number       1
_space_group_crystal_system       triclinic
_cell_length_a                    10.609505
_cell_length_b                    15.880891
_cell_length_c                    17.073688
_cell_angle_alpha                 95.053367
_cell_angle_beta                  92.084888
_cell_angle_gamma                 90.14591
_cell_volume                      2863.59198142

loop_
_atom_site_label
_atom_site_type_symbol
_atom_type_description
_atom_site_fract_x
_atom_site_fract_y
_atom_site_fract_z
_atom_type_partial_charge
C1    C     C_R   0.497177 0.490281 0.348735 0.791823
C2    C     C_R   0.500629 0.509720 0.651101 0.789994
C3    C     C_R   0.464947 0.473043 0.097464 0.373827
C4    C     C_R   0.498895 0.523943 0.901479 0.353903
C5    C     C_R   0.442703 0.400282 0.138076 0.079121
C6    C     C_R   0.554735 0.589506 0.863923 0.078085
C7    C     C_R   0.455786 0.407969 0.220283 -0.266477
C8    C     C_R   0.554943 0.584117 0.781691 -0.249970
C9    C     C_R   0.426322 0.761420 0.472801 0.248534
C10   C     C_R   0.546407 0.240383 0.545050 0.245463
C11   C     C_R   0.449018 0.847871 0.466040 -0.325750
C12   C     C_R   0.555158 0.151958 0.531076 -0.315678
C13   C     C_R   0.556461 0.889070 0.499713 0.321789
C14   C     C_R   0.497598 0.107859 0.465227 0.303606
C15   C     C_R   0.644732 0.839362 0.539448 -0.032516
C16   C     C_R   0.431206 0.155637 0.410915 -0.037071
C17   C     C_R   0.621674 0.751414 0.543019 -0.007105
C18   C     C_R   0.427513 0.245774 0.425109 0.011760
C19   C     C_R   0.259254 0.501483 0.500650 0.773652
C20   C     C_R   0.740549 0.498498 0.499761 0.774079
C21   C     C_3   0.039468 0.467007 0.430747 -0.166077
C22   C     C_3   0.959618 0.532544 0.570357 -0.183327
C23   C     C_3   0.952772 0.544688 0.443325 -0.155507
C24   C     C_3   0.046405 0.454896 0.557822 -0.152036
C25   C     C_3   0.877188 0.496436 0.499844 0.020841
C26   C     C_3   0.122200 0.503317 0.501259 0.029428
C27   C     C_3   0.961442 0.418693 0.487268 -0.142547
C28   C     C_3   0.037447 0.580927 0.513903 -0.149398
C29   C     C_R   0.487364 0.485129 0.262693 -0.044923
C30   C     C_R   0.500138 0.514456 0.736819 -0.044564
C31   C     C_R   0.505674 0.556706 0.222742 -0.256325
C32   C     C_R   0.442857 0.450379 0.774108 -0.251948
C33   C     C_R   0.494457 0.551005 0.141331 -0.192263
C34   C     C_R   0.441829 0.454928 0.855544 -0.195416
Cu1   Cu    Cu3+1 0.493870 0.415220 0.496180 0.923913
Cu2   Cu    Cu3+1 0.506130 0.584780 0.503820 0.924400
H1    H     H_    0.910847 0.580898 0.396210 0.127799
H2    H     H_    0.087668 0.418526 0.605037 0.127918
H3    H     H_    0.690491 0.714483 0.573105 0.142729
H4    H     H_    0.378907 0.283028 0.383819 0.136034
H5    H     H_    0.075332 0.440717 0.373426 0.123024
H6    H     H_    0.923585 0.558874 0.627619 0.122036
H7    H     H_    0.927990 0.352330 0.475971 0.130810
H8    H     H_    0.065912 0.648003 0.526305 0.124628
H9    H     H_    0.396690 0.397414 0.740327 0.148101
H10   H     H_    0.529552 0.617131 0.254277 0.159353
H11   H     H_    0.395819 0.404354 0.882037 0.149249
H12   H     H_    0.509516 0.608259 0.112796 0.160902
H13   H     H_    0.439790 0.352694 0.251578 0.144971
H14   H     H_    0.598563 0.634108 0.752619 0.148112
H15   H     H_    0.604275 0.116502 0.574034 0.162473
H16   H     H_    0.378481 0.884401 0.436714 0.165057
N1    N     N_2   0.458638 0.467108 0.014010 -0.284087
N2    N     N_2   0.503261 0.529465 0.984927 -0.275872
N3    N     N_R   0.515330 0.712130 0.509560 -0.181218
N4    N     N_R   0.484670 0.287870 0.490440 -0.184341
N5    N     N_2   0.570212 0.979928 0.501205 -0.247067
N6    N     N_2   0.494603 0.016335 0.456746 -0.249714
O1    O     O_R   0.494270 0.420530 0.382500 -0.591144
O2    O     O_R   0.505730 0.579470 0.617500 -0.579693
O3    O     O_R   0.504620 0.563720 0.388950 -0.590592
O4    O     O_R   0.495380 0.436280 0.611050 -0.597726
O5    O     O_R   0.311680 0.428420 0.496760 -0.580148
O6    O     O_R   0.688320 0.571580 0.503240 -0.590367
O7    O     O_R   0.322030 0.571610 0.503210 -0.597779
O8    O     O_R   0.677970 0.428390 0.496790 -0.592147
C35   C     C_3   0.764726 0.877467 0.578005 -0.413009
C36   C     C_3   0.880120 0.847312 0.531825 -0.341018
C37   C     C_3   0.001814 0.885058 0.570574 -0.857557
H17   H     H_    0.999579 0.955148 0.572745 0.257503
H18   H     H_    0.014605 0.865616 0.631264 0.252271
H19   H     H_    0.083406 0.862071 0.536009 0.233801
H20   H     H_    0.886725 0.777241 0.528705 0.211178
H21   H     H_    0.870533 0.866465 0.470805 0.227425
H22   H     H_    0.761888 0.947626 0.582143 0.219967
H23   H     H_    0.774029 0.858754 0.639191 0.187298
C38   C     C_3   0.367082 0.108253 0.338866 -0.384267
C39   C     C_3   0.307106 0.163651 0.278324 -0.389980
C40   C     C_3   0.250650 0.109754 0.207145 -0.842319
H24   H     H_    0.325294 0.071780 0.176944 0.253630
H25   H     H_    0.176853 0.066703 0.225676 0.254398
H26   H     H_    0.206995 0.151418 0.164938 0.238446
H27   H     H_    0.230734 0.202605 0.305631 0.216741
H28   H     H_    0.380083 0.205829 0.257519 0.211188
H29   H     H_    0.438699 0.067292 0.308710 0.213622
H30   H     H_    0.292962 0.066433 0.359124 0.206474
C41   C     C_3   0.406447 0.311830 0.101527 -0.423132
C42   C     C_3   0.382393 0.298486 0.012235 -0.324438
C43   C     C_3   0.340004 0.207825 0.987206 -0.878112
H31   H     H_    0.413297 0.162435 0.004430 0.257691
H32   H     H_    0.250229 0.193596 0.015003 0.254939
H33   H     H_    0.324542 0.199686 0.922299 0.242517
H34   H     H_    0.306655 0.341641 0.993976 0.229771
H35   H     H_    0.470820 0.310243 0.981920 0.235503
H36   H     H_    0.482081 0.267644 0.118125 0.201229
H37   H     H_    0.319029 0.292807 0.129654 0.200707
C44   C     C_3   0.615286 0.665177 0.910879 -0.408554
C45   C     C_3   0.514948 0.726786 0.943465 -0.329848
C46   C     C_3   0.575433 0.802468 0.992115 -0.861618
H38   H     H_    0.631040 0.781147 0.043039 0.253679
H39   H     H_    0.638259 0.837325 0.955372 0.253360
H40   H     H_    0.500718 0.846038 0.014630 0.241516
H41   H     H_    0.457816 0.749796 0.893860 0.218510
H42   H     H_    0.450677 0.694432 0.981280 0.228222
H43   H     H_    0.675706 0.643578 0.959717 0.207947
H44   H     H_    0.678186 0.699095 0.873281 0.187311
C47   C     C_3   0.600367 0.275098 0.625559 -0.350932
C48   C     C_3   0.729596 0.319120 0.623410 -0.273952
C49   C     C_3   0.817197 0.300552 0.692722 -0.919774
H45   H     H_    0.772715 0.320691 0.749208 0.264186
H46   H     H_    0.838506 0.231940 0.690322 0.257268
H47   H     H_    0.907182 0.335907 0.690039 0.244712
H48   H     H_    0.776994 0.298288 0.568096 0.216515
H49   H     H_    0.717190 0.388444 0.627387 0.235422
H50   H     H_    0.530777 0.312424 0.659485 0.194008
H51   H     H_    0.612438 0.222091 0.663648 0.163084
C50   C     C_3   0.294281 0.732206 0.445240 -0.358839
C51   C     C_3   0.287282 0.682965 0.363395 -0.280039
C52   C     C_3   0.161459 0.696187 0.319935 -0.914752
H52   H     H_    0.082053 0.678239 0.355780 0.256329
H53   H     H_    0.151248 0.763388 0.307553 0.257015
H54   H     H_    0.157423 0.656214 0.263144 0.250801
H55   H     H_    0.364438 0.703431 0.326907 0.211309
H56   H     H_    0.295469 0.614466 0.368849 0.241818
H57   H     H_    0.247714 0.700830 0.491013 0.196171
H58   H     H_    0.232528 0.788443 0.442128 0.160042

loop_
_geom_bond_atom_site_label_1
_geom_bond_atom_site_label_2
_ccdc_geom_bond_type
C38   C39   S    
C41   C42   S    
C7    C29   A    
C9    C50   S    
C32   H9    S    
Cu1   Cu2   S    
C24   C27   S    
C21   C26   S    
C44   C45   S    
N1    N2    D    
C20   O8    A    
C24   C26   S    
C49   H46   S    
C2    O2    A    
C13   N5    S    
C20   C25   S    
C3    C33   A    
C36   H21   S    
C45   H41   S    
C48   C49   S    
Cu1   O1    S    
C16   C38   S    
C17   H3    S    
C48   H49   S    
C37   H18   S    
C19   C26   S    
C18   H4    S    
C51   C52   S    
C11   H16   S    
C39   H27   S    
C19   O5    A    
C36   C37   S    
C22   C25   S    
C41   H36   S    
C24   H2    S    
C47   C48   S    
C31   C33   A    
C9    N3    A    
C43   H32   S    
C10   N4    A    
C50   H58   S    
C17   N3    A    
C18   N4    A    
C44   H43   S    
C21   C27   S    
C38   H29   S    
C22   C28   S    
C3    N1    S    
C10   C47   S    
C4    C34   A    
C52   H53   S    
C21   C23   S    
C14   N6    S    
C42   H35   S    
C35   C36   S    
C6    C44   S    
C7    H13   S    
C4    C6    A    
C49   H47   S    
C5    C7    A    
C39   C40   S    
C6    C8    A    
Cu1   O8    S    
C3    C5    A    
C36   H20   S    
C23   H1    S    
C31   H10   S    
C32   C34   A    
C48   H48   S    
C20   O6    A    
C37   H19   S    
C39   H28   S    
C46   H38   S    
C15   C35   S    
C41   H37   S    
C1    C29   S    
C51   H56   S    
C23   C28   S    
C43   H33   S    
C9    C11   A    
C47   H50   S    
C10   C12   A    
C21   H5    S    
C44   H44   S    
C46   H39   S    
C12   C14   A    
C38   H30   S    
C13   C15   A    
C22   C24   S    
C35   H22   S    
Cu2   O3    S    
C8    H14   S    
C12   H15   S    
C40   H25   S    
C52   H54   S    
C15   C17   A    
C42   H34   S    
C4    N2    S    
Cu1   N4    S    
Cu2   O7    S    
Cu2   O2    S    
C1    O3    A    
C40   H26   S    
C52   H52   S    
C35   H23   S    
C25   C27   S    
C26   C28   S    
C2    C30   S    
C8    C30   A    
C1    O1    A    
C29   C31   A    
Cu2   N3    S    
C50   C51   S    
C30   C32   A    
C11   C13   A    
N5    N6    D    
C22   H6    S    
C45   H42   S    
C28   H8    S    
C19   O7    A    
Cu1   O4    S    
C14   C16   A    
C51   H55   S    
C23   C25   S    
C37   H17   S    
C47   H51   S    
C40   H24   S    
C5    C41   S    
C27   H7    S    
C46   H40   S    
C42   C43   S    
C16   C18   A    
C45   C46   S    
C49   H45   S    
C33   H12   S    
Cu1   O5    S    
C34   H11   S    
C43   H31   S    
Cu2   O6    S    
C50   H57   S    
C2    O4    A    
