data_mof_unit_27184.cif
_audit_creation_date              2012-12-11T17:17:12-0500
_audit_creation_method            fapswitch 2.2
_symmetry_space_group_name_H-M    P1
_symmetry_Int_Tables_number       1
_space_group_crystal_system       triclinic
_cell_length_a                    6.9435
_cell_length_b                    13.373432
_cell_length_c                    14.667711
_cell_angle_alpha                 98.824986
_cell_angle_beta                  89.746484
_cell_angle_gamma                 90.324968
_cell_volume                      1345.86600574

loop_
_atom_site_label
_atom_site_type_symbol
_atom_type_description
_atom_site_fract_x
_atom_site_fract_y
_atom_site_fract_z
_atom_type_partial_charge
O1    O     O_R   0.354890 0.151580 0.148210 -0.534779
O2    O     O_R   0.645110 0.848420 0.851790 -0.534779
O3    O     O_R   0.682370 0.152980 0.336770 -0.542419
O4    O     O_R   0.317630 0.847020 0.663230 -0.542418
O5    O     O_R   0.854980 0.348430 0.351800 -0.535495
O6    O     O_R   0.145020 0.651570 0.648200 -0.535494
C1    C     C_R   0.513249 0.131294 0.366416 0.676985
C2    C     C_R   0.486751 0.868706 0.633584 0.676985
O7    O     O_R   0.684450 0.139580 0.148000 -0.538267
O8    O     O_R   0.315550 0.860420 0.852000 -0.538267
O9    O     O_R   0.857080 0.334940 0.161680 -0.538800
O10   O     O_R   0.142920 0.665060 0.838320 -0.538799
C3    C     C_R   0.515541 0.112686 0.114022 0.733179
C4    C     C_R   0.484459 0.887314 0.885978 0.733180
O11   O     O_R   0.352790 0.165070 0.338330 -0.540545
O12   O     O_R   0.647210 0.834930 0.661670 -0.540545
O13   O     O_3   0.522170 0.314120 0.254710 -0.368518
O14   O     O_3   0.477830 0.685880 0.745290 -0.368518
V1    V     V_3+5 0.796120 0.238110 0.249130 1.410109
V2    V     V_3+5 0.203880 0.761890 0.750870 1.410109
O15   O     O_R   0.186930 0.347040 0.163240 -0.543533
O16   O     O_R   0.813070 0.652960 0.836760 -0.543533
C5    C     C_R   0.018670 0.368780 0.133588 0.676798
C6    C     C_R   0.981330 0.631220 0.866412 0.676798
O17   O     O_R   0.184850 0.360440 0.352010 -0.537748
O18   O     O_R   0.815150 0.639560 0.647990 -0.537748
C7    C     C_R   0.015815 0.387326 0.385984 0.732357
C8    C     C_R   0.984185 0.612674 0.614016 0.732357
V3    V     V_3+5 0.296410 0.261900 0.250880 1.411252
V4    V     V_3+5 0.703590 0.738100 0.749120 1.411252
O19   O     O_3   0.020490 0.185890 0.245290 -0.368656
O20   O     O_3   0.979510 0.814110 0.754710 -0.368656
C9    C     C_1   0.005128 0.466907 0.466343 -0.196230
C10   C     C_1   0.994872 0.533092 0.533657 -0.196230
C11   C     C_3   0.079092 0.589776 0.033743 -0.142234
C12   C     C_3   0.920908 0.410224 0.966257 -0.142234
C13   C     C_3   0.903993 0.540893 0.076203 -0.142697
C14   C     C_3   0.096007 0.459107 0.923797 -0.142697
H1    H     H_    0.144328 0.664265 0.061090 0.098997
H2    H     H_    0.855672 0.335735 0.938910 0.098997
C15   C     C_3   0.009963 0.438891 0.062733 -0.004420
C16   C     C_3   0.990037 0.561109 0.937267 -0.004421
C17   C     C_3   0.185259 0.486960 0.021075 -0.115503
C18   C     C_3   0.814741 0.513040 0.978925 -0.115503
H3    H     H_    0.338151 0.475971 0.038836 0.106313
H4    H     H_    0.661849 0.524029 0.961164 0.106313
C19   C     C_3   0.319258 0.026027 0.481636 -0.115945
C20   C     C_3   0.680742 0.973973 0.518364 -0.115945
C21   C     C_3   0.398219 0.916598 0.467705 -0.141896
C22   C     C_3   0.601781 0.083402 0.532295 -0.141896
H5    H     H_    0.314289 0.847299 0.441555 0.098565
H6    H     H_    0.685711 0.152701 0.558445 0.098565
H7    H     H_    0.170077 0.047628 0.466226 0.108658
H8    H     H_    0.829923 0.952372 0.533774 0.108658
C23   C     C_3   0.495977 0.938733 0.562732 -0.004355
C24   C     C_3   0.504023 0.061267 0.437268 -0.004354
C25   C     C_3   0.416975 0.047333 0.577473 -0.143081
C26   C     C_3   0.583024 0.952667 0.422527 -0.143081
H9    H     H_    0.348767 0.085939 0.641872 0.098783
H10   H     H_    0.651233 0.914061 0.358128 0.098783
C27   C     C_1   0.504948 0.033100 0.033660 -0.196377
C28   C     C_1   0.495052 0.966900 0.966340 -0.196377
H11   H     H_    0.824968 0.574188 0.139481 0.099499
H12   H     H_    0.175032 0.425812 0.860519 0.099499

loop_
_geom_bond_atom_site_label_1
_geom_bond_atom_site_label_2
_ccdc_geom_bond_type
C20   C23   S    
C6    C16   S    
O4    C2    A    
V1    O19   S    
C19   C21   S    
C7    C9    S    
C20   H8    S    
O9    V1    S    
C11   C13   S    
C14   C16   S    
O3    C1    A    
C25   H9    S    
C26   H10   S    
C4    C28   S    
O13   V3    S    
C11   C16   S    
O7    C3    A    
O5    C7    A    
O7    V1    S    
O6    C8    A    
O8    V2    S    
C21   H5    S    
C22   H6    S    
O3    V1    S    
O14   V4    S    
C11   C17   S    
C19   H7    S    
C20   C22   S    
C8    C10   S    
C2    O12   A    
C15   C17   S    
C12   C15   S    
C16   C18   S    
C1    C24   S    
C2    C23   S    
C13   H11   S    
C18   H4    S    
O11   V3    S    
C14   H12   S    
O17   V3    S    
C12   H2    S    
O8    C4    A    
C1    O11   A    
C21   C23   S    
O15   V3    S    
C22   C24   S    
C21   C26   S    
C11   H1    S    
C19   C25   S    
O10   V2    S    
O1    V3    S    
C9    C10   T    
C17   H3    S    
O18   V4    S    
C23   C25   S    
O16   C6    A    
C12   C18   S    
O1    C3    A    
C12   C14   S    
V2    O20   S    
O16   V4    S    
C22   C25   S    
C20   C26   S    
O5    V1    S    
O17   C7    A    
O6    V2    S    
O10   C6    A    
O18   C8    A    
C5    C15   S    
O2    V4    S    
C13   C18   S    
O15   C5    A    
C14   C17   S    
V3    O19   S    
V4    O20   S    
O9    C5    A    
O13   V1    S    
C24   C26   S    
O14   V2    S    
C13   C15   S    
C27   C28   T    
O2    C4    A    
O4    V2    S    
C3    C27   S    
O12   V4    S    
C19   C24   S    
