data_mof_unit_17428.cif
_audit_creation_date              2012-12-10T17:33:03-0500
_audit_creation_method            fapswitch 2.2
_symmetry_space_group_name_H-M    P1
_symmetry_Int_Tables_number       1
_space_group_crystal_system       triclinic
_cell_length_a                    12.422143
_cell_length_b                    13.262147
_cell_length_c                    14.26662
_cell_angle_alpha                 94.330538
_cell_angle_beta                  107.931352
_cell_angle_gamma                 117.114593
_cell_volume                      1924.68728098

loop_
_atom_site_label
_atom_site_type_symbol
_atom_type_description
_atom_site_fract_x
_atom_site_fract_y
_atom_site_fract_z
_atom_type_partial_charge
C1    C     C_R   0.654822 0.715565 0.515039 0.858718
C2    C     C_R   0.837953 0.484579 0.917274 0.008617
C3    C     C_R   0.791053 0.504015 0.991768 0.035782
C4    C     C_R   0.939836 0.456998 0.942997 0.105160
C5    C     C_R   0.005252 0.464284 0.046287 0.084629
C6    C     C_R   0.953707 0.480970 0.118142 -0.224322
C7    C     C_R   0.847988 0.499369 0.090921 -0.151706
C8    C     C_R   0.976150 0.419576 0.868501 -0.218950
C9    C     C_R   0.079749 0.398477 0.895179 -0.221820
C10   C     C_R   0.154488 0.416853 0.997524 0.137092
C11   C     C_R   0.118403 0.452169 0.073972 0.057205
C12   C     C_R   0.617819 0.516064 0.686818 0.888795
C13   C     C_R   0.264823 0.401057 0.025448 0.144635
C14   C     C_R   0.338941 0.422833 0.128817 -0.146678
C15   C     C_R   0.199064 0.478229 0.176312 -0.247781
C16   C     C_R   0.134981 0.961624 0.367734 -0.182292
C17   C     C_R   0.252434 0.161397 0.468342 -0.081081
C18   C     C_R   0.772586 0.921919 0.622776 0.089703
C19   C     C_R   0.888925 0.029416 0.664580 -0.185591
C20   C     C_R   0.986029 0.058984 0.626213 0.539259
C21   C     C_R   0.963484 0.986957 0.535378 -0.037169
C22   C     C_R   0.845094 0.877229 0.491294 -0.017169
C23   C     C_R   0.345646 0.285126 0.485137 0.794005
C24   C     C_R   0.056168 0.018143 0.488494 0.102972
C25   C     C_R   0.038528 0.934569 0.408502 0.143922
C26   C     C_R   0.920991 0.828535 0.365259 -0.209533
C27   C     C_R   0.822682 0.803871 0.401727 -0.126808
C28   C     C_R   0.160527 0.132638 0.513004 -0.171437
C29   C     C_R   0.243215 0.074458 0.399085 -0.180740
C30   C     C_R   0.753065 0.841434 0.538886 -0.105354
C31   C     C_R   0.258545 0.682472 0.668617 -0.256108
C32   C     C_R   0.653478 0.342662 0.360573 -0.032487
C33   C     C_R   0.730107 0.309344 0.328120 0.566191
C34   C     C_R   0.380220 0.481157 0.312872 0.793940
C35   C     C_R   0.865801 0.368907 0.380389 -0.258880
C36   C     C_R   0.927945 0.463590 0.466607 -0.162398
C37   C     C_R   0.845648 0.496266 0.497384 0.126450
C38   C     C_R   0.068609 0.526940 0.523201 0.001091
C39   C     C_R   0.123670 0.619912 0.609868 0.062580
C40   C     C_R   0.044716 0.651411 0.638250 -0.308642
C41   C     C_R   0.910931 0.593818 0.584171 0.605809
C42   C     C_R   0.158854 0.503058 0.498814 0.055382
C43   C     C_R   0.340587 0.653855 0.641382 0.073375
C44   C     C_R   0.678864 0.517168 0.793228 -0.144704
C45   C     C_R   0.306643 0.461819 0.204178 -0.102932
C46   C     C_R   0.687552 0.527727 0.965780 0.594568
C47   C     C_R   0.630834 0.532779 0.866639 -0.260586
C48   C     C_R   0.783653 0.496436 0.819821 -0.225920
Cu1   Cu    Cu3+1 0.416420 0.526630 0.522910 0.945569
Cu2   Cu    Cu3+1 0.583580 0.473370 0.477090 0.984908
H1    H     H_    0.811932 0.511432 0.148579 0.192817
H2    H     H_    0.313559 0.095773 0.363394 0.159486
H3    H     H_    0.902444 0.766811 0.299790 0.157461
H4    H     H_    0.123597 0.897143 0.308391 0.145253
H5    H     H_    0.166006 0.203455 0.560070 0.223600
H6    H     H_    0.909211 0.088510 0.732660 0.168603
H7    H     H_    0.729076 0.725636 0.358947 0.160913
H8    H     H_    0.444312 0.700290 0.687403 0.123306
H9    H     H_    0.181786 0.514709 0.236310 0.160904
H10   H     H_    0.087795 0.723964 0.704091 0.190728
H11   H     H_    0.300298 0.753013 0.735630 0.149774
H12   H     H_    0.126674 0.434064 0.434130 0.116152
H13   H     H_    0.548355 0.295827 0.319178 0.149039
H14   H     H_    0.919953 0.339020 0.351854 0.162325
H15   H     H_    0.422278 0.409620 0.150568 0.177558
H16   H     H_    0.101605 0.369337 0.834175 0.181082
H17   H     H_    0.549639 0.548890 0.847484 0.179010
H18   H     H_    0.823463 0.492162 0.763472 0.182153
H19   H     H_    0.989944 0.476098 0.195717 0.144063
H20   H     H_    0.923183 0.401421 0.787877 0.146744
N1    N     N_R   0.290690 0.566960 0.557640 -0.184458
N2    N     N_R   0.709100 0.433710 0.442970 -0.225801
O1    O     O_R   0.545970 0.684450 0.528810 -0.589461
O2    O     O_R   0.687130 0.639470 0.490120 -0.513624
O3    O     O_R   0.519670 0.535100 0.660030 -0.599681
O4    O     O_R   0.660830 0.490120 0.621340 -0.519045
O5    O     O_R   0.312870 0.360530 0.509880 -0.585641
O6    O     O_R   0.454030 0.315550 0.471190 -0.588722
O7    O     O_R   0.339170 0.509880 0.378660 -0.588436
O8    O     O_R   0.480330 0.464900 0.339970 -0.596825
C49   C     C_3   0.305032 0.360894 0.947056 -0.753554
H21   H     H_    0.392297 0.352059 0.982879 0.260815
H22   H     H_    0.223761 0.273930 0.896674 0.255666
H23   H     H_    0.329803 0.425359 0.900734 0.240641
C50   C     C_3   0.678118 0.892706 0.675822 -0.797327
H24   H     H_    0.710672 0.967050 0.739429 0.219715
H25   H     H_    0.580666 0.872013 0.621186 0.242112
H26   H     H_    0.670500 0.817674 0.708767 0.235341
F1    F     F_    0.104677 0.153050 0.685207 -0.707293
F2    F     F_    0.672386 0.218563 0.245195 -0.660010
F3    F     F_    0.854453 0.641770 0.622479 -0.658991
F4    F     F_    0.640992 0.545645 0.036135 -0.695661

loop_
_geom_bond_atom_site_label_1
_geom_bond_atom_site_label_2
_ccdc_geom_bond_type
C19   H6    S    
C6    H19   S    
C40   H10   S    
C17   C29   A    
C31   H11   S    
C35   C36   A    
C4    C8    A    
C49   H21   S    
C32   N2    A    
C50   H24   S    
C26   C27   A    
C17   C23   S    
C31   C43   A    
C1    O2    A    
C36   C37   A    
C5    C11   A    
C3    C7    A    
Cu2   O2    S    
C5    C6    A    
C46   F4    S    
C13   C49   S    
C18   C19   A    
Cu2   N2    S    
C9    H16   S    
C42   N1    A    
C43   H8    S    
C34   O8    A    
C11   C15   A    
C19   C20   A    
C31   C39   A    
C8    C9    A    
Cu1   O3    S    
C35   H14   S    
C18   C30   A    
C9    C10   A    
C42   H12   S    
C44   C47   A    
C21   C22   A    
Cu2   O6    S    
C47   H17   S    
C49   H22   S    
C28   H5    S    
C14   C45   A    
C50   H25   S    
C18   C50   S    
C24   C25   A    
C27   H7    S    
C39   C40   A    
C2    C48   A    
C16   C29   A    
C23   O5    A    
Cu1   O7    S    
C2    C4    A    
Cu2   O4    S    
C34   O7    A    
C34   C45   S    
C48   H18   S    
C40   C41   A    
C41   F3    S    
C22   C27   A    
C12   O4    A    
Cu1   O1    S    
C21   C24   A    
C15   C45   A    
C26   H3    S    
C49   H23   S    
C50   H26   S    
C16   C25   A    
C46   C47   A    
C43   N1    A    
C22   C30   A    
C17   C28   A    
C15   H9    S    
C24   C28   A    
C32   H13   S    
C4    C5    A    
C10   C13   A    
Cu2   O8    S    
C38   C42   A    
C6    C7    A    
C20   F1    S    
C3    C46   A    
C8    H20   S    
C1    O1    A    
C32   C33   A    
C36   C38   A    
C2    C3    A    
C25   C26   A    
C7    H1    S    
C12   C44   S    
C33   F2    S    
C38   C39   A    
C1    C30   S    
C33   C35   A    
C14   H15   S    
Cu1   O5    S    
C23   O6    A    
C37   C41   A    
C16   H4    S    
C10   C11   A    
C12   O3    A    
C20   C21   A    
Cu1   Cu2   S    
Cu1   N1    S    
C37   N2    A    
C13   C14   A    
C44   C48   A    
C29   H2    S    
