data_mof_unit_26196.cif
_audit_creation_date              2012-12-11T14:56:40-0500
_audit_creation_method            fapswitch 2.2
_symmetry_space_group_name_H-M    P1
_symmetry_Int_Tables_number       1
_space_group_crystal_system       triclinic
_cell_length_a                    10.617596
_cell_length_b                    10.704289
_cell_length_c                    17.131482
_cell_angle_alpha                 80.531094
_cell_angle_beta                  90.070607
_cell_angle_gamma                 119.95765
_cell_volume                      1656.4609179

loop_
_atom_site_label
_atom_site_type_symbol
_atom_type_description
_atom_site_fract_x
_atom_site_fract_y
_atom_site_fract_z
_atom_type_partial_charge
C1    C     C_R   0.222922 0.854279 0.128712 0.552272
C2    C     C_R   0.799301 0.421439 0.263824 -0.127926
C3    C     C_R   0.789798 0.407654 0.185412 -0.137354
C4    C     C_R   0.653012 0.342722 0.156535 0.025576
C5    C     C_1   0.684654 0.832605 0.201905 -0.031423
C6    C     C_1   0.702308 0.807765 0.270516 -0.032743
C7    C     C_1   0.180345 0.825535 0.211198 -0.044905
C8    C     C_1   0.150693 0.819726 0.279663 -0.042619
C9    C     C_1   0.641251 0.314603 0.777117 -0.062298
C10   C     C_1   0.647783 0.337651 0.706578 -0.040548
C11   C     C_R   0.576556 0.698814 0.801222 0.006368
C12   C     C_R   0.636856 0.279988 0.086253 0.547007
C13   C     C_R   0.567717 0.705929 0.720683 -0.120400
C14   C     C_R   0.672668 0.824883 0.666228 -0.025649
C15   C     C_R   0.792826 0.940141 0.692774 -0.096470
C16   C     C_R   0.802638 0.941142 0.773951 -0.009228
C17   C     C_R   0.685007 0.829120 0.827707 -0.013404
C18   C     C_R   0.238442 0.974217 0.758417 -0.084464
C19   C     C_R   0.238416 0.969797 0.678036 -0.006039
C20   C     C_R   0.187847 0.832802 0.654683 -0.018610
C21   C     C_R   0.177904 0.713869 0.710553 -0.013933
C22   C     C_R   0.182577 0.722490 0.790955 -0.122717
C23   C     C_R   0.643464 0.856119 0.124407 0.551743
C24   C     C_R   0.203823 0.849014 0.815305 -0.015811
C25   C     C_R   0.710378 0.772537 0.353365 0.557101
C26   C     C_R   0.690006 0.397802 0.394132 0.532215
C27   C     C_R   0.103107 0.810257 0.359033 0.538004
C28   C     C_R   0.678899 0.801014 0.585902 0.547201
C29   C     C_R   0.677512 0.380306 0.623798 0.556894
C30   C     C_R   0.106998 0.805927 0.583635 0.529613
C31   C     C_R   0.229254 0.866691 0.897017 0.543577
C32   C     C_R   0.635925 0.279975 0.860115 0.549189
C33   C     C_R   0.647449 0.862118 0.901083 0.523879
C34   C     C_R   0.527445 0.307497 0.204119 -0.125772
C35   C     C_R   0.537371 0.323016 0.282966 -0.136930
C36   C     C_R   0.672407 0.373252 0.313740 0.031364
Cr1   Cr    Cr6+3 0.402240 0.783890 0.019450 1.013218
Cr2   Cr    Cr6+3 0.382360 0.097900 0.991800 1.000176
Cr3   Cr    Cr6+3 0.715380 0.118170 0.988700 1.018374
Cr4   Cr    Cr6+3 0.936650 0.882420 0.465510 1.035817
Cr5   Cr    Cr6+3 0.605770 0.565620 0.493360 1.054256
Cr6   Cr    Cr6+3 0.921340 0.550490 0.496380 1.012698
H1    H     H_    0.420399 0.258139 0.182391 0.145341
H2    H     H_    0.172057 0.631128 0.834430 0.125802
H3    H     H_    0.440042 0.291809 0.320241 0.132594
H4    H     H_    0.906581 0.469391 0.285363 0.146533
H5    H     H_    0.887990 0.438365 0.149053 0.135934
H6    H     H_    0.482505 0.612774 0.699751 0.157264
H7    H     H_    0.881792 0.025425 0.650420 0.187548
H8    H     H_    0.272979 0.078328 0.776358 0.197960
O1    O     O_R   0.521780 0.757110 0.108900 -0.509312
O2    O     O_R   0.513330 0.228330 0.898660 -0.516910
O3    O     O_R   0.739230 0.266130 0.888050 -0.516306
O4    O     O_R   0.712580 0.991850 0.918770 -0.511858
O5    O     O_3   0.499990 0.999980 0.999980 -0.244364
O6    O     O_R   0.083770 0.911170 0.376030 -0.519372
O7    O     O_R   0.808770 0.880340 0.383890 -0.489261
O8    O     O_R   0.584340 0.689460 0.394160 -0.499628
O9    O     O_R   0.614320 0.443940 0.423590 -0.520513
O10   O     O_R   0.805020 0.410040 0.421340 -0.517555
O11   O     O_R   0.049240 0.685450 0.403290 -0.504786
O12   O     O_R   0.275160 0.783810 0.101120 -0.493772
O13   O     O_R   0.077520 0.903010 0.551800 -0.518802
O14   O     O_R   0.802980 0.872780 0.546830 -0.495079
O15   O     O_R   0.578090 0.681300 0.569920 -0.512751
O16   O     O_R   0.608530 0.436370 0.586530 -0.461127
O17   O     O_R   0.798770 0.401880 0.597100 -0.529248
O18   O     O_R   0.043450 0.677890 0.566230 -0.499835
O19   O     O_3   0.821250 0.666180 0.485090 -0.278115
O20   O     O_R   0.237900 0.972600 0.090980 -0.512920
O21   O     O_R   0.511190 0.220540 0.061620 -0.511246
O22   O     O_R   0.736920 0.257720 0.063840 -0.515337
O23   O     O_R   0.710450 0.984050 0.081720 -0.494255
O24   O     O_R   0.524090 0.765520 0.933110 -0.534563
O25   O     O_R   0.277300 0.791600 0.938160 -0.505454
O26   O     O_R   0.240210 0.981010 0.915190 -0.530758
C37   C     C_2   0.292868 0.109109 0.619470 0.257848
H9    H     H_    0.326491 0.115879 0.558379 0.112582
O27   O     O_2   0.301258 0.217717 0.638779 -0.486701
C38   C     C_3   0.168393 0.579384 0.687588 -0.255631
C39   C     C_3   0.023442 0.441588 0.720244 -0.355147
H10   H     H_    0.028375 0.397473 0.782844 0.156730
H11   H     H_    0.935288 0.468078 0.718894 0.177612
H12   H     H_    0.998035 0.356514 0.683895 0.203092
H13   H     H_    0.189144 0.590970 0.622741 0.176868
H14   H     H_    0.257067 0.566549 0.713014 0.130042
C40   C     C_3   0.462032 0.556834 0.857278 -0.272506
C41   C     C_3   0.387649 0.415418 0.823387 -0.430730
H15   H     H_    0.297727 0.408423 0.788335 0.170616
H16   H     H_    0.466232 0.408790 0.785040 0.181416
H17   H     H_    0.337251 0.318994 0.872820 0.174440
H18   H     H_    0.515907 0.536615 0.909641 0.166331
H19   H     H_    0.370661 0.570037 0.877341 0.175867
C42   C     C_2   0.938849 0.052270 0.802112 0.220362
H20   H     H_    0.952772 0.046398 0.865055 0.123477
O28   O     O_2   0.040352 0.148357 0.755156 -0.529717

loop_
_geom_bond_atom_site_label_1
_geom_bond_atom_site_label_2
_ccdc_geom_bond_type
Cr1   O24   S    
Cr2   O20   S    
C19   C20   A    
C40   C41   S    
C1    O12   A    
Cr1   O12   S    
C7    C8    T    
C20   C30   S    
C37   H9    S    
C2    H4    S    
Cr4   O13   S    
C25   O7    A    
C18   C24   A    
Cr3   O4    S    
Cr5   O8    S    
C34   C35   A    
C5    C6    T    
Cr1   O1    S    
C6    C25   S    
Cr2   O2    S    
C15   C16   A    
C18   C19   A    
C19   C37   S    
C32   O2    A    
C38   H14   S    
C27   O11   A    
C9    C32   S    
C29   O17   A    
C23   O1    A    
Cr3   O5    S    
Cr2   O5    S    
C35   C36   A    
C11   C40   S    
C16   C17   A    
Cr4   O6    S    
Cr3   O22   S    
C4    C12   S    
C26   O9    A    
Cr3   O23   S    
C12   O22   A    
C13   C14   A    
Cr6   O18   S    
C17   C33   S    
C23   O23   A    
C30   O13   A    
C39   H11   S    
C39   H10   S    
C37   O27   D    
C4    C34   A    
Cr4   O19   S    
Cr5   O9    S    
Cr6   O10   S    
C27   O6    A    
Cr2   O26   S    
Cr6   O19   S    
C38   H13   S    
C31   O25   A    
C5    C23   S    
C41   H17   S    
C20   C21   A    
C42   O28   D    
Cr6   O11   S    
C28   O14   A    
C26   C36   S    
C12   O21   A    
C41   H16   S    
Cr6   O17   S    
C22   C24   A    
C25   O8    A    
C3    C4    A    
C35   H3    S    
C32   O3    A    
C39   H12   S    
C40   H18   S    
C18   H8    S    
Cr5   O19   S    
C9    C10   T    
C2    C36   A    
C33   O4    A    
Cr2   O21   S    
C11   C17   A    
C22   H2    S    
Cr4   O7    S    
C1    C7    S    
C34   H1    S    
C38   C39   S    
C13   H6    S    
Cr5   O15   S    
Cr5   O16   S    
C16   C42   S    
C1    O20   A    
Cr4   O14   S    
C28   O15   A    
C24   C31   S    
C11   C13   A    
C10   C29   S    
C31   O26   A    
Cr3   O3    S    
C40   H19   S    
C21   C38   S    
C3    H5    S    
C2    C3    A    
C15   H7    S    
Cr1   O25   S    
C42   H20   S    
C29   O16   A    
Cr1   O5    S    
C33   O24   A    
C41   H15   S    
C8    C27   S    
C14   C15   A    
C14   C28   S    
C21   C22   A    
C26   O10   A    
C30   O18   A    
