data_mof_unit_29104.cif
_audit_creation_date              2012-12-11T15:41:10-0500
_audit_creation_method            fapswitch 2.2
_symmetry_space_group_name_H-M    P1
_symmetry_Int_Tables_number       1
_space_group_crystal_system       triclinic
_cell_length_a                    19.017631
_cell_length_b                    11.00145
_cell_length_c                    18.759766
_cell_angle_alpha                 90.012229
_cell_angle_beta                  90.091083
_cell_angle_gamma                 90.168994
_cell_volume                      3924.92456749

loop_
_atom_site_label
_atom_site_type_symbol
_atom_type_description
_atom_site_fract_x
_atom_site_fract_y
_atom_site_fract_z
_atom_type_partial_charge
C1    C     C_R   0.724391 0.962580 0.856308 0.578611
C2    C     C_R   0.292089 0.003593 0.139218 0.571678
C3    C     C_R   0.207924 0.503730 0.860805 0.569721
C4    C     C_R   0.773024 0.456532 0.146576 0.539196
C5    C     C_R   0.799713 0.494269 0.022496 -0.001879
C6    C     C_R   0.274806 0.535253 0.974984 0.004530
C7    C     C_R   0.227504 0.040671 0.024040 0.003151
C8    C     C_R   0.801207 0.963605 0.964644 -0.023251
C9    C     C_R   0.793234 0.469400 0.950664 -0.013339
C10   C     C_R   0.286568 0.511990 0.045694 0.013036
C11   C     C_R   0.216115 0.018071 0.952899 0.005973
C12   C     C_R   0.807284 0.955038 0.038464 0.019863
C13   C     C_R   0.702475 0.321452 0.977820 -0.140871
C14   C     C_R   0.174615 0.414932 0.052695 -0.150306
C15   C     C_R   0.325827 0.914714 0.947372 -0.147974
C16   C     C_R   0.684870 0.897369 0.045923 -0.163431
C17   C     C_R   0.711864 0.342030 0.050737 -0.167100
C18   C     C_R   0.164035 0.435386 0.979558 -0.147181
C19   C     C_R   0.336090 0.934700 0.020595 -0.145791
C20   C     C_R   0.680238 0.898551 0.972481 -0.123533
C21   C     C_3   0.803207 0.628610 0.009115 -0.259646
C22   C     C_3   0.347077 0.579975 0.961194 -0.251138
C23   C     C_3   0.154412 0.080615 0.038053 -0.248482
C24   C     C_3   0.842166 0.079484 0.961655 -0.257360
C25   C     C_3   0.801028 0.599644 0.929838 -0.077325
C26   C     C_3   0.360159 0.560848 0.041346 -0.064997
C27   C     C_3   0.142040 0.063472 0.957727 -0.067019
C28   C     C_3   0.847966 0.071721 0.042167 -0.065921
C29   C     C_R   0.741744 0.388857 0.927860 0.055903
C30   C     C_R   0.240718 0.438624 0.084974 0.021496
C31   C     C_R   0.260228 0.940017 0.914720 0.022988
C32   C     C_R   0.749052 0.922585 0.079825 -0.022618
C33   C     C_R   0.487849 0.167888 0.429705 0.007973
C34   C     C_R   0.494577 0.170842 0.577634 0.028543
C35   C     C_R   0.983591 0.667939 0.431241 0.006543
C36   C     C_R   0.992037 0.670972 0.578955 0.026283
C37   C     C_R   0.486158 0.276243 0.466927 -0.005783
C38   C     C_R   0.488417 0.279075 0.539107 0.086002
C39   C     C_R   0.981810 0.776393 0.468477 -0.001465
C40   C     C_R   0.984396 0.779304 0.540666 0.078969
C41   C     C_R   0.485186 0.059565 0.542218 -0.180373
C42   C     C_R   0.482910 0.058015 0.467764 -0.167646
C43   C     C_R   0.980952 0.559729 0.543866 -0.171527
C44   C     C_R   0.977058 0.558159 0.469413 -0.163323
C45   C     C_R   0.530814 0.177589 0.851433 0.542527
C46   C     C_R   0.471760 0.177464 0.150227 0.565495
C47   C     C_R   0.028710 0.677442 0.850092 0.569228
C48   C     C_R   0.969413 0.677431 0.148714 0.550710
C49   C     C_3   0.530067 0.386505 0.456790 -0.241428
C50   C     C_3   0.534457 0.390663 0.536901 -0.222389
C51   C     C_3   0.024438 0.888233 0.458051 -0.246684
C52   C     C_3   0.028672 0.893125 0.538192 -0.226495
C53   C     C_R   0.762088 0.438724 0.429875 0.024065
C54   C     C_R   0.249314 0.396402 0.581526 0.025039
C55   C     C_R   0.248382 0.911879 0.421510 0.024728
C56   C     C_R   0.750063 0.896300 0.581662 0.023872
C57   C     C_R   0.817131 0.386602 0.468019 -0.028281
C58   C     C_R   0.196920 0.336627 0.542265 -0.027022
C59   C     C_R   0.282385 0.815191 0.454984 -0.040171
C60   C     C_R   0.698991 0.831001 0.543529 -0.026024
C61   C     C_R   0.814595 0.376029 0.540613 -0.007640
C62   C     C_R   0.205861 0.309879 0.471564 0.092432
C63   C     C_R   0.281469 0.805391 0.527809 0.009631
C64   C     C_R   0.707580 0.804743 0.472551 0.078955
C65   C     C_R   0.707415 0.491870 0.543067 -0.135945
C66   C     C_R   0.324339 0.387054 0.477167 -0.147989
C67   C     C_R   0.203670 0.975803 0.537470 -0.143738
C68   C     C_R   0.823465 0.893382 0.475955 -0.145613
C69   C     C_R   0.709035 0.499205 0.468426 0.315642
C70   C     C_R   0.315653 0.412587 0.550127 0.318487
C71   C     C_R   0.202759 0.984475 0.463036 0.316472
C72   C     C_R   0.814970 0.919974 0.548700 0.317385
C73   C     C_3   0.851383 0.266142 0.457854 -0.270797
C74   C     C_3   0.121942 0.372907 0.530964 -0.275926
C75   C     C_3   0.355583 0.765888 0.450527 -0.267720
C76   C     C_3   0.623081 0.861873 0.533018 -0.276948
C77   C     C_3   0.848174 0.252805 0.537927 -0.214963
C78   C     C_3   0.131982 0.344730 0.453069 -0.229791
C79   C     C_3   0.354868 0.758724 0.531161 -0.249939
C80   C     C_3   0.632811 0.835113 0.455016 -0.231138
C81   C     C_R   0.756492 0.418674 0.578802 -0.037574
C82   C     C_R   0.267779 0.340743 0.436677 -0.042883
C83   C     C_R   0.246773 0.889791 0.570736 -0.035993
C84   C     C_R   0.768068 0.840482 0.436694 -0.049912
C85   C     C_R   0.736868 0.359002 0.853904 0.558687
C86   C     C_R   0.260168 0.368737 0.149039 0.556014
C87   C     C_R   0.239952 0.868777 0.851029 0.547036
C88   C     C_R   0.760950 0.867232 0.148832 0.543624
C89   C     C_R   0.728341 0.953158 0.648270 0.577947
C90   C     C_R   0.271583 0.955092 0.352240 0.571109
C91   C     C_R   0.228332 0.452962 0.648378 0.582499
C92   C     C_R   0.773602 0.459652 0.354395 0.556418
C93   C     C_R   0.528860 0.176504 0.645684 0.549424
C94   C     C_R   0.468950 0.175941 0.355975 0.537559
C95   C     C_R   0.028414 0.676523 0.645997 0.547873
C96   C     C_R   0.967754 0.676014 0.356725 0.538702
C97   C     C_R   0.740347 0.363641 0.647176 0.547912
C98   C     C_R   0.273774 0.313655 0.361050 0.574312
C99   C     C_R   0.239245 0.860150 0.645530 0.541741
C100  C     C_R   0.773808 0.813596 0.361028 0.566637
C101  C     C_2   0.502087 0.168646 0.923508 -0.107380
C102  C     C_2   0.508266 0.168133 0.081652 -0.085415
C103  C     C_2   0.993526 0.668624 0.919320 -0.095533
C104  C     C_2   0.999730 0.666601 0.077383 -0.103681
C105  C     C_2   0.502213 0.067903 0.041424 -0.159523
C106  C     C_2   0.513697 0.069461 0.963787 -0.170866
C107  C     C_2   0.985061 0.569054 0.036334 -0.177792
C108  C     C_2   0.998070 0.567709 0.959015 -0.167025
C109  C     C_R   0.759383 0.431620 0.072820 0.047823
C110  C     C_R   0.216715 0.490325 0.937991 0.029034
C111  C     C_R   0.283868 0.991323 0.061744 0.030147
C112  C     C_R   0.737835 0.934255 0.930607 0.028804
Cr1   Cr    Cr6+3 0.769260 0.163750 0.750730 1.062938
Cr2   Cr    Cr6+3 0.230740 0.163750 0.249270 1.054390
Cr3   Cr    Cr6+3 0.269260 0.663750 0.750730 1.055461
Cr4   Cr    Cr6+3 0.730740 0.663750 0.249270 1.065031
Cr5   Cr    Cr6+3 0.612640 0.009910 0.748780 1.010452
Cr6   Cr    Cr6+3 0.387360 0.009910 0.251220 1.008342
Cr7   Cr    Cr6+3 0.112640 0.509910 0.748780 1.018996
Cr8   Cr    Cr6+3 0.887360 0.509910 0.251220 1.031927
Cr9   Cr    Cr6+3 0.614190 0.322400 0.747710 1.050057
Cr10  Cr    Cr6+3 0.385810 0.322400 0.252290 1.048311
Cr11  Cr    Cr6+3 0.114190 0.822400 0.747710 1.059370
Cr12  Cr    Cr6+3 0.885810 0.822400 0.252290 1.049473
H1    H     H_    0.486729 0.982528 0.065501 0.140581
H2    H     H_    0.531199 0.985813 0.939218 0.145523
H3    H     H_    0.961094 0.488289 0.059206 0.175420
H4    H     H_    0.011857 0.481909 0.934532 0.148933
H5    H     H_    0.993776 0.964252 0.434655 0.164728
H6    H     H_    0.082692 0.877570 0.557788 0.154624
H7    H     H_    0.500036 0.463522 0.433612 0.167574
H8    H     H_    0.588263 0.371563 0.556313 0.149749
H9    H     H_    0.580843 0.365436 0.430338 0.180453
H10   H     H_    0.508784 0.471925 0.560421 0.194459
H11   H     H_    0.075456 0.868848 0.431696 0.172402
H12   H     H_    0.001742 0.973339 0.561420 0.202820
H13   H     H_    0.664263 0.533188 0.571711 0.143345
H14   H     H_    0.373459 0.409350 0.451635 0.151107
H15   H     H_    0.170727 0.035628 0.568780 0.145153
H16   H     H_    0.871254 0.920721 0.449489 0.154916
H17   H     H_    0.905939 0.274517 0.437260 0.145762
H18   H     H_    0.113624 0.471254 0.541229 0.151598
H19   H     H_    0.394889 0.831595 0.430400 0.160372
H20   H     H_    0.612742 0.959451 0.543543 0.152192
H21   H     H_    0.817350 0.200056 0.428936 0.142691
H22   H     H_    0.084483 0.310249 0.557897 0.151143
H23   H     H_    0.356992 0.675032 0.424584 0.148769
H24   H     H_    0.587388 0.796596 0.560280 0.151852
H25   H     H_    0.811693 0.179250 0.554655 0.202437
H26   H     H_    0.099368 0.266936 0.434675 0.207448
H27   H     H_    0.357160 0.664733 0.551593 0.222247
H28   H     H_    0.601305 0.756062 0.436677 0.213536
H29   H     H_    0.900890 0.251704 0.563630 0.162232
H30   H     H_    0.129161 0.426870 0.418596 0.134049
H31   H     H_    0.391611 0.823726 0.557232 0.136161
H32   H     H_    0.627946 0.917441 0.420934 0.132207
H33   H     H_    0.530313 0.250240 0.058808 0.117154
H34   H     H_    0.481194 0.250810 0.946945 0.171323
H35   H     H_    0.025087 0.746015 0.054940 0.197025
H36   H     H_    0.972757 0.751213 0.942690 0.143418
H37   H     H_    0.665439 0.252528 0.960318 0.115520
H38   H     H_    0.132938 0.370446 0.082078 0.139370
H39   H     H_    0.367056 0.868823 0.918332 0.134964
H40   H     H_    0.639177 0.868098 0.075882 0.155755
H41   H     H_    0.682004 0.289885 0.089255 0.105138
H42   H     H_    0.116439 0.401696 0.955166 0.129269
H43   H     H_    0.382835 0.898818 0.045382 0.127118
H44   H     H_    0.630343 0.874355 0.948735 0.166061
H45   H     H_    0.151888 0.175978 0.055428 0.133121
H46   H     H_    0.809966 0.157466 0.943828 0.148833
H47   H     H_    0.853665 0.669836 0.026422 0.131465
H48   H     H_    0.347688 0.675915 0.944892 0.133920
H49   H     H_    0.755861 0.675655 0.029661 0.180890
H50   H     H_    0.376683 0.517732 0.925464 0.168654
H51   H     H_    0.125620 0.015445 0.072830 0.174838
H52   H     H_    0.892436 0.069040 0.932484 0.177965
H53   H     H_    0.851790 0.615996 0.902287 0.123428
H54   H     H_    0.366516 0.647866 0.070939 0.121050
H55   H     H_    0.135021 0.151356 0.929264 0.121766
H56   H     H_    0.818947 0.145329 0.070118 0.120528
H57   H     H_    0.487069 0.974431 0.571052 0.124495
H58   H     H_    0.479780 0.972038 0.440189 0.128149
H59   H     H_    0.982532 0.474516 0.572702 0.131165
H60   H     H_    0.971351 0.472053 0.442081 0.140328
O1    O     O_R   0.784290 0.290360 0.830540 -0.532461
O2    O     O_R   0.215710 0.290360 0.169460 -0.540658
O3    O     O_R   0.284290 0.790360 0.830540 -0.541294
O4    O     O_R   0.715710 0.790360 0.169460 -0.518500
O5    O     O_R   0.554690 0.080440 0.673480 -0.514864
O6    O     O_R   0.445310 0.080440 0.326520 -0.512068
O7    O     O_R   0.054690 0.580440 0.673480 -0.514799
O8    O     O_R   0.945310 0.580440 0.326520 -0.510248
O9    O     O_R   0.543980 0.282110 0.666770 -0.508093
O10   O     O_R   0.456020 0.282110 0.333230 -0.525497
O11   O     O_R   0.043980 0.782110 0.666770 -0.511245
O12   O     O_R   0.956020 0.782110 0.333230 -0.524142
O13   O     O_R   0.679070 0.374030 0.674430 -0.513718
O14   O     O_R   0.320930 0.374030 0.325570 -0.516125
O15   O     O_R   0.179070 0.874030 0.674430 -0.515031
O16   O     O_R   0.820930 0.874030 0.325570 -0.514684
O17   O     O_3   0.665360 0.165350 0.749070 -0.275462
O18   O     O_3   0.334640 0.165350 0.250930 -0.299233
O19   O     O_3   0.165360 0.665350 0.749070 -0.284244
O20   O     O_3   0.834640 0.665350 0.250930 -0.288962
O21   O     O_R   0.762610 0.041070 0.825230 -0.501703
O22   O     O_R   0.237390 0.041070 0.174770 -0.502286
O23   O     O_R   0.262610 0.541070 0.825230 -0.494415
O24   O     O_R   0.737390 0.541070 0.174770 -0.498022
O25   O     O_R   0.667390 0.924160 0.829970 -0.520036
O26   O     O_R   0.332610 0.924160 0.170030 -0.517688
O27   O     O_R   0.167390 0.424160 0.829970 -0.517601
O28   O     O_R   0.832610 0.424160 0.170030 -0.497686
O29   O     O_R   0.553980 0.081420 0.821780 -0.503734
O30   O     O_R   0.446020 0.081420 0.178220 -0.518488
O31   O     O_R   0.053980 0.581420 0.821780 -0.518067
O32   O     O_R   0.946020 0.581420 0.178220 -0.497409
O33   O     O_R   0.543210 0.283170 0.826740 -0.497279
O34   O     O_R   0.456790 0.283170 0.173260 -0.475449
O35   O     O_R   0.043210 0.783170 0.826740 -0.476188
O36   O     O_R   0.956790 0.783170 0.173260 -0.474077
O37   O     O_R   0.678350 0.375000 0.822720 -0.474454
O38   O     O_R   0.321650 0.375000 0.177280 -0.468887
O39   O     O_R   0.178350 0.875000 0.822720 -0.472811
O40   O     O_R   0.821650 0.875000 0.177280 -0.479525
O41   O     O_R   0.785060 0.289300 0.670580 -0.505374
O42   O     O_R   0.214940 0.289300 0.329420 -0.484725
O43   O     O_R   0.285060 0.789300 0.670580 -0.505331
O44   O     O_R   0.714940 0.789300 0.329420 -0.489167
O45   O     O_R   0.763330 0.040090 0.676940 -0.444518
O46   O     O_R   0.236670 0.040090 0.323060 -0.441058
O47   O     O_R   0.263330 0.540090 0.676940 -0.443403
O48   O     O_R   0.736670 0.540090 0.323060 -0.449689
O49   O     O_R   0.668160 0.923110 0.670000 -0.534041
O50   O     O_R   0.331840 0.923110 0.330000 -0.531622
O51   O     O_R   0.168160 0.423110 0.670000 -0.528086
O52   O     O_R   0.831840 0.423110 0.330000 -0.527492
F1    F     F_    0.656760 0.558575 0.434118 -0.670216
F2    F     F_    0.370117 0.458205 0.588502 -0.664411
F3    F     F_    0.160411 0.068246 0.432384 -0.661399
F4    F     F_    0.867476 0.976731 0.584745 -0.661339
C113  C     C_2   0.738843 0.646840 0.888329 0.571594
O53   O     O_2   0.679668 0.644227 0.913813 -0.513852
O54   O     O_R   0.749079 0.685507 0.818170 -0.695589
H61   H     H_    0.703303 0.704756 0.792916 0.352828
C114  C     C_2   0.417530 0.471857 0.055688 0.603503
O55   O     O_2   0.411257 0.366157 0.036803 -0.541975
O56   O     O_R   0.479115 0.512896 0.088718 -0.690163
H62   H     H_    0.516747 0.448396 0.092207 0.335571
C115  C     C_2   0.085847 0.973005 0.941344 0.638826
O57   O     O_2   0.090841 0.868467 0.962589 -0.530402
O58   O     O_R   0.026795 0.011333 0.903214 -0.690122
H63   H     H_    0.989077 0.946696 0.899427 0.341859
C116  C     C_2   0.921857 0.055104 0.069412 0.607112
O59   O     O_2   0.957565 0.969578 0.049148 -0.521338
O60   O     O_R   0.949237 0.138348 0.118449 -0.699176
H64   H     H_    0.999320 0.118557 0.132873 0.327447

loop_
_geom_bond_atom_site_label_1
_geom_bond_atom_site_label_2
_ccdc_geom_bond_type
Cr8   O28   S    
C97   O41   A    
C4    C109  S    
C48   O32   A    
C87   O39   A    
C67   C83   A    
C46   O34   A    
Cr3   O23   S    
C14   H38   S    
C45   O33   A    
C41   C42   A    
C14   C18   A    
C35   C39   A    
C66   C82   A    
C34   C93   S    
C53   C69   A    
C33   C94   S    
C49   C50   S    
C75   H19   S    
Cr12  O36   S    
C51   H5    S    
C9    C25   S    
O58   H63   S    
C73   H17   S    
C35   C96   S    
C42   H58   S    
Cr7   O31   S    
C22   H48   S    
C49   H7    S    
C78   H26   S    
C115  O57   D    
C5    C109  A    
Cr1   O45   S    
Cr4   O44   S    
C33   C42   A    
C13   C29   A    
C52   H12   S    
C27   H55   S    
C55   C90   S    
C55   C59   A    
Cr8   O8    S    
C1    C112  S    
C48   O36   A    
C116  O59   D    
C25   H53   S    
C103  H36   S    
C23   H51   S    
Cr5   O49   S    
C92   O48   A    
C3    C110  S    
C89   O49   A    
O54   H61   S    
C48   C104  S    
C91   O51   A    
C65   C69   A    
C37   C49   S    
Cr7   O27   S    
C90   O50   A    
C102  C105  D    
C113  O53   D    
C96   O12   A    
C57   C73   S    
C57   C61   A    
C100  O44   A    
C10   C30   A    
Cr10  O14   S    
C64   C84   A    
Cr11  O35   S    
C69   F1    S    
C77   H29   S    
C39   C51   S    
C15   C19   A    
C65   C81   A    
C47   O35   A    
C73   C77   S    
Cr12  O40   S    
C61   C77   S    
C56   C72   A    
C47   O31   A    
C13   H37   S    
C51   H11   S    
C45   O29   A    
C107  C108  S    
Cr2   O18   S    
C24   H52   S    
C80   H32   S    
C103  C108  D    
C2    O22   A    
Cr1   O17   S    
C30   C86   S    
C24   H46   S    
C44   H60   S    
Cr3   O47   S    
C95   O11   A    
C26   C114  S    
C8    C12   A    
C8    C24   S    
C65   H13   S    
C19   C111  A    
C10   C26   S    
C6    C22   S    
C85   O37   A    
C74   H18   S    
C11   C31   A    
C94   O10   A    
C114  O55   D    
Cr4   O48   S    
Cr3   O19   S    
C25   C113  S    
C64   C80   S    
C41   H57   S    
Cr6   O18   S    
C34   C41   A    
C19   H43   S    
Cr10  O10   S    
Cr5   O17   S    
C91   O47   A    
C46   C102  S    
C102  H33   S    
Cr11  O11   S    
C22   H50   S    
C74   H22   S    
C4    O24   A    
C23   C27   S    
C26   H54   S    
C79   H31   S    
C3    O27   A    
C20   H44   S    
C86   O38   A    
C2    C111  S    
C2    O26   A    
C47   C103  S    
C98   O14   A    
C1    O25   A    
C51   C52   S    
C68   C84   A    
C97   O13   A    
C36   C40   A    
C31   C87   S    
C28   C116  S    
C21   C25   S    
C50   H10   S    
C77   H25   S    
C39   C40   A    
C116  O60   S    
C53   C57   A    
C78   H30   S    
C87   O3    A    
C7    C111  A    
C18   H42   S    
C75   H23   S    
C40   C52   S    
Cr11  O39   S    
C92   O52   A    
C33   C37   A    
C99   O43   A    
Cr2   O22   S    
C73   H21   S    
C68   C72   A    
C113  O54   S    
C71   F3    S    
C6    C110  A    
C7    C11   A    
C43   C44   A    
C94   O6    A    
C6    C10   A    
Cr3   O43   S    
C37   C38   A    
Cr2   O42   S    
Cr3   O3    S    
C72   F4    S    
Cr6   O50   S    
Cr6   O26   S    
Cr1   O41   S    
C23   H45   S    
C54   C70   A    
C11   C27   S    
C16   C20   A    
Cr1   O1    S    
Cr12  O12   S    
C53   C92   S    
C88   O40   A    
Cr7   O19   S    
Cr6   O30   S    
C50   H8    S    
Cr5   O29   S    
C35   C44   A    
C28   H56   S    
Cr9   O13   S    
C106  H2    S    
Cr4   O24   S    
C63   C79   S    
Cr5   O5    S    
C58   C62   A    
C76   H20   S    
Cr7   O51   S    
Cr9   O17   S    
C12   C28   S    
C101  H34   S    
C86   O2    A    
C115  O58   S    
C21   H49   S    
C114  O56   S    
Cr10  O38   S    
Cr8   O20   S    
C82   C98   S    
C68   H16   S    
Cr8   O32   S    
C104  H35   S    
C99   O15   A    
O60   H64   S    
Cr9   O9    S    
C59   C75   S    
C45   C101  S    
C67   H15   S    
C58   C74   S    
C24   C28   S    
C79   H27   S    
C54   C58   A    
Cr11  O15   S    
C101  C106  D    
C80   H28   S    
C49   H9    S    
C52   H6    S    
C56   C89   S    
C21   H47   S    
C93   O5    A    
Cr10  O34   S    
C85   O1    A    
C34   C38   A    
C29   C85   S    
C62   C78   S    
C93   O9    A    
C76   C80   S    
Cr7   O7    S    
C17   C109  A    
Cr2   O46   S    
C84   C100  S    
O56   H62   S    
C15   C31   A    
C38   C50   S    
C95   O7    A    
C16   C32   A    
Cr9   O33   S    
C70   F2    S    
C105  C106  S    
Cr12  O16   S    
C59   C63   A    
Cr2   O2    S    
C83   C99   S    
C105  H1    S    
C107  H3    S    
C60   C64   A    
C3    O23   A    
C96   O8    A    
Cr5   O25   S    
C27   C115  S    
C14   C30   A    
C54   C91   S    
C16   H40   S    
C61   C81   A    
Cr8   O52   S    
C9    C29   A    
Cr6   O6    S    
C36   C95   S    
Cr10  O18   S    
Cr4   O20   S    
C81   C97   S    
C7    C23   S    
C4    O28   A    
C43   H59   S    
C1    O21   A    
Cr4   O4    S    
C8    C112  A    
C60   C76   S    
C67   C71   A    
C104  C107  D    
C62   C82   A    
C55   C71   A    
C100  O16   A    
C66   H14   S    
C13   C17   A    
C56   C60   A    
C88   O4    A    
C5    C21   S    
C66   C70   A    
C76   H24   S    
C46   O30   A    
C18   C110  A    
Cr12  O20   S    
C22   C26   S    
C20   C112  A    
C63   C83   A    
Cr9   O37   S    
C90   O46   A    
C36   C43   A    
C17   H41   S    
C5    C9    A    
C108  H4    S    
Cr11  O19   S    
C89   O45   A    
C75   C79   S    
C15   H39   S    
C12   C32   A    
Cr1   O21   S    
C74   C78   S    
C98   O42   A    
C32   C88   S    
