data_mof_unit_17875.cif
_audit_creation_date              2012-12-10T17:34:57-0500
_audit_creation_method            fapswitch 2.2
_symmetry_space_group_name_H-M    P1
_symmetry_Int_Tables_number       1
_space_group_crystal_system       triclinic
_cell_length_a                    12.253344
_cell_length_b                    12.879911
_cell_length_c                    15.926382
_cell_angle_alpha                 96.350212
_cell_angle_beta                  80.838503
_cell_angle_gamma                 92.452184
_cell_volume                      2465.43199056

loop_
_atom_site_label
_atom_site_type_symbol
_atom_type_description
_atom_site_fract_x
_atom_site_fract_y
_atom_site_fract_z
_atom_type_partial_charge
C1    C     C_R   0.521546 0.698885 0.491635 0.915077
C2    C     C_3   0.386179 0.523189 0.080951 0.177854
C3    C     C_3   0.491172 0.451877 0.083565 0.133095
C4    C     C_3   0.484501 0.333369 0.031409 -0.061307
C5    C     C_3   0.491375 0.357645 0.931956 -0.264420
C6    C     C_1   0.500815 0.451690 0.174187 -0.101451
C7    C     C_1   0.469544 0.489431 0.830154 -0.040018
C8    C     C_1   0.478802 0.495443 0.754028 -0.223752
C9    C     C_R   0.463764 0.187999 0.514318 -0.181219
C10   C     C_R   0.534352 0.807115 0.473230 -0.067607
C11   C     C_R   0.648301 0.961251 0.450232 -0.010525
C12   C     C_R   0.494242 0.500101 0.662907 0.897469
C13   C     C_R   0.638130 0.853442 0.451610 -0.254501
C14   C     C_R   0.440862 0.863916 0.471857 -0.255414
C15   C     C_R   0.447156 0.972579 0.477961 0.047218
C16   C     C_R   0.552554 0.021842 0.476882 0.081779
C17   C     C_R   0.559036 0.127871 0.505574 0.037468
C18   C     C_R   0.356987 0.139473 0.519262 -0.076671
C19   C     C_R   0.349608 0.031152 0.494184 -0.056709
C20   C     C_R   0.968421 0.416081 0.405463 -0.015989
C21   C     C_R   0.850967 0.425198 0.414848 0.049559
C22   C     C_R   0.852063 0.541030 0.539836 0.039922
C23   C     C_R   0.478189 0.300256 0.506972 0.869146
C24   C     C_R   0.970669 0.530653 0.535609 -0.040025
C25   C     C_R   0.029340 0.466205 0.467601 0.005917
C26   C     C_R   0.148374 0.458350 0.460457 0.235535
C27   C     C_R   0.151144 0.583062 0.580803 0.042871
C28   C     C_R   0.033735 0.586777 0.594522 -0.025143
C29   C     C_R   0.503391 0.491648 0.338061 0.892945
C30   C     C_3   0.366252 0.512191 0.985858 -0.226282
C31   C     C_3   0.586795 0.541469 0.945698 0.109545
C32   C     C_3   0.601713 0.513911 0.040199 0.175395
C33   C     C_1   0.506950 0.467263 0.248845 -0.195675
C34   C     C_3   0.475611 0.479012 0.921715 0.065503
H1    H     H_    0.320926 0.437647 0.985811 0.150639
H2    H     H_    0.710318 0.805799 0.432876 0.158999
H3    H     H_    0.362355 0.823453 0.472739 0.177400
H4    H     H_    0.577490 0.349391 0.904912 0.186888
N1    N     N_R   0.207800 0.519340 0.515510 -0.141552
N2    N     N_R   0.792190 0.480660 0.484490 -0.151895
O1    O     O_R   0.421690 0.658830 0.504140 -0.614426
O2    O     O_R   0.609320 0.646410 0.494190 -0.619546
O3    O     O_R   0.406150 0.506210 0.627840 -0.608843
O4    O     O_R   0.593770 0.493790 0.617880 -0.624241
O5    O     O_R   0.390680 0.353590 0.505810 -0.642337
O6    O     O_R   0.578310 0.341170 0.495860 -0.600977
O7    O     O_R   0.406230 0.506210 0.382120 -0.628247
O8    O     O_R   0.593850 0.493790 0.372160 -0.619350
Zn1   Zn    Zn3+2 0.374720 0.508290 0.506640 0.945648
Zn2   Zn    Zn3+2 0.625280 0.491710 0.493360 0.945971
N3    N     N_3   0.411962 0.631503 0.114358 -0.429267
H5    H     H_    0.343628 0.668583 0.151642 0.191689
H6    H     H_    0.444109 0.678222 0.067226 0.210872
N4    N     N_3   0.282343 0.493480 0.135119 -0.476833
H7    H     H_    0.236770 0.429920 0.111214 0.191062
H8    H     H_    0.289335 0.494846 0.199767 0.212729
C35   C     C_R   0.580387 0.261041 0.045295 0.138513
C36   C     C_R   0.658368 0.211679 0.978011 -0.146129
C37   C     C_R   0.724619 0.131649 0.991953 -0.176045
C38   C     C_R   0.712049 0.093732 0.071239 -0.136862
C39   C     C_R   0.638096 0.140225 0.138689 -0.133578
C40   C     C_R   0.577401 0.225278 0.127192 -0.109834
H9    H     H_    0.669453 0.228242 0.912748 0.114378
H10   H     H_    0.782555 0.095372 0.939535 0.123205
H11   H     H_    0.760001 0.028518 0.080392 0.116005
H12   H     H_    0.628672 0.111203 0.200769 0.133339
H13   H     H_    0.520261 0.256046 0.181907 0.134148
N5    N     N_3   0.655495 0.169190 0.540757 -0.430510
H14   H     H_    0.677593 0.113777 0.577869 0.145327
H15   H     H_    0.633209 0.230760 0.588071 0.198187
C41   C     C_R   0.256097 0.199498 0.560344 0.154977
C42   C     C_R   0.160950 0.198246 0.521497 -0.165731
C43   C     C_R   0.066441 0.251026 0.562574 -0.159818
C44   C     C_R   0.067469 0.309771 0.641468 -0.125794
C45   C     C_R   0.162993 0.315876 0.679229 -0.146124
C46   C     C_R   0.256580 0.261421 0.639013 -0.082561
H16   H     H_    0.160799 0.157262 0.458711 0.127640
H17   H     H_    0.993145 0.248471 0.532381 0.137973
H18   H     H_    0.995009 0.352070 0.672514 0.128568
H19   H     H_    0.164736 0.363022 0.739555 0.116390
H20   H     H_    0.330707 0.269967 0.668157 0.139292
C47   C     C_R   0.748890 0.001811 0.398661 0.138609
C48   C     C_R   0.838965 0.046005 0.435687 -0.146635
C49   C     C_R   0.934269 0.078208 0.383658 -0.133866
C50   C     C_R   0.943605 0.060434 0.294922 -0.144355
C51   C     C_R   0.856607 0.011906 0.257614 -0.173655
C52   C     C_R   0.758759 0.984561 0.309079 -0.169958
H21   H     H_    0.837223 0.054243 0.504098 0.118756
H22   H     H_    0.002313 0.114138 0.412002 0.133220
H23   H     H_    0.018311 0.084080 0.255294 0.118615
H24   H     H_    0.864768 0.996379 0.188823 0.119608
H25   H     H_    0.691491 0.947524 0.279225 0.132659
C53   C     C_R   0.243530 0.979953 0.476133 0.103108
C54   C     C_R   0.152565 0.970464 0.540991 -0.172747
C55   C     C_R   0.054354 0.921926 0.521238 -0.168720
C56   C     C_R   0.046508 0.882327 0.436978 -0.093406
C57   C     C_R   0.136357 0.891627 0.372246 -0.136611
C58   C     C_R   0.234419 0.940449 0.391566 -0.182612
H26   H     H_    0.157435 0.001103 0.606418 0.134053
H27   H     H_    0.984590 0.915556 0.571352 0.137840
H28   H     H_    0.970048 0.847235 0.420814 0.126024
H29   H     H_    0.129566 0.862030 0.306929 0.131508
H30   H     H_    0.303413 0.947820 0.340633 0.139333
N6    N     N_3   0.205890 0.386690 0.394108 -0.432222
H31   H     H_    0.168619 0.313050 0.398753 0.163395
H32   H     H_    0.283998 0.373758 0.405833 0.243429
C59   C     C_R   0.271759 0.573497 0.961105 0.128511
C60   C     C_R   0.202202 0.520963 0.906205 -0.184888
C61   C     C_R   0.104299 0.564634 0.893700 -0.162352
C62   C     C_R   0.075655 0.664056 0.932253 -0.106041
C63   C     C_R   0.144701 0.719680 0.983685 -0.154398
C64   C     C_R   0.241018 0.675084 0.998638 -0.144779
H33   H     H_    0.222449 0.444642 0.873897 0.124979
H34   H     H_    0.051436 0.521693 0.852884 0.114877
H35   H     H_    0.000650 0.698431 0.921493 0.112733
H36   H     H_    0.123290 0.797674 0.012624 0.119151
H37   H     H_    0.290183 0.723250 0.038026 0.120054
C65   C     C_R   0.212351 0.657394 0.633385 0.164319
C66   C     C_R   0.237338 0.633824 0.711435 -0.109612
C67   C     C_R   0.289488 0.709232 0.762447 -0.126641
C68   C     C_R   0.316693 0.808025 0.735996 -0.138676
C69   C     C_R   0.288778 0.832283 0.659231 -0.154440
C70   C     C_R   0.233797 0.757964 0.609401 -0.144214
H38   H     H_    0.217547 0.557006 0.731733 0.130685
H39   H     H_    0.307805 0.691351 0.822541 0.150842
H40   H     H_    0.358048 0.866073 0.775053 0.125330
H41   H     H_    0.309880 0.908288 0.638318 0.133562
H42   H     H_    0.208219 0.776965 0.551341 0.143422
N7    N     N_3   0.027219 0.364633 0.327579 -0.468602
H43   H     H_    0.000902 0.286562 0.319552 0.187237
H44   H     H_    0.018213 0.403401 0.275047 0.219514
N8    N     N_3   0.979566 0.646137 0.670138 -0.468412
H45   H     H_    0.002096 0.618027 0.723889 0.176013
H46   H     H_    0.004364 0.724716 0.669088 0.200022
C71   C     C_R   0.803006 0.401480 0.336189 0.209942
C72   C     C_R   0.818066 0.479987 0.280269 -0.118583
C73   C     C_R   0.842709 0.453048 0.192299 -0.221718
C74   C     C_R   0.848697 0.347891 0.159638 -0.122366
C75   C     C_R   0.823132 0.270288 0.214612 -0.140193
C76   C     C_R   0.795221 0.296734 0.302601 -0.190087
H47   H     H_    0.826006 0.561303 0.305120 0.119040
H48   H     H_    0.862600 0.513627 0.149922 0.136838
H49   H     H_    0.872708 0.326540 0.091726 0.147830
H50   H     H_    0.831842 0.189590 0.189369 0.154078
H51   H     H_    0.785710 0.235493 0.344793 0.168006
C77   C     C_R   0.799619 0.634840 0.587889 0.239717
C78   C     C_R   0.814833 0.730264 0.552661 -0.142378
C79   C     C_R   0.772475 0.821864 0.599840 -0.168800
C80   C     C_R   0.713159 0.818048 0.681757 -0.109555
C81   C     C_R   0.700197 0.723291 0.717331 -0.168016
C82   C     C_R   0.746332 0.632919 0.671689 -0.087700
H52   H     H_    0.859110 0.732630 0.488679 0.097991
H53   H     H_    0.784532 0.895488 0.572708 0.125710
H54   H     H_    0.678391 0.888340 0.717872 0.127296
H55   H     H_    0.655543 0.719792 0.780244 0.172547
H56   H     H_    0.742221 0.561012 0.700587 0.120117
N9    N     N_3   0.681121 0.498485 0.882757 -0.481401
H57   H     H_    0.757555 0.530570 0.894120 0.169908
H58   H     H_    0.673776 0.515615 0.821845 0.177639
C83   C     C_R   0.591776 0.662558 0.937412 0.125017
C84   C     C_R   0.504021 0.716118 0.915771 -0.219790
C85   C     C_R   0.507608 0.824301 0.913452 -0.167383
C86   C     C_R   0.602843 0.881984 0.926654 -0.105758
C87   C     C_R   0.695021 0.831153 0.941047 -0.138855
C88   C     C_R   0.690434 0.723056 0.945027 -0.157877
H59   H     H_    0.432851 0.675369 0.899285 0.152270
H60   H     H_    0.436841 0.863198 0.900021 0.126093
H61   H     H_    0.605871 0.965379 0.923122 0.136978
H62   H     H_    0.770737 0.875258 0.948350 0.116843
H63   H     H_    0.765798 0.688051 0.953599 0.101002
N10   N     N_3   0.626267 0.610872 0.095135 -0.445111
H64   H     H_    0.706835 0.637892 0.076780 0.158212
H65   H     H_    0.629920 0.596885 0.157728 0.196541
N11   N     N_3   0.696931 0.445703 0.033112 -0.461636
H66   H     H_    0.697617 0.421098 0.092840 0.211805
H67   H     H_    0.771930 0.486707 0.019335 0.162516
C89   C     C_R   0.433956 0.279198 0.870468 0.146558
C90   C     C_R   0.318066 0.260182 0.880301 -0.143383
C91   C     C_R   0.272431 0.179788 0.829504 -0.156248
C92   C     C_R   0.340246 0.118435 0.766548 -0.133591
C93   C     C_R   0.453710 0.139451 0.751894 -0.168406
C94   C     C_R   0.500122 0.219648 0.802520 -0.192069
H68   H     H_    0.261813 0.298346 0.932021 0.117264
H69   H     H_    0.184120 0.163878 0.840034 0.132986
H70   H     H_    0.303963 0.056985 0.727442 0.124234
H71   H     H_    0.505851 0.093301 0.701394 0.134647
H72   H     H_    0.588623 0.233343 0.789334 0.112800
C95   C     C_R   0.382454 0.259659 0.061454 0.095999
C96   C     C_R   0.374912 0.157581 0.017217 -0.091057
C97   C     C_R   0.293878 0.083919 0.044309 -0.144052
C98   C     C_R   0.223103 0.105263 0.120861 -0.127289
C99   C     C_R   0.237324 0.198049 0.171984 -0.136459
C100  C     C_R   0.318774 0.271601 0.144383 -0.202224
H73   H     H_    0.434860 0.132339 0.962149 0.143416
H74   H     H_    0.288715 0.008708 0.007154 0.121397
H75   H     H_    0.161855 0.047174 0.142530 0.112083
H76   H     H_    0.188531 0.211192 0.234921 0.134202
H77   H     H_    0.334516 0.333513 0.191617 0.149964

loop_
_geom_bond_atom_site_label_1
_geom_bond_atom_site_label_2
_ccdc_geom_bond_type
C85   H60   S    
N10   H64   S    
C45   C46   A    
C53   C54   A    
C23   O5    A    
C30   C59   S    
C59   C64   A    
C55   C56   A    
C20   N7    S    
C73   H48   S    
C3    C6    S    
N6    H32   S    
C57   C58   A    
C35   C36   A    
C74   C75   A    
C80   C81   A    
C7    C8    T    
O7    Zn1   S    
C66   H38   S    
C92   C93   A    
C15   C19   A    
N10   H65   S    
C37   H10   S    
N9    H57   S    
C40   H13   S    
C29   O7    A    
C87   C88   A    
C74   H49   S    
C77   C78   A    
C12   O3    A    
C78   H52   S    
C51   H24   S    
C64   H37   S    
N11   H66   S    
C26   N1    A    
C20   C25   A    
O4    Zn2   S    
C100  H77   S    
C29   C33   S    
C18   C41   S    
C60   C61   A    
C18   C19   A    
C43   C44   A    
C69   H41   S    
C98   H75   S    
C26   N6    S    
C65   C66   A    
C86   C87   A    
C96   H73   S    
C78   C79   A    
C27   N1    A    
N8    H45   S    
C4    C35   S    
C43   H17   S    
C63   H36   S    
C24   C28   A    
C45   H19   S    
C57   H29   S    
C19   C53   S    
C8    C12   S    
C94   H72   S    
O8    Zn2   S    
C48   H21   S    
C37   C38   A    
N9    H58   S    
C23   O6    A    
C5    H4    S    
C5    C34   S    
C88   H63   S    
C87   H62   S    
C3    C32   S    
C38   C39   A    
C39   H12   S    
O1    Zn1   S    
N6    H31   S    
C90   C91   A    
C11   C47   S    
C71   C76   A    
C75   C76   A    
N4    H8    S    
C44   C45   A    
C30   C34   S    
C29   O8    A    
N3    H5    S    
C22   C77   S    
C71   C72   A    
C56   H28   S    
C24   C25   A    
C13   H2    S    
C2    N4    S    
C62   C63   A    
C55   H27   S    
O3    Zn1   S    
C35   C40   A    
C25   C26   A    
C50   C51   A    
C32   N11   S    
C96   C97   A    
C98   C99   A    
C68   H40   S    
C95   C96   A    
N3    H6    S    
C60   H33   S    
C93   C94   A    
C90   H68   S    
C80   H54   S    
C97   C98   A    
C42   H16   S    
C75   H50   S    
C9    C18   A    
C48   C49   A    
C14   C15   A    
O5    Zn1   S    
C93   H71   S    
C22   N2    A    
C56   C57   A    
C47   C52   A    
C31   C34   S    
C54   C55   A    
C99   H76   S    
C49   C50   A    
C66   C67   A    
C65   C70   A    
C89   C94   A    
C5    C89   S    
C68   C69   A    
C31   N9    S    
C61   H34   S    
O2    Zn2   S    
C97   H74   S    
C9    C17   A    
N1    Zn1   S    
C32   N10   S    
C38   H11   S    
C89   C90   A    
C81   H55   S    
C10   C14   A    
C7    C34   S    
C22   C24   A    
C49   H22   S    
C59   C60   A    
C3    C4    S    
C41   C46   A    
C67   C68   A    
C51   C52   A    
C91   H69   S    
C27   C65   S    
C1    O1    A    
C36   H9    S    
N4    H7    S    
C17   N5    S    
C63   C64   A    
C67   H39   S    
N5    H14   S    
C31   C32   S    
C9    C23   S    
C1    C10   S    
C31   C83   S    
C42   C43   A    
C10   C13   A    
C76   H51   S    
C95   C100  A    
C50   H23   S    
C91   C92   A    
C85   C86   A    
C30   H1    S    
C73   C74   A    
O6    Zn2   S    
N7    H43   S    
C46   H20   S    
C6    C33   T    
C2    C30   S    
C44   H18   S    
C83   C84   A    
C4    C95   S    
C83   C88   A    
C2    C3    S    
C36   C37   A    
C41   C42   A    
C12   O4    A    
C58   H30   S    
C84   C85   A    
C61   C62   A    
C99   C100  A    
C14   H3    S    
C11   C13   A    
C70   H42   S    
C16   C17   A    
C21   N2    A    
C54   H26   S    
N2    Zn2   S    
C62   H35   S    
C72   H47   S    
C86   H61   S    
C79   C80   A    
C39   C40   A    
N11   H67   S    
C11   C16   A    
C2    N3    S    
C84   H59   S    
C77   C82   A    
C82   H56   S    
C1    O2    A    
C4    C5    S    
C20   C21   A    
N8    H46   S    
C47   C48   A    
C79   H53   S    
C92   H70   S    
C27   C28   A    
N5    H15   S    
C81   C82   A    
C72   C73   A    
C28   N8    S    
C69   C70   A    
C52   H25   S    
C53   C58   A    
C21   C71   S    
C15   C16   A    
N7    H44   S    
