data_mof_unit_20979.cif
_audit_creation_date              2012-12-10T20:38:25-0500
_audit_creation_method            fapswitch 2.2
_symmetry_space_group_name_H-M    P1
_symmetry_Int_Tables_number       1
_space_group_crystal_system       triclinic
_cell_length_a                    9.855764
_cell_length_b                    10.716813
_cell_length_c                    16.576491
_cell_angle_alpha                 90.41853
_cell_angle_beta                  84.683188
_cell_angle_gamma                 89.098176
_cell_volume                      1743.03202561

loop_
_atom_site_label
_atom_site_type_symbol
_atom_type_description
_atom_site_fract_x
_atom_site_fract_y
_atom_site_fract_z
_atom_type_partial_charge
C1    C     C_R   0.499881 0.740317 0.497568 0.885884
C2    C     C_R   0.532904 0.471726 0.259214 -0.027869
C3    C     C_R   0.386288 0.939008 0.470437 -0.021036
C4    C     C_R   0.480798 0.489460 0.653346 0.970219
C5    C     C_R   0.503615 0.871847 0.484586 -0.045141
C6    C     C_R   0.628812 0.933696 0.482033 -0.225797
C7    C     C_R   0.630063 0.062711 0.481976 -0.194341
C8    C     C_R   0.506119 0.128985 0.484137 -0.099154
C9    C     C_R   0.387746 0.066534 0.470395 -0.029476
C10   C     C_3   0.244252 0.077767 0.510459 1.030821
C11   C     C_3   0.244237 0.935431 0.510491 -0.609584
C12   C     C_R   0.349728 0.459498 0.788593 0.477436
C13   C     C_R   0.917373 0.543928 0.565646 0.190761
C14   C     C_R   0.938554 0.446128 0.438421 -0.143576
C15   C     C_R   0.082540 0.446491 0.438303 -0.065270
C16   C     C_R   0.501498 0.260057 0.497348 0.908493
C17   C     C_R   0.060202 0.544103 0.565634 0.128653
C18   C     C_3   0.056138 0.674626 0.597231 -0.586465
C19   C     C_3   0.901978 0.672994 0.598858 0.321855
C20   C     C_R   0.519571 0.497055 0.346133 0.838627
C21   C     C_R   0.469275 0.439219 0.735941 -0.265515
C22   C     C_R   0.573296 0.357758 0.759259 0.473170
C23   C     C_R   0.423930 0.432887 0.137294 -0.152332
C24   C     C_R   0.559671 0.304527 0.836299 -0.270382
C25   C     C_R   0.448314 0.335980 0.891004 0.059355
C26   C     C_R   0.343012 0.411150 0.866980 -0.277992
C27   C     C_3   0.806148 0.348287 0.732772 -0.289370
C28   C     C_3   0.109540 0.133739 0.628603 -0.268207
C29   C     C_3   0.175019 0.127559 0.379556 -0.410064
C30   C     C_3   0.801341 0.795956 0.702468 -0.297083
C31   C     C_3   0.127816 0.463892 0.761029 -0.315756
C32   C     C_R   0.416663 0.475203 0.216738 -0.222146
C33   C     C_R   0.657967 0.429441 0.220238 -0.198593
C34   C     C_R   0.665101 0.386547 0.140519 -0.180512
C35   C     C_R   0.547501 0.384811 0.099351 0.200283
C36   C     C_2   0.450672 0.310403 0.977083 -0.174066
C37   C     C_2   0.559052 0.346254 0.014003 -0.236224
H1    H     H_    0.761958 0.353361 0.111247 0.122755
H2    H     H_    0.101483 0.737888 0.550774 0.177597
H3    H     H_    0.858091 0.738390 0.555820 0.085059
H4    H     H_    0.749141 0.425660 0.251996 0.144711
H5    H     H_    0.654844 0.365125 0.978513 0.150828
H6    H     H_    0.258213 0.437339 0.910475 0.152967
H7    H     H_    0.332948 0.440266 0.105722 0.122514
H8    H     H_    0.354342 0.291839 0.011801 0.141618
H9    H     H_    0.637501 0.241171 0.854666 0.154122
H10   H     H_    0.836199 0.274819 0.774829 0.132645
H11   H     H_    0.805461 0.442042 0.762356 0.184923
H12   H     H_    0.724275 0.883877 0.485932 0.157176
H13   H     H_    0.885310 0.348801 0.680825 0.172166
H14   H     H_    0.057206 0.042877 0.624993 0.147139
H15   H     H_    0.048594 0.209220 0.602864 0.198244
H16   H     H_    0.115254 0.155811 0.693663 0.157905
H17   H     H_    0.195919 0.030126 0.358083 0.169038
H18   H     H_    0.262069 0.188463 0.360113 0.178504
H19   H     H_    0.085488 0.162644 0.350111 0.193382
H20   H     H_    0.722423 0.835231 0.665527 0.170291
H21   H     H_    0.892387 0.856592 0.698796 0.156459
H22   H     H_    0.757451 0.795372 0.766542 0.190944
H23   H     H_    0.725908 0.109334 0.486323 0.183581
H24   H     H_    0.094494 0.416607 0.818804 0.137859
H25   H     H_    0.144260 0.394277 0.710842 0.178432
H26   H     H_    0.042396 0.526505 0.748031 0.208289
H27   H     H_    0.241779 0.895260 0.572263 0.202291
H28   H     H_    0.172462 0.894876 0.470008 0.181941
H29   H     H_    0.892818 0.404570 0.388039 0.140665
H30   H     H_    0.145308 0.405742 0.387659 0.142978
H31   H     H_    0.095541 0.684031 0.657490 0.251690
H32   H     H_    0.319441 0.508785 0.245267 0.148934
N1    N     N_R   0.857140 0.500860 0.500530 -0.134954
N2    N     N_R   0.142780 0.500820 0.500530 -0.098105
O1    O     O_R   0.385310 0.683210 0.499990 -0.606085
O2    O     O_3   0.243175 0.129414 0.589624 -0.622675
O3    O     O_3   0.143827 0.134530 0.464501 -0.623310
O4    O     O_3   0.836504 0.672437 0.678280 -0.592464
O5    O     O_3   0.245455 0.536078 0.766222 -0.593395
O6    O     O_R   0.614650 0.683240 0.500000 -0.639658
O7    O     O_R   0.371780 0.500000 0.615800 -0.579143
O8    O     O_R   0.601120 0.500040 0.615800 -0.547317
O9    O     O_R   0.385350 0.316760 0.500000 -0.586686
O10   O     O_R   0.614690 0.316790 0.500010 -0.612094
O11   O     O_R   0.398880 0.499960 0.384200 -0.633393
O12   O     O_R   0.628220 0.500000 0.384200 -0.629084
O13   O     O_3   0.680094 0.320818 0.703253 -0.574997
Zn1   Zn    Zn3+2 0.346870 0.499980 0.499990 0.978803
Zn2   Zn    Zn3+2 0.653130 0.500020 0.500010 0.977303

loop_
_geom_bond_atom_site_label_1
_geom_bond_atom_site_label_2
_ccdc_geom_bond_type
C27   H11   S    
C30   O4    S    
C20   O11   A    
C1    O6    A    
C31   H24   S    
O1    Zn1   S    
C7    C8    A    
C1    C5    S    
C36   C37   D    
C35   C37   S    
C18   C19   S    
C5    C6    A    
C28   H14   S    
C29   H17   S    
C18   H31   S    
C30   H20   S    
C2    C32   A    
C34   C35   A    
C37   H5    S    
N2    Zn1   S    
C8    C9    A    
C9    C10   S    
O10   Zn2   S    
C27   H13   S    
C8    C16   S    
C21   C22   A    
C14   N1    A    
C31   H25   S    
C28   O2    S    
C26   H6    S    
C17   C18   S    
C1    O1    A    
C13   C19   S    
C2    C20   S    
C31   H26   S    
C24   C25   A    
C4    O8    A    
C11   H27   S    
C10   C11   S    
C29   O3    S    
C29   H18   S    
C25   C26   A    
C12   C21   A    
C23   H7    S    
C12   C26   A    
C16   O9    A    
C22   O13   S    
C18   H2    S    
C4    O7    A    
O9    Zn1   S    
C3    C9    A    
C15   H30   S    
C30   H22   S    
C33   C34   A    
C14   H29   S    
C36   H8    S    
C32   H32   S    
C2    C33   A    
O6    Zn2   S    
C17   N2    A    
C23   C35   A    
C12   O5    S    
C22   C24   A    
N1    Zn2   S    
C7    H23   S    
O7    Zn1   S    
C27   H10   S    
C27   O13   S    
C34   H1    S    
C3    C5    A    
C28   H16   S    
C6    C7    A    
C28   H15   S    
C29   H19   S    
O11   Zn1   S    
C15   N2    A    
C13   C17   A    
C33   H4    S    
C23   C32   A    
C19   O4    S    
C24   H9    S    
C4    C21   S    
C10   O3    S    
C31   O5    S    
C30   H21   S    
C16   O10   A    
C10   O2    S    
C6    H12   S    
C3    C11   S    
C19   H3    S    
C25   C36   S    
O12   Zn2   S    
C13   N1    A    
C20   O12   A    
C14   C15   A    
O8    Zn2   S    
C11   H28   S    
