data_mof_unit_16710.cif
_audit_creation_date              2013-03-05T15:44:23-0500
_audit_creation_method            fapswitch 2.2
_symmetry_space_group_name_H-M    P1
_symmetry_Int_Tables_number       1
_space_group_crystal_system       triclinic
_cell_length_a                    18.927028
_cell_length_b                    10.95999
_cell_length_c                    18.653423
_cell_angle_alpha                 90.112503
_cell_angle_beta                  90.315082
_cell_angle_gamma                 89.76801
_cell_volume                      3869.36925031

loop_
_atom_site_label
_atom_site_type_symbol
_atom_site_description
_atom_site_fract_x
_atom_site_fract_y
_atom_site_fract_z
_atom_type_partial_charge
O1    O     O_R   0.784320 0.290430 0.830510 -0.480265
O2    O     O_R   0.215680 0.290430 0.169490 -0.508317
O3    O     O_R   0.284320 0.790430 0.830510 -0.482935
O4    O     O_R   0.715680 0.790430 0.169490 -0.510795
O5    O     O_R   0.762640 0.040960 0.825200 -0.489986
O6    O     O_R   0.237360 0.040960 0.174800 -0.466565
O7    O     O_R   0.262640 0.540960 0.825200 -0.493907
O8    O     O_R   0.737360 0.540960 0.174800 -0.465880
C1    C     C_R   0.728876 0.950373 0.851549 0.587023
C2    C     C_R   0.270564 0.949203 0.148737 0.599528
C3    C     C_R   0.228750 0.450442 0.851639 0.583649
C4    C     C_R   0.770556 0.449130 0.148771 0.589212
O9    O     O_R   0.667400 0.923970 0.829950 -0.483799
O10   O     O_R   0.332600 0.923970 0.170050 -0.481264
O11   O     O_R   0.167400 0.423970 0.829950 -0.485833
O12   O     O_R   0.832600 0.423970 0.170050 -0.480071
O13   O     O_R   0.553960 0.081340 0.821780 -0.502185
O14   O     O_R   0.446040 0.081340 0.178220 -0.500105
O15   O     O_R   0.053960 0.581340 0.821780 -0.501031
O16   O     O_R   0.946040 0.581340 0.178220 -0.499070
C5    C     C_R   0.529678 0.177777 0.850735 0.563278
C6    C     C_R   0.470605 0.177341 0.149454 0.570923
C7    C     C_R   0.029727 0.677748 0.850770 0.564794
C8    C     C_R   0.970638 0.677339 0.149476 0.569418
O17   O     O_R   0.543180 0.283240 0.826740 -0.493955
O18   O     O_R   0.456820 0.283240 0.173260 -0.482479
O19   O     O_R   0.043180 0.783240 0.826740 -0.497455
O20   O     O_R   0.956820 0.783240 0.173260 -0.496918
O21   O     O_R   0.678360 0.375140 0.822710 -0.461199
O22   O     O_R   0.321640 0.375140 0.177290 -0.497362
O23   O     O_R   0.178360 0.875140 0.822710 -0.484077
O24   O     O_R   0.821640 0.875140 0.177290 -0.476131
C9    C     C_R   0.723745 0.311678 0.860173 0.555278
C10   C     C_R   0.262406 0.361110 0.145544 0.577333
C11   C     C_R   0.223722 0.811677 0.860144 0.556913
C12   C     C_R   0.762559 0.860671 0.145383 0.579990
O25   O     O_R   0.785050 0.289380 0.670560 -0.503314
O26   O     O_R   0.214950 0.289380 0.329440 -0.502799
O27   O     O_R   0.285050 0.789380 0.670560 -0.492136
O28   O     O_R   0.714950 0.789380 0.329440 -0.503344
O29   O     O_R   0.763320 0.039990 0.676930 -0.462937
O30   O     O_R   0.236680 0.039990 0.323070 -0.467463
O31   O     O_R   0.263320 0.539990 0.676930 -0.482631
O32   O     O_R   0.736680 0.539990 0.323070 -0.464051
C13   C     C_R   0.709315 0.001510 0.639594 0.567848
C14   C     C_R   0.290726 0.002278 0.360457 0.565071
C15   C     C_R   0.225477 0.461240 0.644329 0.603136
C16   C     C_R   0.790806 0.502447 0.360456 0.563903
O33   O     O_R   0.668130 0.922920 0.670000 -0.455809
O34   O     O_R   0.331870 0.922920 0.330000 -0.451368
O35   O     O_R   0.168130 0.422920 0.670000 -0.487937
O36   O     O_R   0.831870 0.422920 0.330000 -0.450222
O37   O     O_R   0.554640 0.080370 0.673500 -0.532189
O38   O     O_R   0.445360 0.080370 0.326500 -0.528945
O39   O     O_R   0.054640 0.580370 0.673500 -0.515331
O40   O     O_R   0.945360 0.580370 0.326500 -0.531211
C17   C     C_R   0.527396 0.176265 0.645915 0.579733
C18   C     C_R   0.471675 0.176657 0.354960 0.560392
C19   C     C_R   0.027371 0.675986 0.646050 0.590039
C20   C     C_R   0.971323 0.676738 0.355209 0.556714
O41   O     O_R   0.543920 0.282180 0.666790 -0.470551
O42   O     O_R   0.456080 0.282180 0.333210 -0.479979
O43   O     O_R   0.043920 0.782180 0.666790 -0.468934
O44   O     O_R   0.956080 0.782180 0.333210 -0.483138
O45   O     O_R   0.679040 0.374160 0.674430 -0.449377
O46   O     O_R   0.320960 0.374160 0.325570 -0.456199
O47   O     O_R   0.179040 0.874160 0.674430 -0.446607
O48   O     O_R   0.820960 0.874160 0.325570 -0.447921
C21   C     C_R   0.741888 0.369501 0.648992 0.586907
C22   C     C_R   0.258095 0.368787 0.350966 0.584552
C23   C     C_R   0.241774 0.869340 0.648950 0.596546
C24   C     C_R   0.757778 0.869580 0.350816 0.577005
Cr1   Cr    Cr6+3 0.769270 0.163730 0.750710 1.102775
Cr2   Cr    Cr6+3 0.230730 0.163730 0.249290 1.092426
Cr3   Cr    Cr6+3 0.269270 0.663730 0.750710 1.101850
Cr4   Cr    Cr6+3 0.730730 0.663730 0.249290 1.107320
Cr5   Cr    Cr6+3 0.612620 0.009790 0.748780 1.073631
Cr6   Cr    Cr6+3 0.387380 0.009790 0.251220 1.074567
Cr7   Cr    Cr6+3 0.112620 0.509790 0.748780 1.074798
Cr8   Cr    Cr6+3 0.887380 0.509790 0.251220 1.079260
Cr9   Cr    Cr6+3 0.614160 0.322500 0.747710 1.135122
Cr10  Cr    Cr6+3 0.385840 0.322500 0.252290 1.106804
Cr11  Cr    Cr6+3 0.114160 0.822500 0.747710 1.122012
Cr12  Cr    Cr6+3 0.885840 0.822500 0.252290 1.116267
O49   O     O_3   0.665350 0.165340 0.749070 -0.343140
O50   O     O_3   0.334650 0.165340 0.250930 -0.315801
O51   O     O_3   0.165350 0.665340 0.749070 -0.321151
O52   O     O_3   0.834650 0.665340 0.250930 -0.318719
C25   C     C_2   0.497305 0.168523 0.921184 -0.102296
C26   C     C_2   0.503731 0.167367 0.079375 -0.105046
C27   C     C_2   0.997453 0.668331 0.921266 -0.099361
C28   C     C_2   0.003894 0.667366 0.079457 -0.105504
C29   C     C_2   0.492626 0.068400 0.038337 -0.152143
C30   C     C_2   0.508174 0.068875 0.961598 -0.155330
C31   C     C_2   0.992995 0.568286 0.038457 -0.153318
C32   C     C_2   0.008609 0.568752 0.961728 -0.151687
H1    H     H_    0.470014 0.985822 0.060546 0.192888
H2    H     H_    0.530166 0.986136 0.938638 0.205010
H3    H     H_    0.970467 0.485647 0.060676 0.196243
H4    H     H_    0.030851 0.486019 0.938872 0.200939
H5    H     H_    0.528194 0.248349 0.057100 0.131665
H6    H     H_    0.473515 0.249964 0.944108 0.140323
H7    H     H_    0.028303 0.748409 0.057185 0.130706
H8    H     H_    0.973430 0.749644 0.944144 0.137462
C33   C     C_R   0.674985 0.400846 0.973877 -0.132438
C34   C     C_R   0.314586 0.431889 0.030952 -0.140726
C35   C     C_R   0.175470 0.902634 0.973486 -0.137974
C36   C     C_R   0.814836 0.932586 0.030857 -0.140947
H9    H     H_    0.629527 0.435238 0.944563 0.187331
H10   H     H_    0.363069 0.454435 0.058992 0.203041
H11   H     H_    0.130388 0.938185 0.944042 0.173083
H12   H     H_    0.862943 0.956903 0.059040 0.196036
C37   C     C_R   0.681409 0.423678 0.047743 0.006357
C38   C     C_R   0.312904 0.432996 0.955819 -0.006218
C39   C     C_R   0.181966 0.925802 0.047313 0.008221
C40   C     C_R   0.813262 0.934243 0.955702 -0.009495
C41   C     C_R   0.743361 0.383651 0.084336 -0.013510
C42   C     C_R   0.250201 0.395908 0.920429 -0.002199
C43   C     C_R   0.243311 0.884069 0.084227 -0.004172
C44   C     C_R   0.750885 0.895631 0.920123 -0.008646
C45   C     C_R   0.787169 0.295211 0.050631 0.022560
C46   C     C_R   0.197140 0.335318 0.959845 0.010504
C47   C     C_R   0.286643 0.794653 0.050757 0.023906
C48   C     C_R   0.698403 0.833278 0.959379 0.012442
C49   C     C_R   0.779546 0.273884 0.977568 -0.139660
C50   C     C_R   0.196557 0.347588 0.033369 -0.145981
C51   C     C_R   0.278841 0.772954 0.977660 -0.144457
C52   C     C_R   0.697717 0.844476 0.032826 -0.143475
H13   H     H_    0.815259 0.210651 0.951350 0.185554
H14   H     H_    0.152653 0.308485 0.062365 0.199591
H15   H     H_    0.313951 0.708574 0.951536 0.177711
H16   H     H_    0.654007 0.804078 0.061528 0.199906
C53   C     C_R   0.726639 0.332560 0.937919 -0.036284
C54   C     C_R   0.255540 0.393334 0.069936 -0.025704
C55   C     C_R   0.226558 0.832755 0.937820 -0.033076
C56   C     C_R   0.756061 0.891968 0.069616 -0.025370
C57   C     C_R   0.483676 0.279322 0.538371 0.009245
C58   C     C_R   0.503076 0.282056 0.466470 0.016536
C59   C     C_R   0.980096 0.777026 0.539637 0.005726
C60   C     C_R   0.999036 0.782058 0.467686 0.019459
C61   C     C_R   0.499750 0.171723 0.427355 -0.009178
C62   C     C_R   0.495462 0.168953 0.575308 0.003237
C63   C     C_R   0.998342 0.672141 0.427981 -0.009891
C64   C     C_R   0.995072 0.667180 0.575823 0.001721
C65   C     C_R   0.498473 0.060776 0.463573 -0.167785
C66   C     C_R   0.502562 0.059834 0.537268 -0.166057
C67   C     C_R   0.999582 0.560599 0.463566 -0.161287
C68   C     C_R   0.004818 0.558884 0.537168 -0.153387
H17   H     H_    0.493893 0.975664 0.435030 0.188321
H18   H     H_    0.512802 0.974837 0.564392 0.188680
H19   H     H_    0.996457 0.475684 0.434665 0.188469
H20   H     H_    0.018143 0.474032 0.563481 0.193962
C69   C     C_R   0.827994 0.412829 0.550971 0.011046
C70   C     C_R   0.179285 0.386961 0.455488 -0.010355
C71   C     C_R   0.327524 0.912718 0.550932 0.015629
C72   C     C_R   0.672659 0.904273 0.450568 0.004647
C73   C     C_R   0.834716 0.431291 0.477631 -0.126032
C74   C     C_R   0.181685 0.383287 0.529529 -0.148934
C75   C     C_R   0.334267 0.930594 0.477577 -0.123198
C76   C     C_R   0.667376 0.920753 0.524029 -0.135409
H21   H     H_    0.882779 0.402922 0.451242 0.194018
H22   H     H_    0.137615 0.342774 0.557480 0.219956
H23   H     H_    0.382222 0.901575 0.451261 0.193046
H24   H     H_    0.621606 0.885368 0.551405 0.197732
C77   C     C_R   0.780948 0.487030 0.438026 -0.043612
C78   C     C_R   0.236045 0.441181 0.567572 -0.031941
C79   C     C_R   0.280582 0.986350 0.437873 -0.042767
C80   C     C_R   0.719045 0.984387 0.562180 -0.046221
C81   C     C_R   0.722716 0.536806 0.474145 -0.090448
C82   C     C_R   0.287013 0.507662 0.529798 -0.109839
C83   C     C_R   0.221812 0.034829 0.473674 -0.091547
C84   C     C_R   0.773639 0.041752 0.524602 -0.114089
H25   H     H_    0.684595 0.591889 0.445090 0.201595
H26   H     H_    0.323486 0.565701 0.558711 0.191124
H27   H     H_    0.183266 0.088877 0.444537 0.200710
H28   H     H_    0.808884 0.103065 0.552766 0.177734
C85   C     C_R   0.713463 0.515575 0.547825 0.179066
C86   C     C_R   0.288229 0.505239 0.454592 0.175836
C87   C     C_R   0.212142 0.012658 0.547096 0.179070
C88   C     C_R   0.781847 0.021942 0.450485 0.185842
C89   C     C_R   0.762554 0.440049 0.584476 0.002068
C90   C     C_R   0.239028 0.430784 0.418213 0.009903
C91   C     C_R   0.261970 0.939362 0.584239 0.001321
C92   C     C_R   0.735901 0.939136 0.415454 0.001978
N1    N     N_R   0.656848 0.575615 0.585153 0.088016
O53   O     O_R   0.666655 0.614819 0.650348 -0.278387
O54   O     O_R   0.601263 0.612718 0.550191 -0.247387
N2    N     N_R   0.334279 0.586032 0.415990 0.107634
O55   O     O_R   0.319346 0.616923 0.350269 -0.289517
O56   O     O_R   0.382185 0.648160 0.450165 -0.263997
N3    N     N_R   0.153364 0.067650 0.583473 0.079861
O57   O     O_R   0.162043 0.114310 0.647117 -0.306952
O58   O     O_R   0.094776 0.089367 0.549108 -0.243975
N4    N     N_R   0.832128 0.093134 0.410940 0.108822
O59   O     O_R   0.821081 0.116663 0.343428 -0.274451
O60   O     O_R   0.879760 0.156260 0.444889 -0.269744
C93   C     C_2   0.620992 0.481795 0.085331 0.570401
O61   O     O_2   0.608989 0.456985 0.147988 -0.480949
O62   O     O_R   0.575119 0.559300 0.047985 -0.672416
H29   H     H_    0.535323 0.591305 0.079035 0.381289
C94   C     C_2   0.379012 0.459684 0.916134 0.563839
O63   O     O_2   0.385610 0.426957 0.853782 -0.472190
O64   O     O_R   0.435718 0.515482 0.951324 -0.673062
H30   H     H_    0.479139 0.520750 0.919964 0.348890
C95   C     C_2   0.122379 0.986350 0.084914 0.574171
O65   O     O_2   0.084990 0.060148 0.053307 -0.489236
O66   O     O_R   0.106604 0.954128 0.155564 -0.660394
H31   H     H_    0.064163 0.000040 0.174940 0.340394
C96   C     C_2   0.878861 0.965301 0.916133 0.561595
O67   O     O_2   0.886761 0.931233 0.854196 -0.468772
O68   O     O_R   0.933445 0.028008 0.950796 -0.658512
H32   H     H_    0.975877 0.041128 0.918808 0.366720
C97   C     C_2   0.841409 0.223120 0.089739 0.581121
O69   O     O_2   0.827612 0.178830 0.148135 -0.472710
O70   O     O_R   0.908065 0.205196 0.059550 -0.644707
H33   H     H_    0.940493 0.154871 0.091383 0.365241
C98   C     C_2   0.143377 0.254484 0.925997 0.610835
O71   O     O_2   0.083400 0.249990 0.949899 -0.487101
O72   O     O_R   0.161958 0.182442 0.866999 -0.643511
H34   H     H_    0.121203 0.131008 0.848787 0.345108
C99   C     C_2   0.340006 0.721324 0.090475 0.582482
O73   O     O_2   0.397149 0.698367 0.063189 -0.502389
O74   O     O_R   0.324367 0.676968 0.158808 -0.646697
H35   H     H_    0.364804 0.628200 0.180408 0.351718
C100  C     C_2   0.643553 0.755025 0.925689 0.614509
O75   O     O_2   0.659028 0.688024 0.875596 -0.462265
O76   O     O_R   0.574282 0.758521 0.951121 -0.682524
H36   H     H_    0.541192 0.705928 0.921638 0.358740
C101  C     C_2   0.452421 0.386736 0.575981 0.601703
O77   O     O_2   0.409641 0.369883 0.623878 -0.499256
O78   O     O_R   0.472121 0.505420 0.558904 -0.565345
H37   H     H_    0.449727 0.567946 0.591831 0.377300
C102  C     C_2   0.532665 0.393142 0.433118 0.661731
O79   O     O_2   0.594393 0.392814 0.414279 -0.501935
O80   O     O_R   0.489528 0.493344 0.418063 -0.561854
H38   H     H_    0.515778 0.560871 0.392586 0.377449
C103  C     C_2   0.945758 0.881323 0.577777 0.607439
O81   O     O_2   0.906406 0.860486 0.628099 -0.474926
O82   O     O_R   0.957422 0.001742 0.557298 -0.565857
H39   H     H_    0.932371 0.062184 0.589609 0.372815
C104  C     C_2   0.028177 0.894509 0.435612 0.669887
O83   O     O_2   0.090644 0.897143 0.419570 -0.501393
O84   O     O_R   0.984073 0.992348 0.418257 -0.559812
H40   H     H_    0.010336 0.061128 0.393955 0.376050
C105  C     C_2   0.890876 0.368088 0.591205 0.577102
O85   O     O_2   0.931269 0.294572 0.563715 -0.470466
O86   O     O_R   0.905292 0.413764 0.659821 -0.659879
H41   H     H_    0.949885 0.377492 0.681494 0.342633
C106  C     C_2   0.113251 0.347437 0.418357 0.574415
O87   O     O_2   0.074173 0.272844 0.446135 -0.471816
O88   O     O_R   0.094721 0.398763 0.352136 -0.670175
H42   H     H_    0.049329 0.363780 0.331746 0.336491
C107  C     C_2   0.390251 0.868024 0.591349 0.578005
O89   O     O_2   0.430405 0.793797 0.564206 -0.474935
O90   O     O_R   0.404759 0.914413 0.659791 -0.664791
H43   H     H_    0.449195 0.877933 0.681676 0.342001
C108  C     C_2   0.610191 0.854329 0.411849 0.575691
O91   O     O_2   0.573075 0.777164 0.439953 -0.469752
O92   O     O_R   0.592240 0.899530 0.343981 -0.669081
H44   H     H_    0.548418 0.859511 0.323283 0.337630

loop_
_geom_bond_atom_site_label_1
_geom_bond_atom_site_label_2
_geom_bond_distance
_ccdc_geom_bond_type
C18   O42   1.259778 A    
Cr6   O50   1.971981 S    
Cr11  O51   1.972982 S    
O64   H30   1.013283 S    
O4    C12   1.262308 A    
O47   Cr11  1.929799 S    
C29   C30   1.462992 S    
C46   C98   1.488962 S    
O39   C19   1.273416 A    
C25   H6    1.086127 S    
O20   Cr12  2.043966 S    
C94   O63   1.223348 D    
C62   C66   1.395804 A    
N4    O60   1.299809 A    
C67   C68   1.376112 A    
C60   C63   1.412974 A    
C27   H8    1.086479 S    
C64   C68   1.399667 A    
C43   C47   1.421110 A    
Cr7   O51   1.978937 S    
C65   C66   1.376471 A    
C72   C92   1.421655 A    
O1    C9    1.295827 A    
O88   H42   1.014038 S    
C5    C25   1.456890 S    
C95   O65   1.222793 D    
C76   C80   1.394678 A    
O7    C3    1.284312 A    
C47   C99   1.484070 S    
C106  O87   1.222570 D    
C99   O73   1.222895 D    
C17   C62   1.448306 S    
C34   C38   1.401742 A    
C35   C39   1.404668 A    
C76   H24   1.081673 S    
C48   C100  1.485318 S    
C33   C37   1.404608 A    
O82   H39   1.012888 S    
C51   C55   1.396305 A    
C70   C74   1.382283 A    
O25   C21   1.261853 A    
C52   C56   1.398663 A    
C20   C63   1.448852 S    
C82   H26   1.081740 S    
C107  O89   1.222038 D    
C71   C91   1.419711 A    
N1    O54   1.299053 A    
C59   C103  1.493680 S    
C30   H2    1.084618 S    
C85   N1    1.437636 S    
O84   H40   1.013750 S    
C103  O82   1.393484 S    
O21   C9    1.304019 A    
O8    Cr4   1.936538 S    
O23   Cr11  1.936592 S    
N2    O56   1.299665 A    
C108  O91   1.222366 D    
O30   C14   1.301322 A    
C73   H21   1.081005 S    
C25   C30   1.342797 D    
C93   O62   1.396561 S    
C1    O9    1.263747 A    
O44   Cr12  2.053500 S    
C65   H17   1.076733 S    
C5    O17   1.267821 A    
C2    C43   1.488774 S    
C101  O78   1.392617 S    
C28   H7    1.087124 S    
C100  O76   1.397088 S    
C27   C32   1.343496 D    
C66   H18   1.077341 S    
C3    O11   1.262249 A    
C22   C90   1.471420 S    
O11   Cr7   2.057335 S    
C16   C77   1.470105 S    
C31   C32   1.463068 S    
C50   H14   1.084183 S    
O28   Cr4   2.052903 S    
C69   C105  1.485621 S    
C35   C55   1.401149 A    
O80   H38   1.013608 S    
C7    O19   1.268154 A    
O3    Cr3   2.053198 S    
C102  O79   1.221871 D    
Cr4   O52   1.967116 S    
O47   C23   1.282243 A    
O2    Cr2   2.055591 S    
O8    C4    1.280539 A    
O92   H44   1.013968 S    
C48   C52   1.375407 A    
C86   N2    1.441506 S    
C46   C50   1.377891 A    
C84   C88   1.408390 A    
C97   O70   1.397397 S    
N4    O59   1.301551 A    
O42   Cr10  2.053500 S    
Cr5   O49   1.978937 S    
O62   H29   1.013754 S    
O18   Cr10  2.043966 S    
O27   C23   1.262266 A    
C105  O85   1.222432 D    
Cr8   O52   1.971981 S    
O31   Cr3   1.933442 S    
C94   O64   1.397423 S    
C83   C87   1.404530 A    
C75   C79   1.393861 A    
C12   C56   1.459398 S    
C81   C85   1.406409 A    
Cr9   O49   1.972982 S    
O6    Cr2   1.936538 S    
C87   C91   1.415512 A    
C95   O66   1.399150 S    
C77   C81   1.402899 A    
O24   Cr12  1.935298 S    
O9    Cr5   2.057335 S    
C106  O88   1.400582 S    
C57   C62   1.409652 A    
O30   Cr2   1.936590 S    
C14   C79   1.468672 S    
O22   C10   1.274743 A    
C71   C75   1.389295 A    
O66   H31   1.014054 S    
O48   Cr12  1.925303 S    
C4    O12   1.266994 A    
C72   C76   1.385891 A    
C24   C92   1.485158 S    
O74   H35   1.013858 S    
C57   C101  1.491223 S    
C2    O10   1.267220 A    
C73   C77   1.393941 A    
O72   H34   1.013939 S    
C107  O90   1.399479 S    
C15   C78   1.462831 S    
O16   Cr8   1.931251 S    
O15   C7    1.271157 A    
O7    Cr3   1.941029 S    
C98   O71   1.223116 D    
C97   O69   1.223350 D    
C83   H27   1.082576 S    
C28   C31   1.342946 D    
O13   C5    1.271463 A    
O40   C20   1.281751 A    
C44   C48   1.416115 A    
N2    O55   1.301708 A    
O12   Cr8   2.058456 S    
C45   C97   1.482505 S    
O22   Cr10  1.935298 S    
C67   H19   1.076287 S    
O70   H33   1.013925 S    
N3    O58   1.299176 A    
C26   H5    1.087044 S    
C45   C49   1.389149 A    
C101  O77   1.223838 D    
C9    C53   1.468496 S    
O46   Cr10  1.925303 S    
O39   Cr7   1.937768 S    
C59   C64   1.408422 A    
C34   C54   1.403670 A    
C47   C51   1.390791 A    
O76   H36   1.012351 S    
O3    C11   1.295983 A    
O14   Cr6   1.931251 S    
O43   Cr11  2.054542 S    
O13   Cr5   1.925419 S    
C96   O67   1.223259 D    
C6    C26   1.456641 S    
C38   C94   1.487651 S    
O36   Cr8   2.049482 S    
C86   C90   1.410890 A    
O29   C13   1.304682 A    
Cr2   O50   1.967116 S    
O15   Cr7   1.925419 S    
O32   Cr4   1.936590 S    
C102  O80   1.393901 S    
O35   Cr7   2.042838 S    
Cr1   O49   1.966975 S    
C38   C42   1.415536 A    
C42   C46   1.416190 A    
C37   C41   1.421798 A    
Cr3   O51   1.966975 S    
O26   C22   1.259472 A    
C82   C86   1.403355 A    
C19   C64   1.445767 S    
C78   C82   1.404691 A    
C39   C43   1.421130 A    
C105  O86   1.399294 S    
C49   H13   1.083916 S    
O37   Cr5   1.937768 S    
C8    C28   1.456695 S    
C8    O20   1.268533 A    
C7    C27   1.456989 S    
C11   C55   1.467507 S    
O90   H43   1.013907 S    
C29   H1    1.086495 S    
C40   C96   1.488850 S    
O34   Cr6   2.049482 S    
C88   C92   1.415880 A    
C88   N4    1.440359 S    
C74   C78   1.400082 A    
C26   C29   1.342937 D    
C33   C53   1.401829 A    
C72   C108  1.487777 S    
O26   Cr2   2.052903 S    
C80   C84   1.403306 A    
C49   C53   1.397071 A    
N3    O57   1.301562 A    
O45   C21   1.283889 A    
O25   Cr1   2.058457 S    
C52   H16   1.084383 S    
C81   H25   1.082697 S    
O28   C24   1.260762 A    
C100  O75   1.223407 D    
O14   C6    1.272817 A    
C35   H11   1.083761 S    
O21   Cr9   1.936592 S    
O5    Cr1   1.941029 S    
C31   H3    1.086493 S    
C68   H20   1.080698 S    
O5    C1    1.283033 A    
C58   C61   1.412533 A    
O37   C17   1.276758 A    
O6    C2    1.280224 A    
C15   O35   1.262531 A    
C59   C60   1.392338 A    
O24   C12   1.274192 A    
C17   O41   1.263635 A    
C70   C106  1.491025 S    
C41   C45   1.420972 A    
O48   C24   1.288852 A    
C98   O72   1.398876 S    
C57   C58   1.392919 A    
C14   O34   1.297351 A    
C19   O43   1.265810 A    
O38   C18   1.281687 A    
O40   Cr8   1.939114 S    
C36   C56   1.404464 A    
C79   C83   1.402694 A    
C20   O44   1.258972 A    
O1    Cr1   2.053198 S    
C36   C40   1.402195 A    
C51   H15   1.084143 S    
C39   C95   1.484941 S    
C63   C67   1.392279 A    
C99   O74   1.398724 S    
O32   C16   1.301914 A    
Cr10  O50   1.979734 S    
C60   C104  1.480935 S    
C71   C107  1.484837 S    
C18   C61   1.449504 S    
O2    C10   1.262132 A    
N1    O53   1.301574 A    
O46   C22   1.284713 A    
Cr12  O52   1.979734 S    
C33   H9    1.083671 S    
C104  O83   1.221657 D    
C85   C89   1.415947 A    
C70   C90   1.416719 A    
O23   C11   1.303453 A    
O19   Cr11  2.047475 S    
C61   C65   1.392573 A    
C96   O68   1.397993 S    
O33   Cr5   2.042838 S    
C13   O33   1.297479 A    
C37   C93   1.485321 S    
C75   H23   1.080690 S    
O10   Cr6   2.058456 S    
C69   C73   1.389928 A    
C93   O61   1.223201 D    
C40   C44   1.416942 A    
C13   C80   1.468337 S    
C69   C89   1.420733 A    
O4    Cr4   2.055591 S    
C74   H22   1.083248 S    
O29   Cr1   1.933442 S    
O68   H32   1.014024 S    
C36   H12   1.082883 S    
C16   O36   1.297680 A    
C32   H4    1.085606 S    
C87   N3    1.436169 S    
C50   C54   1.399176 A    
C34   H10   1.082935 S    
O27   Cr3   2.058457 S    
C6    O18   1.268535 A    
C108  O92   1.399969 S    
O78   H37   1.012604 S    
C1    C44   1.471331 S    
C10   C54   1.459553 S    
O45   Cr9   1.929799 S    
C58   C102  1.481667 S    
O41   Cr9   2.054542 S    
C4    C41   1.489085 S    
C104  O84   1.393772 S    
C103  O81   1.223905 D    
C3    C42   1.471018 S    
O31   C15   1.275128 A    
O16   C8    1.272868 A    
O17   Cr9   2.047475 S    
C84   H28   1.082110 S    
O86   H41   1.013897 S    
C21   C89   1.486748 S    
O38   Cr6   1.939114 S    
C23   C91   1.484326 S    
