data_mof_unit_12397.cif
_audit_creation_date              2012-12-10T17:17:25-0500
_audit_creation_method            fapswitch 2.2
_symmetry_space_group_name_H-M    P1
_symmetry_Int_Tables_number       1
_space_group_crystal_system       triclinic
_cell_length_a                    10.209886
_cell_length_b                    10.511731
_cell_length_c                    12.298478
_cell_angle_alpha                 90.970525
_cell_angle_beta                  109.401439
_cell_angle_gamma                 95.293691
_cell_volume                      1238.06212593

loop_
_atom_site_label
_atom_site_type_symbol
_atom_type_description
_atom_site_fract_x
_atom_site_fract_y
_atom_site_fract_z
_atom_type_partial_charge
C1    C     C_R   0.053806 0.734556 0.497964 0.921736
C2    C     C_R   0.418614 0.491547 0.994094 0.096024
C3    C     C_R   0.323861 0.449361 0.884737 0.083560
C4    C     C_R   0.553485 0.450305 0.027448 0.079934
C5    C     C_R   0.583941 0.352395 0.961436 0.142090
C6    C     C_R   0.481094 0.298509 0.861788 -0.233944
C7    C     C_R   0.352589 0.346750 0.823437 -0.198768
C8    C     C_R   0.659865 0.506320 0.123468 -0.317503
C9    C     C_R   0.818840 0.359011 0.099148 0.207152
C10   C     C_R   0.203738 0.512904 0.838277 -0.113928
C11   C     C_2   0.091085 0.871742 0.513819 -0.459897
C12   C     C_R   0.133001 0.507870 0.714170 0.836165
C13   C     C_2   0.056329 0.938985 0.592748 0.279823
C14   C     C_2   0.940333 0.132162 0.539660 -0.392800
C15   C     C_2   0.058727 0.076319 0.583022 -0.168128
C16   C     C_2   0.432864 0.511725 0.510292 -0.133905
C17   C     C_2   0.567143 0.488158 0.489791 -0.138087
C18   C     C_R   0.952081 0.265786 0.512130 0.927646
C19   C     C_R   0.865356 0.485349 0.285888 0.887682
C20   C     C_R   0.716679 0.309028 0.996585 -0.272091
C21   C     C_R   0.786752 0.455537 0.164558 -0.102119
C22   C     C_R   0.163097 0.596249 0.908548 -0.207687
C23   C     C_R   0.246769 0.623395 0.022602 -0.155913
C24   C     C_R   0.374901 0.573952 0.064980 -0.195458
H1    H     H_    0.838367 0.079885 0.523753 0.159455
H2    H     H_    0.129323 0.919778 0.450964 0.137459
H3    H     H_    0.564033 0.413853 0.426383 0.164790
H4    H     H_    0.315051 0.377048 0.395244 0.163241
H5    H     H_    0.501001 0.221110 0.811968 0.146543
H6    H     H_    0.644755 0.587257 0.171553 0.159929
H7    H     H_    0.435865 0.599241 0.154003 0.135837
H8    H     H_    0.214693 0.686721 0.077185 0.143199
H9    H     H_    0.275461 0.302352 0.745725 0.159778
H10   H     H_    0.160381 0.129108 0.598245 0.152300
N1    N     N_2   0.313640 0.446500 0.454900 -0.188833
N2    N     N_2   0.686360 0.553430 0.545150 -0.186533
O1    O     O_R   0.936910 0.692950 0.509080 -0.587182
O2    O     O_R   0.138320 0.658600 0.480130 -0.600369
O3    O     O_R   0.002900 0.525670 0.675280 -0.612467
O4    O     O_R   0.204310 0.491320 0.646330 -0.605517
O5    O     O_R   0.861680 0.341400 0.519870 -0.599753
O6    O     O_R   0.063090 0.307050 0.490920 -0.600210
O7    O     O_R   0.795690 0.508680 0.353670 -0.610614
O8    O     O_R   0.997100 0.474330 0.324720 -0.580442
Zn1   Zn    Zn3+2 0.865520 0.522940 0.519330 0.930312
Zn2   Zn    Zn3+2 0.134480 0.477060 0.480670 0.935603
N3    N     N_2   0.949118 0.306632 0.138946 -0.298441
H11   H     H_    0.941766 0.209869 0.119194 0.214115
C25   C     C_3   0.058289 0.377021 0.107072 -0.723520
H12   H     H_    0.032495 0.370741 0.011790 0.235288
H13   H     H_    0.158489 0.335872 0.147745 0.226059
H14   H     H_    0.071901 0.479065 0.137424 0.251592
N4    N     N_2   0.032328 0.881763 0.690330 -0.281869
H15   H     H_    0.063754 0.791863 0.708627 0.226655
C26   C     C_3   0.902365 0.901467 0.707926 -0.760888
H16   H     H_    0.894915 0.849101 0.783684 0.217937
H17   H     H_    0.812522 0.864895 0.630733 0.236759
H18   H     H_    0.898069 0.004524 0.725959 0.245674
H19   H     H_    0.435969 0.586015 0.573708 0.168627
H20   H     H_    0.684902 0.622932 0.604741 0.160409
H21   H     H_    0.739886 0.234122 0.946175 0.137820
H22   H     H_    0.069015 0.643523 0.874328 0.155675

loop_
_geom_bond_atom_site_label_1
_geom_bond_atom_site_label_2
_ccdc_geom_bond_type
C12   O4    A    
C2    C4    A    
C23   C24   A    
C6    C7    A    
C11   H2    S    
C17   N2    D    
C22   H22   S    
C11   C13   D    
C4    C8    A    
C14   C18   S    
C15   H10   S    
C13   N4    S    
N3    H11   S    
C1    C11   S    
C13   C15   S    
C1    O1    A    
O3    Zn1   S    
C25   H14   S    
C8    H6    S    
C23   H8    S    
C26   H16   S    
C26   H17   S    
C2    C3    A    
C24   H7    S    
N2    Zn1   S    
N3    C25   S    
C3    C10   A    
N4    H15   S    
C10   C22   A    
O4    Zn2   S    
O7    Zn1   S    
C9    C21   A    
C10   C12   S    
C1    O2    A    
C12   O3    A    
C14   H1    S    
C19   C21   S    
C19   O7    A    
C9    N3    S    
C3    C7    A    
N4    C26   S    
C16   N1    D    
C2    C24   A    
C5    C6    A    
O2    Zn2   S    
C7    H9    S    
O1    Zn1   S    
C17   H3    S    
C6    H5    S    
C19   O8    A    
C25   H12   S    
O6    Zn2   S    
C26   H18   S    
C20   H21   S    
C5    C20   A    
O5    Zn1   S    
C14   C15   D    
C16   C17   S    
C9    C20   A    
C18   O6    A    
C25   H13   S    
C22   C23   A    
N1    Zn2   S    
C18   O5    A    
H4    N1    S    
O8    Zn2   S    
C4    C5    A    
N2    H20   S    
C16   H19   S    
C8    C21   A    
