data_mof_unit_47264.cif
_audit_creation_date              2012-12-11T17:07:33-0500
_audit_creation_method            fapswitch 2.2
_symmetry_space_group_name_H-M    P1
_symmetry_Int_Tables_number       1
_space_group_crystal_system       triclinic
_cell_length_a                    6.951864
_cell_length_b                    14.551599
_cell_length_c                    16.057729
_cell_angle_alpha                 90.06814
_cell_angle_beta                  89.894447
_cell_angle_gamma                 90.154713
_cell_volume                      1624.40188613

loop_
_atom_site_label
_atom_site_type_symbol
_atom_type_description
_atom_site_fract_x
_atom_site_fract_y
_atom_site_fract_z
_atom_type_partial_charge
O1    O     O_R   0.505720 0.583900 0.413310 -0.542527
O2    O     O_R   0.175940 0.594920 0.586080 -0.548358
O3    O     O_R   0.005640 0.416100 0.586690 -0.540673
C1    C     C_R   0.344755 0.616774 0.614993 0.679154
O4    O     O_R   0.176000 0.594930 0.413930 -0.522230
O5    O     O_R   0.005700 0.416110 0.413310 -0.525364
C2    C     C_R   0.345039 0.616839 0.385045 0.697597
O6    O     O_R   0.505660 0.583890 0.586690 -0.542745
O7    O     O_3   0.339200 0.441330 0.500000 -0.370835
V1    V     V_3+5 0.064350 0.510880 0.500000 1.444022
O8    O     O_R   0.675980 0.405080 0.413920 -0.550884
C3    C     C_R   0.845163 0.383496 0.384830 0.807584
O9    O     O_R   0.675920 0.405070 0.586070 -0.536136
C4    C     C_R   0.844699 0.383038 0.614596 0.681711
V2    V     V_3+5 0.564340 0.489120 0.500000 1.428033
O10   O     O_3   0.839360 0.558670 0.500000 -0.374866
H1    H     H_    0.226317 0.119102 0.526534 0.167808
C5    C     C_R   0.663150 0.416213 0.774702 -0.144618
C6    C     C_R   0.575328 0.434716 0.850875 -0.129835
C7    C     C_R   0.587194 0.371692 0.915449 -0.136019
C8    C     C_R   0.687306 0.289803 0.904349 -0.141308
C9    C     C_R   0.776128 0.268275 0.827262 0.069479
C10   C     C_R   0.763471 0.332881 0.760891 0.068694
C11   C     C_R   0.880168 0.185175 0.816371 -0.160781
C12   C     C_R   0.971893 0.166943 0.738913 0.004258
C13   C     C_R   0.961060 0.232005 0.673010 0.075739
C14   C     C_R   0.855251 0.314693 0.683522 -0.162745
C15   C     C_R   0.071488 0.083403 0.724936 -0.204754
C16   C     C_R   0.160280 0.063726 0.648870 0.509631
C17   C     C_R   0.154400 0.129985 0.585428 -0.229893
C18   C     C_R   0.054619 0.211745 0.596913 -0.217683
H2    H     H_    0.652783 0.468722 0.727487 0.112867
H3    H     H_    0.499254 0.498781 0.860044 0.112713
H4    H     H_    0.520357 0.386744 0.974868 0.117184
H5    H     H_    0.696222 0.244654 0.957557 0.118468
H6    H     H_    0.079442 0.030982 0.772367 0.124042
H7    H     H_    0.050701 0.258044 0.544437 0.140502
C19   C     C_R   0.777190 0.167979 0.255154 -0.054886
C20   C     C_R   0.885115 0.184786 0.183393 -0.217262
C21   C     C_R   0.999529 0.265589 0.181693 0.351217
C22   C     C_R   0.990047 0.330509 0.248696 0.355158
C23   C     C_R   0.860884 0.315710 0.316173 -0.289274
C24   C     C_R   0.768036 0.230394 0.320221 -0.069233
C25   C     C_3   0.564123 0.202022 0.339957 0.391657
C26   C     C_3   0.576818 0.133598 0.267835 -0.419945
H8    H     H_    0.459918 0.257440 0.327568 0.053315
H9    H     H_    0.480287 0.151218 0.215081 0.158039
H10   H     H_    0.572900 0.060256 0.286983 0.165428
C27   C     C_R   0.508619 0.683254 0.741117 0.092474
C28   C     C_R   0.352684 0.681878 0.685965 -0.116251
C29   C     C_R   0.199743 0.742443 0.702516 -0.174278
H11   H     H_    0.076734 0.744117 0.661610 0.131209
C30   C     C_R   0.210798 0.806596 0.768054 -0.108745
H12   H     H_    0.095026 0.855233 0.775999 0.129021
C31   C     C_R   0.375569 0.812440 0.818796 -0.103893
C32   C     C_R   0.520043 0.747137 0.805757 0.089724
C33   C     C_3   0.729858 0.761622 0.792286 -0.402590
C34   C     C_3   0.717646 0.691770 0.722186 -0.399603
H13   H     H_    0.816879 0.737657 0.846012 0.169126
H14   H     H_    0.762355 0.832387 0.770267 0.173950
H15   H     H_    0.797565 0.627419 0.735504 0.163668
H16   H     H_    0.743737 0.721799 0.659529 0.171144
C35   C     C_R   0.504960 0.681852 0.256860 0.002508
C36   C     C_R   0.353173 0.682522 0.314526 -0.132725
C37   C     C_R   0.202660 0.745369 0.300447 -0.104886
H17   H     H_    0.081440 0.747907 0.342598 0.117506
C38   C     C_R   0.212822 0.809743 0.234997 -0.183995
H18   H     H_    0.098377 0.859354 0.228324 0.118328
C39   C     C_R   0.375326 0.814292 0.182526 -0.086901
C40   C     C_R   0.517799 0.748122 0.194139 0.014366
C41   C     C_3   0.729367 0.760680 0.203746 -0.452036
C42   C     C_3   0.718485 0.687095 0.271007 0.358030
H19   H     H_    0.765329 0.829851 0.228753 0.128132
H20   H     H_    0.811076 0.740570 0.147077 0.186011
H21   H     H_    0.752486 0.714136 0.334056 0.060727
O11   O     O_R   0.229140 0.916090 0.913340 -0.547771
O12   O     O_R   0.558860 0.905090 0.086080 -0.540617
O13   O     O_R   0.729100 0.083920 0.086690 -0.545862
C43   C     C_R   0.389577 0.883918 0.115509 0.694043
O14   O     O_R   0.558860 0.905090 0.913930 -0.539856
O15   O     O_R   0.729100 0.083920 0.913310 -0.537087
C44   C     C_R   0.389715 0.883052 0.885139 0.702761
O16   O     O_R   0.229140 0.916080 0.086720 -0.544737
O17   O     O_3   0.395570 0.058660 0.000020 -0.359561
V3    V     V_3+5 0.670450 0.989140 0.000000 1.409043
O18   O     O_R   0.058810 0.094980 0.913910 -0.535377
C45   C     C_R   0.890152 0.116826 0.885270 0.693091
O19   O     O_R   0.058810 0.094980 0.086060 -0.520538
C46   C     C_R   0.890376 0.117196 0.114519 0.767823
V4    V     V_3+5 0.170450 0.010950 0.999970 1.446110
O20   O     O_3   0.895460 0.941370 0.999990 -0.379346
O21   O     O_3   0.077428 0.415601 0.240679 -0.547729
C47   C     C_3   0.275794 0.408205 0.256300 -0.178821
H22   H     H_    0.302441 0.392401 0.322820 0.144321
H23   H     H_    0.342415 0.475964 0.243610 0.135637
H24   H     H_    0.347248 0.357164 0.215104 0.134222
O22   O     O_3   0.525855 0.159509 0.418350 -0.554847
C48   C     C_3   0.688197 0.118176 0.455377 -0.221992
H25   H     H_    0.795123 0.171115 0.473471 0.139756
H26   H     H_    0.754454 0.065893 0.413887 0.129695
H27   H     H_    0.641687 0.082768 0.513164 0.161323
O23   O     O_3   0.828673 0.607002 0.252482 -0.524702
C49   C     C_3   0.757106 0.553053 0.185736 -0.134771
H28   H     H_    0.675807 0.591787 0.137904 0.093191
H29   H     H_    0.667388 0.496409 0.210792 0.113203
H30   H     H_    0.880517 0.522343 0.152407 0.172484
O24   O     O_3   0.261829 0.981730 0.642249 -0.554563
C50   C     C_3   0.242692 0.941528 0.562584 -0.288072
H31   H     H_    0.343156 0.974137 0.517565 0.153415
H32   H     H_    0.091785 0.943986 0.539436 0.121872
H33   H     H_    0.283761 0.868111 0.566842 0.162748
O25   O     O_3   0.117260 0.281411 0.113490 -0.551351
C51   C     C_3   0.033381 0.348208 0.061331 -0.232684
H34   H     H_    0.872930 0.347787 0.062472 0.100474
H35   H     H_    0.078627 0.334219 0.996248 0.157085
H36   H     H_    0.088070 0.417456 0.078092 0.166517

loop_
_geom_bond_atom_site_label_1
_geom_bond_atom_site_label_2
_ccdc_geom_bond_type
C34   H16   S    
C31   C32   A    
C47   H22   S    
C22   C23   A    
C30   C31   A    
C6    C7    A    
C1    O6    A    
O22   C48   S    
V3    O20   S    
C21   O25   S    
C30   H12   S    
C50   H31   S    
C12   C15   A    
C13   C14   A    
O14   V3    S    
C15   C16   A    
O5    C3    A    
C19   C20   A    
C33   H13   S    
V2    O10   S    
C48   H25   S    
C29   H11   S    
C32   C33   S    
C5    C6    A    
C19   C26   S    
C3    C23   S    
O8    V2    S    
O17   V3    S    
C37   C38   A    
O24   C50   S    
C40   C41   S    
O1    V2    S    
C10   C14   A    
C4    C14   S    
O7    V1    S    
C51   H36   S    
C7    H4    S    
C34   H15   S    
O12   C43   A    
O12   V3    S    
C13   C18   A    
C47   H23   S    
O9    C4    A    
H1    C17   S    
C39   C40   A    
O17   V4    S    
C42   H21   S    
O25   C51   S    
C25   H8    S    
C26   H9    S    
O13   C46   A    
C35   C42   S    
C5    C10   A    
C11   C12   A    
O14   C44   A    
O18   V4    S    
O11   C44   A    
C20   C21   A    
C41   H19   S    
O18   C45   A    
C33   H14   S    
C12   C13   A    
C27   C34   S    
C38   H18   S    
C1    C28   S    
C38   C39   A    
O2    C1    A    
C24   C25   S    
C16   C17   A    
C25   O22   S    
C35   C40   A    
C28   C29   A    
C49   H29   S    
C7    C8    A    
C31   C44   S    
O15   C45   A    
O3    C4    A    
O13   V3    S    
C21   C22   A    
O19   V4    S    
C37   H17   S    
C47   H24   S    
C48   H26   S    
O9    V2    S    
C6    H3    S    
C9    C11   A    
C39   C43   S    
C5    H2    S    
C23   C24   A    
V4    O20   S    
C27   C32   A    
C25   C26   S    
O4    C2    A    
C51   H34   S    
C26   H10   S    
O16   V4    S    
O1    C2    A    
O5    V1    S    
C41   H20   S    
O8    C3    A    
C8    H5    S    
O6    V2    S    
C48   H27   S    
C50   H33   S    
C36   C37   A    
O7    V2    S    
C19   C24   A    
O3    V1    S    
V1    O10   S    
C43   O16   A    
C33   C34   S    
C17   C18   A    
C42   O23   S    
O21   C47   S    
C50   H32   S    
C49   H30   S    
O23   C49   S    
C11   C45   S    
C2    C36   S    
C35   C36   A    
C18   H7    S    
O4    V1    S    
C22   O21   S    
C41   C42   S    
O19   C46   A    
C15   H6    S    
C27   C28   A    
C49   H28   S    
C9    C10   A    
C16   O24   S    
C29   C30   A    
C8    C9    A    
C20   C46   S    
O15   V3    S    
O11   V4    S    
C51   H35   S    
O2    V1    S    
