data_mof_unit_17253.cif
_audit_creation_date              2012-12-10T17:19:24-0500
_audit_creation_method            fapswitch 2.2
_symmetry_space_group_name_H-M    P1
_symmetry_Int_Tables_number       1
_space_group_crystal_system       triclinic
_cell_length_a                    15.018033
_cell_length_b                    10.827201
_cell_length_c                    9.592866
_cell_angle_alpha                 90.161748
_cell_angle_beta                  90.071122
_cell_angle_gamma                 92.294873
_cell_volume                      1558.57264799

loop_
_atom_site_label
_atom_site_type_symbol
_atom_type_description
_atom_site_fract_x
_atom_site_fract_y
_atom_site_fract_z
_atom_type_partial_charge
C1    C     C_R   0.506308 0.262635 0.500457 0.781828
C2    C     C_R   0.909863 0.605478 0.568101 -0.046863
C3    C     C_R   0.946736 0.314746 0.366495 -0.157600
C4    C     C_R   0.039412 0.315123 0.362353 -0.191376
C5    C     C_R   0.089897 0.409007 0.429565 0.131950
C6    C     C_R   0.046829 0.504038 0.501408 0.083878
C7    C     C_R   0.097578 0.596405 0.572474 0.028871
C8    C     C_R   0.055267 0.689684 0.644055 -0.241199
C9    C     C_R   0.962607 0.694965 0.643893 0.431896
C10   C     C_R   0.182885 0.409261 0.427032 -0.236835
C11   C     C_R   0.232562 0.500390 0.499746 -0.062987
C12   C     C_R   0.328982 0.499149 0.499898 0.821280
C13   C     C_R   0.190265 0.592871 0.573036 -0.182111
C14   C     C_R   0.552852 0.115532 0.754266 -0.137549
C15   C     C_R   0.540464 0.056279 0.881859 -0.227907
C16   C     C_R   0.489226 0.946758 0.888320 -0.161760
C17   C     C_R   0.459098 0.888768 0.765757 0.387505
C18   C     C_R   0.485328 0.938190 0.633791 0.026412
C19   C     C_R   0.517386 0.062156 0.630191 0.064302
C20   C     C_R   0.511427 0.127809 0.502832 -0.091833
C21   C     C_R   0.497041 0.062702 0.378026 -0.198605
C22   C     C_R   0.487532 0.935271 0.379004 -0.193616
C23   C     C_R   0.492111 0.736960 0.501151 0.850720
C24   C     C_R   0.482977 0.871156 0.505617 -0.074659
C25   C     C_R   0.616681 0.666177 0.145036 -0.145397
C26   C     C_R   0.672420 0.748977 0.073212 -0.212900
C27   C     C_R   0.672076 0.749209 0.929695 -0.139505
C28   C     C_R   0.616151 0.666392 0.857336 -0.117198
C29   C     C_R   0.557083 0.581871 0.925864 0.208333
C30   C     C_R   0.557183 0.581814 0.075350 0.203476
C31   C     C_R   0.445765 0.421872 0.073523 -0.052366
C32   C     C_R   0.445823 0.421864 0.925574 -0.021179
C33   C     C_R   0.670998 0.502072 0.499839 0.853386
C34   C     C_R   0.816077 0.609423 0.554767 0.348923
C35   C     C_R   0.767722 0.506733 0.499298 -0.131633
C36   C     C_R   0.810986 0.408803 0.438570 -0.283122
C37   C     C_R   0.903454 0.409826 0.435065 0.136586
C38   C     C_R   0.953265 0.506477 0.502030 -0.046443
Cu1   Cu    Cu3+1 0.499990 0.499990 0.640660 0.980324
Cu2   Cu    Cu3+1 0.500010 0.500010 0.359340 0.950430
H1    H     H_    0.591830 0.201644 0.753840 0.171308
H2    H     H_    0.566154 0.099054 0.976625 0.157000
H3    H     H_    0.471456 0.908089 0.988988 0.166416
H4    H     H_    0.483507 0.887014 0.279949 0.165575
H5    H     H_    0.401311 0.357817 0.128452 0.135998
H6    H     H_    0.623696 0.672543 0.254809 0.220457
H7    H     H_    0.716624 0.812919 0.129628 0.186463
H8    H     H_    0.715769 0.813722 0.873848 0.234153
H9    H     H_    0.621933 0.672478 0.747914 0.236678
H10   H     H_    0.772177 0.332615 0.392028 0.154195
H11   H     H_    0.401462 0.357751 0.869977 0.143155
H12   H     H_    0.908791 0.240548 0.314978 0.156401
H13   H     H_    0.071602 0.241440 0.307673 0.155412
H14   H     H_    0.216710 0.337452 0.371418 0.137657
H15   H     H_    0.229694 0.663309 0.628066 0.199395
H16   H     H_    0.094589 0.758209 0.702604 0.198703
H17   H     H_    0.494223 0.109998 0.278831 0.159746
N1    N     N_R   0.500860 0.501210 0.147910 -0.200815
N2    N     N_R   0.500890 0.501290 0.852040 -0.189903
O1    O     O_R   0.499990 0.319640 0.618810 -0.597283
O2    O     O_R   0.500000 0.319660 0.381240 -0.589388
O3    O     O_R   0.370250 0.499960 0.618800 -0.543551
O4    O     O_R   0.370260 0.499980 0.381230 -0.577508
O5    O     O_R   0.500000 0.680340 0.618760 -0.563508
O6    O     O_R   0.500010 0.680360 0.381190 -0.610959
O7    O     O_R   0.629740 0.500020 0.618770 -0.596989
O8    O     O_R   0.629750 0.500040 0.381200 -0.597144
Cl1   Cl    Cl    0.758877 0.748163 0.575278 -0.640154
Cl2   Cl    Cl    0.371497 0.776678 0.784938 -0.652191
Cl3   Cl    Cl    0.919239 0.806755 0.756450 -0.554778

loop_
_geom_bond_atom_site_label_1
_geom_bond_atom_site_label_2
_ccdc_geom_bond_type
C27   H8    S    
C25   C30   A    
C23   C24   S    
C6    C38   A    
C32   H11   S    
C17   Cl2   S    
C29   C30   A    
C4    H13   S    
C12   O3    A    
C28   H9    S    
C2    C38   A    
C15   H2    S    
C19   C20   A    
C3    H12   S    
Cu1   N2    S    
C8    H16   S    
C17   C18   A    
C3    C4    A    
C2    C34   A    
C36   H10   S    
C5    C10   A    
C21   C22   A    
C9    Cl3   S    
C21   H17   S    
Cu1   O5    S    
C11   C13   A    
C16   H3    S    
C3    C37   A    
C26   C27   A    
C37   C38   A    
Cu2   O4    S    
C26   H7    S    
C14   H1    S    
C18   C24   A    
Cu1   O1    S    
C30   N1    A    
C31   N1    A    
C14   C19   A    
C28   C29   A    
C33   C35   S    
C33   O7    A    
C18   C19   A    
C6    C7    A    
Cu2   O6    S    
C5    C6    A    
C10   H14   S    
Cu1   O7    S    
C22   C24   A    
C7    C8    A    
C10   C11   A    
C15   C16   A    
Cu1   Cu2   S    
C16   C17   A    
C7    C13   A    
Cu2   N1    S    
C20   C21   A    
C33   O8    A    
C36   C37   A    
C34   C35   A    
C31   H5    S    
C1    O1    A    
C34   Cl1   S    
C27   C28   A    
C12   O4    A    
Cu1   O3    S    
C14   C15   A    
C23   O5    A    
C1    C20   S    
C35   C36   A    
C32   N2    A    
C25   C26   A    
C2    C9    A    
C4    C5    A    
C25   H6    S    
C31   C32   A    
C22   H4    S    
Cu2   O2    S    
C29   N2    A    
C11   C12   S    
C23   O6    A    
C8    C9    A    
C13   H15   S    
Cu2   O8    S    
C1    O2    A    
