data_mof_unit_27252.cif
_audit_creation_date              2012-12-10T17:25:36-0500
_audit_creation_method            fapswitch 2.2
_symmetry_space_group_name_H-M    P1
_symmetry_Int_Tables_number       1
_space_group_crystal_system       triclinic
_cell_length_a                    10.090456
_cell_length_b                    10.824357
_cell_length_c                    23.433429
_cell_angle_alpha                 89.700601
_cell_angle_beta                  81.238205
_cell_angle_gamma                 96.440296
_cell_volume                      2512.98153067

loop_
_atom_site_label
_atom_site_type_symbol
_atom_type_description
_atom_site_fract_x
_atom_site_fract_y
_atom_site_fract_z
_atom_type_partial_charge
C1    C     C_R   0.558251 0.733186 0.495442 0.810719
C2    C     C_R   0.615272 0.479489 0.289216 -0.204150
C3    C     C_R   0.385191 0.518596 0.769961 -0.108524
C4    C     C_R   0.614805 0.481400 0.230039 -0.108510
C5    C     C_R   0.501154 0.493428 0.791536 0.315243
C6    C     C_R   0.498843 0.506573 0.208464 0.315237
C7    C     C_2   0.594136 0.866823 0.487512 0.250191
C8    C     C_2   0.405864 0.133177 0.512488 0.250192
C9    C     C_2   0.498187 0.936176 0.509280 -0.176556
C10   C     C_2   0.501812 0.063824 0.490720 -0.176556
C11   C     C_2   0.927619 0.510586 0.504398 -0.145595
C12   C     C_R   0.441749 0.266813 0.504558 0.810718
C13   C     C_2   0.072381 0.489414 0.495602 -0.145594
C14   C     C_R   0.500318 0.499553 0.610673 0.882299
C15   C     C_R   0.499682 0.500447 0.389327 0.882300
C16   C     C_R   0.479944 0.393724 0.121929 0.527590
C17   C     C_R   0.520042 0.606278 0.878072 0.527600
C18   C     C_R   0.516334 0.615921 0.117719 0.520565
C19   C     C_R   0.483667 0.384080 0.882281 0.520515
C20   C     C_R   0.518729 0.617092 0.057603 -0.116678
C21   C     C_R   0.481261 0.382910 0.942398 -0.116731
C22   C     C_R   0.499559 0.501706 0.030044 -0.081227
C23   C     C_R   0.616815 0.469826 0.754243 -0.100169
C24   C     C_R   0.500426 0.498297 0.969956 -0.081208
C25   C     C_R   0.479909 0.389466 0.062481 -0.051916
C26   C     C_R   0.520074 0.610537 0.937520 -0.051870
C27   C     C_R   0.541145 0.728935 0.024244 0.482791
C28   C     C_R   0.458841 0.271068 0.975758 0.482788
C29   C     C_R   0.539167 0.724447 0.964843 -0.288740
C30   C     C_R   0.460813 0.275556 0.035159 -0.288645
C31   C     C_3   0.694728 0.891046 0.039267 0.125965
C32   C     C_3   0.713951 0.014315 0.069474 -0.715320
C33   C     C_3   0.305244 0.109001 0.960700 0.126006
C34   C     C_R   0.383185 0.530180 0.245757 -0.100178
C35   C     C_3   0.286060 0.985625 0.930576 -0.715441
C36   C     C_3   0.174264 0.116040 0.540762 0.138642
C37   C     C_3   0.061060 0.018673 0.567531 -0.848856
C38   C     C_3   0.825736 0.883960 0.459238 0.138641
C39   C     C_3   0.938940 0.981327 0.432469 -0.848855
C40   C     C_R   0.616864 0.471954 0.694991 -0.213244
C41   C     C_R   0.383137 0.528051 0.305009 -0.213239
C42   C     C_R   0.500754 0.497503 0.672899 -0.047251
C43   C     C_R   0.499245 0.502497 0.327101 -0.047251
C44   C     C_R   0.384725 0.520506 0.710784 -0.204146
H1    H     H_    0.120777 0.615850 0.552114 0.165068
H2    H     H_    0.706006 0.459585 0.305202 0.162869
H3    H     H_    0.295919 0.537040 0.799137 0.132697
H4    H     H_    0.704075 0.462952 0.200862 0.132701
H5    H     H_    0.587856 0.103952 0.459906 0.194428
H6    H     H_    0.412144 0.896048 0.540094 0.194428
H7    H     H_    0.107859 0.420816 0.465079 0.158150
H8    H     H_    0.892140 0.579184 0.534921 0.158149
H9    H     H_    0.730619 0.907962 0.992242 0.128536
H10   H     H_    0.757668 0.825824 0.056615 0.141450
H11   H     H_    0.678114 0.001218 0.116561 0.282238
H12   H     H_    0.879223 0.384150 0.447886 0.165069
H13   H     H_    0.822557 0.051116 0.062624 0.184431
H14   H     H_    0.656274 0.082817 0.051599 0.254856
H15   H     H_    0.242398 0.174180 0.943261 0.141578
H16   H     H_    0.269220 0.092244 0.007726 0.128433
H17   H     H_    0.343618 0.917164 0.948555 0.254836
H18   H     H_    0.177440 0.948875 0.937380 0.184460
H19   H     H_    0.322057 0.998552 0.883493 0.282262
H20   H     H_    0.171406 0.122037 0.493418 0.122843
H21   H     H_    0.154554 0.206355 0.560726 0.179639
H22   H     H_    0.060848 0.010563 0.614815 0.271170
H23   H     H_    0.553233 0.811176 0.940235 0.208898
H24   H     H_    0.962287 0.046150 0.559992 0.213280
H25   H     H_    0.075079 0.926940 0.547905 0.247699
H26   H     H_    0.845446 0.793645 0.439274 0.179639
H27   H     H_    0.828594 0.877963 0.506582 0.122844
H28   H     H_    0.924921 0.073060 0.452095 0.247700
H29   H     H_    0.037713 0.953850 0.440007 0.213281
H30   H     H_    0.939152 0.989437 0.385185 0.271170
H31   H     H_    0.446737 0.188826 0.059767 0.208900
H32   H     H_    0.706545 0.450730 0.771264 0.135950
H33   H     H_    0.293456 0.549280 0.228736 0.135950
H34   H     H_    0.707454 0.453695 0.666634 0.162325
H35   H     H_    0.292548 0.546314 0.333367 0.162326
H36   H     H_    0.293990 0.540406 0.694797 0.162869
N1    N     N_R   0.497823 0.505509 0.147896 -0.365259
N2    N     N_R   0.502172 0.494493 0.852104 -0.365251
N3    N     N_2   0.842710 0.448880 0.476480 -0.193390
N4    N     N_2   0.157290 0.551120 0.523520 -0.193391
O1    O     O_R   0.431060 0.692470 0.504730 -0.613759
O2    O     O_2   0.538203 0.712794 0.846170 -0.555076
O3    O     O_2   0.532980 0.723308 0.146114 -0.504390
O4    O     O_2   0.467038 0.276693 0.853885 -0.504415
O5    O     O_3   0.556777 0.843629 0.049694 -0.558636
O6    O     O_3   0.443211 0.156370 0.950310 -0.558643
O7    O     O_3   0.298129 0.082272 0.553216 -0.608242
O8    O     O_3   0.701871 0.917728 0.446784 -0.608243
O9    O     O_R   0.568940 0.307530 0.495270 -0.613759
O10   O     O_R   0.651120 0.659650 0.489640 -0.624644
O11   O     O_R   0.348880 0.340350 0.510360 -0.624644
O12   O     O_R   0.389950 0.516450 0.591390 -0.610720
O13   O     O_R   0.610050 0.483550 0.408610 -0.610719
O14   O     O_R   0.610020 0.483630 0.576300 -0.612809
O15   O     O_R   0.389980 0.516370 0.423700 -0.612810
O16   O     O_2   0.461778 0.287209 0.153831 -0.555069
Zn1   Zn    Zn3+2 0.353060 0.521920 0.510080 0.944597
Zn2   Zn    Zn3+2 0.646940 0.478080 0.489920 0.944597

loop_
_geom_bond_atom_site_label_1
_geom_bond_atom_site_label_2
_ccdc_geom_bond_type
C38   H26   S    
C30   H31   S    
N3    Zn2   S    
C37   H25   S    
C27   C29   A    
C32   H14   S    
C23   H32   S    
C2    H2    S    
C13   N4    D    
C17   C26   A    
C36   C37   S    
C19   C21   A    
C24   C26   A    
C34   H33   S    
C38   C39   S    
C23   C40   A    
C37   H24   S    
C38   O8    S    
C16   C25   A    
C18   N1    A    
C17   N2    A    
C39   H30   S    
C11   H8    S    
C13   H7    S    
C1    O10   A    
C31   O5    S    
C22   C25   A    
C39   H28   S    
C12   O11   A    
C19   N2    A    
C9    C10   S    
C32   H11   S    
C18   C20   A    
O13   Zn2   S    
C14   C42   S    
C40   C42   A    
C33   H15   S    
C6    N1    S    
C29   H23   S    
O12   Zn1   S    
N4    Zn1   S    
C41   C43   A    
C34   C41   A    
C42   C44   A    
C32   H13   S    
C15   O13   A    
C14   O12   A    
C14   O14   A    
C1    O1    A    
C3    C44   A    
C17   O2    S    
C44   H36   S    
C4    C6    A    
C19   O4    S    
C36   H21   S    
C16   O16   S    
C11   N3    D    
O14   Zn2   S    
C6    C34   A    
C2    C4    A    
C31   C32   S    
C5    C23   A    
C2    C43   A    
C8    C12   S    
C37   H22   S    
C35   H17   S    
C8    O7    S    
C31   H9    S    
C36   O7    S    
O15   Zn1   S    
C21   C28   A    
C20   C22   A    
C33   H16   S    
C40   H34   S    
C12   O9    A    
H1    N4    S    
O1    Zn1   S    
H12   N3    S    
C4    H4    S    
C25   C30   A    
C7    C9    D    
C38   H27   S    
C1    C7    S    
C9    H6    S    
C15   O15   A    
C3    C5    A    
O9    Zn2   S    
C41   H35   S    
C28   O6    S    
C20   C27   A    
C18   O3    S    
C28   C30   A    
C15   C43   S    
C33   O6    S    
C5    N2    S    
C11   C13   S    
C7    O8    S    
C3    H3    S    
C16   N1    A    
C33   C35   S    
C27   O5    S    
C35   H18   S    
C22   C24   A    
C39   H29   S    
C31   H10   S    
O10   Zn2   S    
C26   C29   A    
C8    C10   D    
C21   C24   A    
C35   H19   S    
C36   H20   S    
C10   H5    S    
O11   Zn1   S    
