data_mof_unit_59118.cif
_audit_creation_date              2012-12-10T17:53:18-0500
_audit_creation_method            fapswitch 2.2
_symmetry_space_group_name_H-M    P1
_symmetry_Int_Tables_number       1
_space_group_crystal_system       triclinic
_cell_length_a                    23.39435
_cell_length_b                    10.623541
_cell_length_c                    9.944444
_cell_angle_alpha                 90.536477
_cell_angle_beta                  89.013865
_cell_angle_gamma                 91.366959
_cell_volume                      2470.33258702

loop_
_atom_site_label
_atom_site_type_symbol
_atom_type_description
_atom_site_fract_x
_atom_site_fract_y
_atom_site_fract_z
_atom_type_partial_charge
C1    C     C_R   0.503420 0.260983 0.499619 0.945113
C2    C     C_R   0.967866 0.293946 0.520314 0.215746
C3    C     C_R   0.027467 0.296329 0.527918 -0.226116
C4    C     C_R   0.058667 0.410352 0.523945 -0.048903
C5    C     C_R   0.030023 0.524687 0.514559 -0.022427
C6    C     C_R   0.061443 0.639618 0.509535 -0.008680
C7    C     C_R   0.032714 0.753593 0.501668 -0.161202
C8    C     C_R   0.973358 0.753693 0.497994 -0.169465
C9    C     C_R   0.118341 0.412764 0.526773 0.529843
C10   C     C_R   0.121130 0.637217 0.510549 0.514943
C11   C     C_R   0.240907 0.575305 0.616569 -0.092667
C12   C     C_R   0.389544 0.501652 0.500892 0.900289
C13   C     C_R   0.300115 0.569329 0.611901 -0.324332
C14   C     C_R   0.327548 0.509841 0.502874 -0.172558
C15   C     C_R   0.295294 0.460025 0.396127 0.594805
C16   C     C_R   0.236160 0.467236 0.400732 -0.177359
C17   C     C_R   0.208936 0.523443 0.511431 0.220397
C18   C     C_R   0.763023 0.485599 0.378050 0.259086
C19   C     C_R   0.703418 0.477270 0.380385 -0.251628
C20   C     C_R   0.672666 0.511082 0.496875 -0.032919
C21   C     C_R   0.701565 0.554388 0.611218 -0.211632
C22   C     C_R   0.760760 0.562763 0.609599 -0.154218
C23   C     C_R   0.500903 0.739258 0.500477 0.843466
C24   C     C_R   0.791517 0.527733 0.494125 0.297974
C25   C     C_R   0.600483 0.131439 0.622390 0.596165
C26   C     C_R   0.643737 0.064961 0.682726 -0.169154
C27   C     C_R   0.641811 0.934358 0.683159 -0.224897
C28   C     C_R   0.596556 0.869374 0.623224 -0.187566
C29   C     C_R   0.551480 0.934862 0.563937 0.034232
C30   C     C_R   0.553133 0.067119 0.563075 -0.039854
C31   C     C_R   0.507884 0.128561 0.499065 -0.096950
C32   C     C_R   0.463848 0.062737 0.435163 -0.249290
C33   C     C_R   0.462692 0.934310 0.435784 -0.174634
C34   C     C_R   0.610499 0.503168 0.498921 0.956720
C35   C     C_R   0.505341 0.871596 0.501328 -0.034438
C36   C     C_R   0.444696 0.304057 0.140973 -0.090145
C37   C     C_R   0.434636 0.189118 0.077136 -0.214806
C38   C     C_R   0.441760 0.179332 0.937952 0.165983
C39   C     C_R   0.447056 0.293217 0.865754 0.205920
C40   C     C_R   0.473976 0.399917 0.928879 0.086731
C41   C     C_R   0.473432 0.402254 0.072867 -0.001457
C42   C     C_R   0.525689 0.593929 0.070971 0.659404
C43   C     C_R   0.525247 0.594306 0.928169 -0.230066
C44   C     C_R   0.882204 0.638525 0.496080 0.483892
C45   C     C_R   0.878425 0.413733 0.509834 0.544841
C46   C     C_R   0.938405 0.408917 0.512826 -0.065823
C47   C     C_R   0.969969 0.524297 0.509631 -0.061366
C48   C     C_R   0.941701 0.639814 0.501393 0.007239
H1    H     H_    0.681297 0.443585 0.291714 0.166627
H2    H     H_    0.678451 0.582008 0.701680 0.162981
H3    H     H_    0.782975 0.594269 0.698915 0.151403
H4    H     H_    0.429395 0.111238 0.387657 0.148185
H5    H     H_    0.679559 0.115240 0.727439 0.180611
H6    H     H_    0.675939 0.883140 0.728258 0.177758
H7    H     H_    0.597975 0.767821 0.622271 0.153433
H8    H     H_    0.427793 0.883450 0.387465 0.153502
H9    H     H_    0.049290 0.207732 0.533708 0.192629
H10   H     H_    0.428962 0.314538 0.241862 0.232428
H11   H     H_    0.417734 0.110467 0.134929 0.169300
H12   H     H_    0.546072 0.671232 0.874452 0.170786
H13   H     H_    0.055946 0.842966 0.497980 0.191354
H14   H     H_    0.952416 0.843221 0.491931 0.182494
H15   H     H_    0.219797 0.618905 0.702200 0.167355
H16   H     H_    0.324443 0.610027 0.693920 0.194778
H17   H     H_    0.211215 0.427638 0.319193 0.171346
N1    N     N_R   0.852292 0.526773 0.498929 -0.349952
N2    N     N_R   0.148085 0.524822 0.517961 -0.344975
N3    N     N_R   0.499460 0.498800 0.142780 -0.160111
N4    N     N_R   0.499440 0.498720 0.857170 -0.127454
O1    O     O_R   0.500000 0.316780 0.614690 -0.587641
O2    O     O_2   0.845979 0.307403 0.519709 -0.520785
O3    O     O_2   0.146625 0.304128 0.537883 -0.549636
O4    O     O_2   0.152085 0.745805 0.502061 -0.547471
O5    O     O_R   0.500000 0.316750 0.385360 -0.650153
O6    O     O_R   0.416160 0.499970 0.614690 -0.600093
O7    O     O_R   0.416150 0.499950 0.385360 -0.593023
O8    O     O_R   0.500000 0.683250 0.614640 -0.649732
O9    O     O_R   0.500000 0.683220 0.385310 -0.553332
O10   O     O_R   0.583850 0.500050 0.614640 -0.578227
O11   O     O_R   0.583840 0.500030 0.385310 -0.602166
O12   O     O_2   0.854219 0.747754 0.487241 -0.566911
Zn1   Zn    Zn3+2 0.500000 0.500020 0.653130 0.979855
Zn2   Zn    Zn3+2 0.500000 0.499980 0.346870 1.018229
N5    N     N_2   0.938444 0.175119 0.518480 -0.251660
H18   H     H_    0.955429 0.110138 0.582128 0.218117
C49   C     C_3   0.930199 0.123578 0.384830 -0.668297
H19   H     H_    0.972080 0.100078 0.337685 0.208376
H20   H     H_    0.908236 0.191854 0.320642 0.260557
H21   H     H_    0.903174 0.036431 0.391186 0.254654
F1    F     F_    0.607109 0.257786 0.619188 -0.683967
F2    F     F_    0.552828 0.689562 0.136810 -0.652530
N6    N     N_2   0.430949 0.061732 0.870715 -0.307207
H22   H     H_    0.432585 0.065466 0.767276 0.222696
C50   C     C_3   0.462574 0.956020 0.918923 -0.710670
H23   H     H_    0.451911 0.870779 0.857893 0.237847
H24   H     H_    0.451145 0.935052 0.025252 0.251100
H25   H     H_    0.509330 0.975942 0.909052 0.246384
N7    N     N_2   0.405644 0.311791 0.765626 -0.257786
H26   H     H_    0.403116 0.242224 0.693031 0.208130
C51   C     C_3   0.349525 0.341121 0.819689 -0.704450
H27   H     H_    0.318857 0.348052 0.736535 0.242032
H28   H     H_    0.351286 0.432194 0.875477 0.249019
H29   H     H_    0.333360 0.265410 0.887792 0.246258
F3    F     F_    0.320580 0.401598 0.289508 -0.680239
N8    N     N_2   0.794280 0.447076 0.261364 -0.304241
H30   H     H_    0.774042 0.376344 0.207056 0.235890
C52   C     C_3   0.813972 0.549493 0.176337 -0.763243
H31   H     H_    0.839645 0.511533 0.090894 0.240499
H32   H     H_    0.841463 0.616987 0.233176 0.266194
H33   H     H_    0.776912 0.599580 0.135750 0.244911

loop_
_geom_bond_atom_site_label_1
_geom_bond_atom_site_label_2
_ccdc_geom_bond_type
C45   O2    S    
C44   N1    A    
C19   C20   A    
C9    O3    S    
O5    Zn2   S    
C9    N2    A    
C27   H6    S    
C7    C8    A    
C45   C46   A    
C2    C46   A    
N8    C52   S    
C25   F1    S    
C29   C30   A    
C18   C24   A    
C1    O5    A    
N6    H22   S    
C28   C29   A    
N5    C49   S    
C18   C19   A    
C36   H10   S    
C30   C31   A    
C10   O4    S    
C49   H20   S    
C15   C16   A    
C38   N6    S    
C1    C31   S    
C42   F2    S    
C32   H4    S    
N4    Zn1   S    
C34   O11   A    
C2    N5    S    
O9    Zn2   S    
C7    H13   S    
C47   C48   A    
C16   C17   A    
C52   H31   S    
C15   F3    S    
C24   N1    S    
C20   C34   S    
C33   H8    S    
C43   N4    A    
C21   C22   A    
C42   N3    A    
C52   H32   S    
C36   C41   A    
O11   Zn2   S    
O7    Zn2   S    
N6    C50   S    
C21   H2    S    
C28   H7    S    
C41   N3    A    
C38   C39   A    
C17   N2    S    
C40   N4    A    
N5    H18   S    
C44   O12   S    
C39   C40   A    
C49   H19   S    
C39   N7    S    
C50   H25   S    
C25   C26   A    
C10   N2    A    
C51   H29   S    
C8    C48   A    
C37   C38   A    
C34   O10   A    
C5    C47   A    
C19   H1    S    
C31   C32   A    
C51   H28   S    
C26   C27   A    
C23   O8    A    
C50   H24   S    
C37   H11   S    
C43   H12   S    
C3    H9    S    
C40   C41   A    
C12   C14   S    
C23   C35   S    
C12   O7    A    
C52   H33   S    
C22   C24   A    
C42   C43   A    
C3    C4    A    
C26   H5    S    
C45   N1    A    
C25   C30   A    
C46   C47   A    
C11   C17   A    
N3    Zn2   S    
C4    C5    A    
C49   H21   S    
C6    C10   A    
O10   Zn1   S    
O6    Zn1   S    
C6    C7    A    
N8    H30   S    
C29   C35   A    
C11   H15   S    
C1    O1    A    
C32   C33   A    
C2    C3    A    
C18   N8    S    
C11   C13   A    
C5    C6    A    
C13   H16   S    
O8    Zn1   S    
C51   H27   S    
C33   C35   A    
C23   O9    A    
C50   H23   S    
O1    Zn1   S    
N7    C51   S    
C20   C21   A    
C36   C37   A    
N7    H26   S    
C12   O6    A    
C27   C28   A    
C14   C15   A    
C16   H17   S    
C4    C9    A    
C13   C14   A    
C44   C48   A    
C8    H14   S    
C22   H3    S    
