data_mof_unit_29258.cif
_audit_creation_date              2012-12-11T15:21:10-0500
_audit_creation_method            fapswitch 2.2
_symmetry_space_group_name_H-M    P1
_symmetry_Int_Tables_number       1
_space_group_crystal_system       triclinic
_cell_length_a                    18.354546
_cell_length_b                    18.326623
_cell_length_c                    51.222452
_cell_angle_alpha                 90.188267
_cell_angle_beta                  89.702687
_cell_angle_gamma                 120.057498
_cell_volume                      14912.7998138

loop_
_atom_site_label
_atom_site_type_symbol
_atom_type_description
_atom_site_fract_x
_atom_site_fract_y
_atom_site_fract_z
_atom_type_partial_charge
C1    C     C_R   0.408517 0.584185 0.287800 0.553294
C2    C     C_R   0.607374 0.500803 0.855174 -0.101582
C3    C     C_R   0.390308 0.865296 0.091200 0.421779
C4    C     C_R   0.545803 0.008723 0.398664 0.454911
C5    C     C_R   0.466336 0.014956 0.098287 0.421428
C6    C     C_R   0.499958 0.996122 0.339434 0.157574
C7    C     C_R   0.500069 0.914956 0.145067 0.153247
C8    C     C_R   0.490519 0.955855 0.315041 0.235545
C9    C     C_R   0.499546 0.891523 0.171160 0.286597
C10   C     C_R   0.378871 0.825077 0.333595 -0.193217
C11   C     C_R   0.361163 0.877022 0.176978 -0.198868
C12   C     C_R   0.391978 0.863436 0.357933 -0.107594
C13   C     C_R   0.544361 0.475446 0.635074 0.200024
C14   C     C_R   0.363072 0.902653 0.151314 -0.095864
C15   C     C_R   0.452652 0.948655 0.361147 0.234625
C16   C     C_R   0.431051 0.919441 0.135119 0.206393
C17   C     C_R   0.491437 0.026675 0.440249 -0.083058
C18   C     C_R   0.445108 0.959716 0.053967 -0.078821
C19   C     C_R   0.415307 0.006316 0.427749 0.018840
C20   C     C_R   0.398584 0.877391 0.064090 0.029397
C21   C     C_R   0.349584 0.003858 0.442366 -0.118765
C22   C     C_R   0.363073 0.808730 0.047006 -0.119037
C23   C     C_R   0.018532 0.561449 0.402202 0.398322
C24   C     C_R   0.526484 0.487331 0.859857 0.249079
C25   C     C_R   0.164071 0.550371 0.086579 0.465571
C26   C     C_R   0.558677 0.031131 0.425392 0.023613
C27   C     C_R   0.476413 0.029634 0.071102 0.027212
C28   C     C_R   0.428365 0.870272 0.312162 0.013698
C29   C     C_R   0.427515 0.867935 0.186959 -0.015375
C30   C     C_R   0.569336 0.145417 0.685155 -0.004432
C31   C     C_R   0.558844 0.130305 0.812860 -0.018331
C32   C     C_R   0.440506 0.049660 0.509992 -0.021426
C33   C     C_R   0.433387 0.915964 0.981902 -0.020647
C34   C     C_R   0.578704 0.057082 0.508179 0.033877
C35   C     C_R   0.541435 0.598060 0.488543 0.027245
C36   C     C_R   0.533647 0.066209 0.990051 0.033307
C37   C     C_R   0.512047 0.056316 0.522860 -0.022349
C38   C     C_R   0.489282 0.998217 0.972398 -0.019551
C39   C     C_R   0.378358 0.053883 0.525221 -0.125842
C40   C     C_R   0.390139 0.850562 0.963581 -0.141490
C41   C     C_R   0.383175 0.060229 0.552341 0.261879
C42   C     C_R   0.397977 0.865524 0.936662 0.266225
C43   C     C_R   0.450984 0.061178 0.565486 0.029310
C44   C     C_R   0.454401 0.947070 0.927107 0.039048
C45   C     C_R   0.515872 0.060263 0.550650 -0.098343
C46   C     C_R   0.470091 0.597353 0.004746 0.053440
C47   C     C_R   0.501501 0.012810 0.945069 -0.098259
C48   C     C_R   0.012355 0.528905 0.340924 0.105588
C49   C     C_R   0.097469 0.594786 0.144316 0.108685
C50   C     C_R   0.583824 0.061498 0.563658 -0.011199
C51   C     C_R   0.560868 0.093590 0.935762 -0.021273
C52   C     C_R   0.588877 0.067865 0.591042 0.399478
C53   C     C_R   0.569632 0.109169 0.908841 0.469208
C54   C     C_R   0.456966 0.064966 0.593049 0.474345
C55   C     C_R   0.464169 0.965617 0.900082 0.445365
C56   C     C_R   0.566330 0.178914 0.639201 0.273034
C57   C     C_R   0.539812 0.535844 0.471531 -0.021057
C58   C     C_R   0.494552 0.119559 0.855638 0.266219
C59   C     C_R   0.577901 0.203151 0.665566 0.024451
C60   C     C_R   0.513956 0.153653 0.830342 0.027920
C61   C     C_R   0.547314 0.062500 0.678220 0.240076
C62   C     C_R   0.581172 0.070235 0.820905 0.195981
C63   C     C_R   0.530145 0.036508 0.651926 0.108051
C64   C     C_R   0.566419 0.040847 0.846808 0.104878
C65   C     C_R   0.541085 0.095292 0.632387 0.179332
C66   C     C_R   0.524507 0.066600 0.864199 0.211097
C67   C     C_R   0.432039 0.036761 0.482478 0.035948
C68   C     C_R   0.464906 0.532624 0.021247 -0.031032
C69   C     C_R   0.422772 0.901872 0.009350 0.035585
C70   C     C_R   0.499539 0.040546 0.467775 0.016113
C71   C     C_R   0.459664 0.971986 0.026637 0.011220
C72   C     C_R   0.051864 0.553065 0.316499 -0.098760
C73   C     C_R   0.113077 0.609161 0.171146 -0.153286
C74   C     C_R   0.574960 0.057474 0.480344 -0.019168
C75   C     C_R   0.510666 0.054452 0.016819 -0.022133
C76   C     C_R   0.357510 0.018535 0.469088 -0.141833
C77   C     C_R   0.374707 0.820376 0.020232 -0.151255
C78   C     C_R   0.636280 0.056882 0.437834 0.255974
C79   C     C_R   0.542018 0.465402 0.481864 -0.035222
C80   C     C_R   0.517170 0.111756 0.060589 0.246938
C81   C     C_R   0.644266 0.052924 0.521891 0.241373
C82   C     C_R   0.601383 0.142748 0.980269 0.231555
C83   C     C_R   0.645206 0.055255 0.549272 -0.095129
C84   C     C_R   0.611766 0.156850 0.953466 -0.100755
C85   C     C_R   0.644717 0.075480 0.464448 -0.103891
C86   C     C_R   0.532542 0.123056 0.033766 -0.099995
C87   C     C_R   0.513588 0.614517 0.407122 0.406404
C88   C     C_R   0.461376 0.618698 0.087172 0.446241
C89   C     C_R   0.529265 0.493654 0.399606 0.432085
C90   C     C_R   0.459188 0.458934 0.010319 -0.030950
C91   C     C_R   0.475419 0.496265 0.092555 0.420444
C92   C     C_R   0.420630 0.491999 0.353207 -0.069418
C93   C     C_R   0.399055 0.494133 0.144627 -0.032601
C94   C     C_R   0.392735 0.497230 0.328236 0.070515
C95   C     C_R   0.386774 0.496658 0.171490 0.082329
C96   C     C_R   0.169240 0.541107 0.332626 -0.147467
C97   C     C_R   0.158059 0.505464 0.172308 -0.143288
C98   C     C_R   0.518545 0.634334 0.322553 -0.175985
C99   C     C_R   0.497086 0.643973 0.171973 -0.166997
C100  C     C_R   0.545552 0.628171 0.347479 -0.065064
C101  C     C_R   0.524154 0.658623 0.478021 -0.149103
C102  C     C_R   0.510420 0.639810 0.145239 -0.064961
C103  C     C_R   0.495754 0.557837 0.363168 0.214284
C104  C     C_R   0.459724 0.565494 0.131214 0.215679
C105  C     C_R   0.533853 0.543392 0.444096 -0.088552
C106  C     C_R   0.465861 0.542025 0.048828 -0.088740
C107  C     C_R   0.522570 0.608766 0.434099 0.042536
C108  C     C_R   0.462954 0.611135 0.059841 0.041462
C109  C     C_R   0.516237 0.664779 0.451341 -0.120071
C110  C     C_R   0.458163 0.669334 0.043323 -0.131482
C111  C     C_R   0.537163 0.484847 0.426792 -0.018032
C112  C     C_R   0.408003 0.584491 0.211985 0.563034
C113  C     C_R   0.460447 0.661959 0.016342 -0.118809
C114  C     C_R   0.469085 0.482199 0.065333 -0.019393
C115  C     C_R   0.441039 0.570258 0.312754 0.040434
C116  C     C_R   0.433644 0.573464 0.185353 0.038849
C117  C     C_R   0.571841 0.442413 0.686975 0.015912
C118  C     C_R   0.566992 0.444302 0.811287 0.067260
C119  C     C_R   0.554087 0.594175 0.515754 0.026791
C120  C     C_R   0.483449 0.594015 0.977347 0.053721
C121  C     C_R   0.132970 0.521758 0.357604 0.289751
C122  C     C_R   0.142170 0.490253 0.145594 0.277270
C123  C     C_R   0.530725 0.450712 0.509293 0.025854
C124  C     C_R   0.547721 0.419205 0.437160 0.279797
C125  C     C_R   0.448559 0.446511 0.982955 0.028017
C126  C     C_R   0.540062 0.516540 0.526176 0.015328
C127  C     C_R   0.468385 0.516154 0.966533 -0.001680
C128  C     C_R   0.578864 0.663650 0.533209 0.079131
C129  C     C_R   0.514433 0.665231 0.960394 0.073134
C130  C     C_R   0.573321 0.650329 0.560111 -0.060885
C131  C     C_R   0.523479 0.656201 0.933580 -0.099594
C132  C     C_R   0.549677 0.571099 0.570600 -0.002275
C133  C     C_R   0.504730 0.578503 0.922776 0.003049
C134  C     C_R   0.535028 0.504451 0.553669 -0.037343
C135  C     C_R   0.466519 0.410300 0.054210 0.273668
C136  C     C_R   0.475258 0.507808 0.939188 -0.048329
C137  C     C_R   0.515643 0.425756 0.564192 0.027499
C138  C     C_R   0.454639 0.428848 0.928401 0.030216
C139  C     C_R   0.512309 0.415206 0.591456 0.403859
C140  C     C_R   0.468300 0.422767 0.901707 0.439527
C141  C     C_R   0.546050 0.558623 0.597793 0.410190
C142  C     C_R   0.518781 0.570595 0.896072 0.438715
C143  C     C_R   0.626786 0.506401 0.644102 0.170149
C144  C     C_R   0.466298 0.456412 0.839940 0.146080
C145  C     C_3   0.951389 0.643099 0.677523 -0.001274
C146  C     C_R   0.506846 0.371400 0.520410 -0.130260
C147  C     C_3   0.954985 0.703896 0.698443 -0.359875
C148  C     C_3   0.005782 0.614256 0.792609 0.003583
C149  C     C_3   0.010456 0.685424 0.776151 -0.349173
C150  C     C_3   0.241077 0.582677 0.386508 -0.015894
C151  C     C_3   0.282506 0.565628 0.409509 -0.341153
C152  C     C_3   0.101634 0.353033 0.137695 -0.021865
C153  C     C_3   0.122790 0.295022 0.122241 -0.370151
C154  C     C_3   0.654279 0.275537 0.609114 0.001520
C155  C     C_3   0.650962 0.302096 0.581232 -0.339281
C156  C     C_3   0.370577 0.088338 0.874961 -0.011849
C157  C     C_R   0.417874 0.366487 0.971387 -0.118230
C158  C     C_3   0.329335 0.119296 0.894469 -0.352643
C159  C     C_3   0.332255 0.142624 0.567497 0.012579
C160  C     C_3   0.259225 0.142394 0.581702 -0.331464
C161  C     C_3   0.268507 0.769960 0.920597 -0.001600
C162  C     C_3   0.225306 0.709614 0.898009 -0.323585
C163  C     C_3   0.613449 0.001328 0.292480 0.004679
C164  C     C_3   0.643312 0.012269 0.264277 -0.363329
C165  C     C_3   0.628705 0.961859 0.189671 0.010375
C166  C     C_3   0.698314 0.951641 0.201954 -0.366829
C167  C     C_3   0.714178 0.995629 0.428177 0.004898
C168  C     C_R   0.963682 0.468657 0.439865 -0.061574
C169  C     C_3   0.789712 0.005174 0.412903 -0.351477
C170  C     C_3   0.618998 0.232546 0.079861 0.005433
C171  C     C_3   0.631878 0.297285 0.100694 -0.337480
C172  C     C_3   0.782857 0.086644 0.515398 -0.030433
C173  C     C_3   0.839776 0.078592 0.495266 -0.387325
C174  C     C_3   0.732831 0.194094 0.997894 -0.013978
C175  C     C_3   0.738882 0.163013 0.024875 -0.380904
C176  C     C_3   0.606663 0.993665 0.698404 0.011670
C177  C     C_3   0.576962 0.900586 0.702183 -0.356875
C178  C     C_3   0.566938 0.977821 0.788984 -0.004586
C179  C     C_R   0.065495 0.494761 0.050365 -0.064538
C180  C     C_3   0.612353 0.937678 0.775605 -0.355964
C181  C     C_3   0.480264 0.287090 0.419736 0.024114
C182  C     C_3   0.491624 0.224793 0.402974 -0.327646
C183  C     C_3   0.378096 0.287550 0.074586 0.021936
C184  C     C_3   0.372337 0.218947 0.092538 -0.323758
C185  C     C_3   0.660184 0.391279 0.478360 0.003250
C186  C     C_3   0.680573 0.324214 0.487092 -0.362677
C187  C     C_3   0.567349 0.367488 0.016136 0.005631
C188  C     C_3   0.587068 0.334862 0.991292 -0.369421
C189  C     C_R   0.501060 0.359747 0.547274 -0.150687
C190  C     C_R   0.421838 0.357920 0.944584 -0.133403
C191  C     C_R   0.554589 0.412349 0.464266 0.230585
C192  C     C_R   0.053853 0.514920 0.361857 0.250519
C193  C     C_R   0.467109 0.401682 0.027053 0.245526
C194  C     C_R   0.591802 0.176216 0.712232 0.595901
C195  C     C_R   0.591121 0.175693 0.787737 0.577776
C196  C     C_R   0.824111 0.415218 0.712214 0.559715
C197  C     C_R   0.825578 0.416156 0.787399 0.562343
C198  C     C_R   0.584462 0.409566 0.712296 0.576970
C199  C     C_R   0.583820 0.409335 0.787428 0.605572
C200  C     C_R   0.964277 0.403358 0.425188 0.062567
C201  C     C_R   0.997634 0.463547 0.068374 0.064095
C202  C     C_R   0.940756 0.325801 0.437693 0.109072
C203  C     C_R   0.113338 0.536159 0.131451 0.297869
C204  C     C_R   0.914417 0.420347 0.058827 0.109690
C205  C     C_R   0.988780 0.547188 0.428064 0.030971
C206  C     C_R   0.148980 0.537136 0.059622 0.013588
C207  C     C_R   0.130263 0.559384 0.312301 -0.055928
C208  C     C_R   0.144640 0.565566 0.185272 -0.048497
C209  C     C_R   0.859150 0.422495 0.685652 0.023370
C210  C     C_R   0.876170 0.430860 0.811288 0.006508
C211  C     C_R   0.925139 0.380916 0.507304 0.015532
C212  C     C_R   0.951874 0.449973 0.986763 0.011600
C213  C     C_R   0.905352 0.504229 0.507262 0.016071
C214  C     C_R   0.640937 0.491576 0.669849 0.073279
C215  C     C_R   0.101297 0.497030 0.977722 0.049996
C216  C     C_R   0.911574 0.440471 0.521014 0.011129
C217  C     C_R   0.018681 0.471686 0.968737 0.005617
C218  C     C_R   0.175240 0.591079 0.287485 0.533611
C219  C     C_R   0.177511 0.592052 0.211972 0.547828
C220  C     C_R   0.937953 0.322909 0.521766 -0.157070
C221  C     C_R   0.872443 0.431700 0.977167 -0.153408
C222  C     C_R   0.937034 0.323378 0.548913 -0.119872
C223  C     C_R   0.857611 0.429900 0.950643 -0.115685
C224  C     C_R   0.920873 0.380091 0.562646 0.034334
C225  C     C_R   0.486540 0.435210 0.815447 0.046984
C226  C     C_R   0.921429 0.446547 0.932591 0.032840
C227  C     C_R   0.905262 0.436856 0.548656 -0.044657
C228  C     C_R   0.002176 0.467292 0.941515 -0.042511
C229  C     C_R   0.884186 0.490505 0.562256 -0.005290
C230  C     C_R   0.066009 0.483119 0.923242 -0.000353
C231  C     C_R   0.879352 0.487037 0.589717 0.402429
C232  C     C_R   0.048426 0.478538 0.896314 0.411582
C233  C     C_R   0.920889 0.381859 0.590112 0.422249
C234  C     C_R   0.906045 0.442974 0.905703 0.425224
C235  C     C_R   0.843208 0.352689 0.643942 -0.113117
C236  C     C_R   0.489334 0.415807 0.677944 0.041973
C237  C     C_R   0.906132 0.371447 0.849323 -0.074393
C238  C     C_R   0.827559 0.348637 0.670570 -0.210415
C239  C     C_R   0.869751 0.361162 0.824815 -0.187131
C240  C     C_R   0.912408 0.501415 0.673926 0.247797
C241  C     C_R   0.926211 0.512644 0.821932 0.235502
C242  C     C_R   0.415853 0.825236 0.287360 0.574706
C243  C     C_R   0.415737 0.824373 0.212280 0.558168
C244  C     C_R   0.930650 0.504196 0.646906 -0.046277
C245  C     C_R   0.961285 0.521986 0.846797 -0.052907
C246  C     C_R   0.892559 0.430461 0.631628 0.189909
C247  C     C_R   0.628155 0.479409 0.831137 0.020886
C248  C     C_R   0.949739 0.451399 0.860711 0.199876
C249  C     C_R   0.929342 0.383774 0.479652 -0.008238
C250  C     C_R   0.966531 0.448831 0.013818 -0.007218
C251  C     C_R   0.940615 0.456618 0.466708 0.020818
C252  C     C_R   0.050013 0.484633 0.023002 0.016788
C253  C     C_R   0.932759 0.519220 0.480756 0.012659
C254  C     C_R   0.118181 0.512287 0.005032 0.039098
C255  C     C_R   0.925410 0.317536 0.464601 -0.142941
C256  C     C_R   0.899928 0.413467 0.032040 -0.147236
C257  C     C_R   0.987427 0.611229 0.442735 -0.110671
C258  C     C_R   0.476455 0.432300 0.652142 -0.080136
C259  C     C_R   0.215697 0.568057 0.041728 -0.132492
C260  C     C_R   0.873507 0.550446 0.520963 0.074213
C261  C     C_R   0.162384 0.504472 0.958919 0.072495
C262  C     C_R   0.864906 0.543943 0.548100 -0.067442
C263  C     C_R   0.144735 0.499750 0.932205 -0.117528
C264  C     C_R   0.959973 0.597491 0.468543 -0.151298
C265  C     C_R   0.200749 0.557889 0.015045 -0.120374
C266  C     C_R   0.989771 0.418652 0.398661 0.477961
C267  C     C_R   0.015431 0.476773 0.095348 0.450568
C268  C     C_R   0.405365 0.986152 0.401000 0.411210
Cr1   Cr    Cr6+3 0.456550 0.732290 0.250000 1.009575
Cr2   Cr    Cr6+3 0.275740 0.543450 0.250000 1.049934
Cr3   Cr    Cr6+3 0.267710 0.724260 0.250000 1.031649
Cr4   Cr    Cr6+3 0.543450 0.275740 0.750000 1.068932
Cr5   Cr    Cr6+3 0.724260 0.267710 0.750000 1.026170
Cr6   Cr    Cr6+3 0.732290 0.456550 0.750000 1.034937
H1    H     H_    0.229710 0.545463 0.329407 0.133471
H2    H     H_    0.255356 0.590836 0.002699 0.150950
H3    H     H_    0.270865 0.207847 0.583242 0.110749
H4    H     H_    0.199840 0.103403 0.570809 0.152505
H5    H     H_    0.255947 0.823326 0.918778 0.127096
H6    H     H_    0.240327 0.735325 0.939087 0.116949
H7    H     H_    0.237789 0.656345 0.898944 0.187856
H8    H     H_    0.156283 0.684272 0.899075 0.097854
H9    H     H_    0.249433 0.743100 0.879147 0.183639
H10   H     H_    0.608577 0.941887 0.299980 0.143651
H11   H     H_    0.661980 0.054962 0.303981 0.137134
H12   H     H_    0.651490 0.072172 0.256265 0.158591
H13   H     H_    0.331770 0.758983 0.331653 0.123810
H14   H     H_    0.704436 0.013670 0.263168 0.090405
H15   H     H_    0.596337 0.958808 0.252354 0.178975
H16   H     H_    0.603002 0.986661 0.204854 0.115212
H17   H     H_    0.656610 0.008583 0.173531 0.150663
H18   H     H_    0.726665 0.928900 0.187111 0.163861
H19   H     H_    0.747991 0.013194 0.209732 0.091800
H20   H     H_    0.672370 0.905458 0.218217 0.158401
H21   H     H_    0.617327 0.098329 0.338969 0.252799
H22   H     H_    0.540490 0.116302 0.328257 0.251197
H23   H     H_    0.596067 0.991353 0.121057 0.226423
H24   H     H_    0.305607 0.860501 0.188621 0.146615
H25   H     H_    0.546950 0.887764 0.112968 0.260884
H26   H     H_    0.657196 0.937276 0.421297 0.166150
H27   H     H_    0.724121 0.988177 0.449198 0.133070
H28   H     H_    0.848310 0.060385 0.420206 0.142997
H29   H     H_    0.794854 0.947734 0.415339 0.101423
H30   H     H_    0.782320 0.013955 0.391832 0.196241
H31   H     H_    0.650454 0.266525 0.061561 0.107234
H32   H     H_    0.648648 0.195843 0.086774 0.142150
H33   H     H_    0.597175 0.264844 0.118761 0.195687
H34   H     H_    0.699623 0.336428 0.105461 0.121977
H35   H     H_    0.355599 0.826354 0.374523 0.143228
H36   H     H_    0.608223 0.338816 0.093605 0.194772
H37   H     H_    0.798068 0.069696 0.534592 0.147118
H38   H     H_    0.797799 0.153563 0.515757 0.124140
H39   H     H_    0.832170 0.100540 0.475863 0.133282
H40   H     H_    0.906548 0.117879 0.501258 0.097804
H41   H     H_    0.824319 0.011881 0.493731 0.171909
H42   H     H_    0.789304 0.256908 0.994719 0.153705
H43   H     H_    0.735499 0.151177 0.982844 0.130272
H44   H     H_    0.685613 0.098088 0.028047 0.156299
H45   H     H_    0.798887 0.162472 0.026584 0.110080
H46   H     H_    0.309851 0.905764 0.143622 0.135879
H47   H     H_    0.737067 0.205273 0.040097 0.136188
H48   H     H_    0.645886 0.029255 0.715394 0.148488
H49   H     H_    0.647656 0.015534 0.680618 0.135683
H50   H     H_    0.543221 0.864584 0.684490 0.188493
H51   H     H_    0.631860 0.891944 0.705611 0.096458
H52   H     H_    0.533586 0.875552 0.719169 0.159560
H53   H     H_    0.539860 0.000416 0.773758 0.146108
H54   H     H_    0.514730 0.928156 0.800937 0.122224
H55   H     H_    0.642828 0.917746 0.790429 0.164965
H56   H     H_    0.566612 0.881307 0.764460 0.095450
H57   H     H_    0.290448 0.988565 0.433247 0.161479
H58   H     H_    0.661175 0.983453 0.762050 0.156683
H59   H     H_    0.974924 0.237836 0.431799 0.220745
H60   H     H_    0.872575 0.204996 0.425730 0.257449
H61   H     H_    0.805662 0.410235 0.071771 0.221060
H62   H     H_    0.808658 0.319385 0.072479 0.205038
H63   H     H_    0.543144 0.946774 0.632812 0.259147
H64   H     H_    0.442771 0.926553 0.635717 0.252574
H65   H     H_    0.570705 0.932723 0.844959 0.253516
H66   H     H_    0.662887 0.019450 0.852984 0.256196
H67   H     H_    0.741008 0.562511 0.693379 0.250553
H68   H     H_    0.326294 0.745166 0.054393 0.167751
H69   H     H_    0.734474 0.471525 0.681317 0.254331
H70   H     H_    0.372586 0.348303 0.801167 0.237111
H71   H     H_    0.408198 0.448421 0.790612 0.228899
H72   H     H_    0.688954 0.509683 0.610858 0.250248
H73   H     H_    0.699802 0.603824 0.619923 0.254954
H74   H     H_    0.339844 0.380236 0.842680 0.233340
H75   H     H_    0.371610 0.479386 0.831940 0.233676
H76   H     H_    0.581383 0.773367 0.524400 0.238540
H77   H     H_    0.652502 0.757071 0.506790 0.247705
H78   H     H_    0.609770 0.785018 0.965276 0.241398
H79   H     H_    0.324636 0.053435 0.516729 0.119419
H80   H     H_    0.513965 0.775297 0.960953 0.239678
H81   H     H_    0.267043 0.422139 0.332623 0.240477
H82   H     H_    0.316936 0.374179 0.319496 0.237822
H83   H     H_    0.267276 0.400101 0.175155 0.231284
H84   H     H_    0.342290 0.375139 0.181620 0.228272
H85   H     H_    0.430374 0.296557 0.410825 0.135952
H86   H     H_    0.458990 0.258660 0.439466 0.152124
H87   H     H_    0.538873 0.211687 0.411947 0.168424
H88   H     H_    0.430798 0.164799 0.401405 0.119770
H89   H     H_    0.513160 0.250965 0.383084 0.192927
H90   H     H_    0.348158 0.786500 0.969428 0.108669
H91   H     H_    0.344712 0.257374 0.056089 0.137100
H92   H     H_    0.345420 0.317662 0.084400 0.124980
H93   H     H_    0.410830 0.247422 0.110305 0.193276
H94   H     H_    0.305811 0.176654 0.098451 0.078345
H95   H     H_    0.394994 0.180851 0.082186 0.213142
H96   H     H_    0.377631 0.312298 0.686127 0.243147
H97   H     H_    0.386015 0.404330 0.695975 0.231049
H98   H     H_    0.754978 0.551268 0.830666 0.258279
H99   H     H_    0.717688 0.452123 0.841908 0.251501
H100  H     H_    0.677701 0.438230 0.494397 0.152179
H101  H     H_    0.302332 0.011964 0.478738 0.105728
H102  H     H_    0.698521 0.422913 0.460650 0.159847
H103  H     H_    0.663608 0.276067 0.471521 0.172144
H104  H     H_    0.748832 0.353589 0.491166 0.112348
H105  H     H_    0.644728 0.292911 0.505129 0.149024
H106  H     H_    0.584327 0.342069 0.033267 0.175280
H107  H     H_    0.608249 0.437663 0.016205 0.115214
H108  H     H_    0.577452 0.365333 0.973985 0.159710
H109  H     H_    0.653632 0.349820 0.991516 0.128624
H110  H     H_    0.545126 0.265599 0.989699 0.181108
H111  H     H_    0.185010 0.473013 0.182518 0.151172
H112  H     H_    0.346400 0.763573 0.008733 0.091552
H113  H     H_    0.692695 0.048579 0.559621 0.161014
H114  H     H_    0.661556 0.217566 0.946657 0.172432
H115  H     H_    0.707465 0.105417 0.472149 0.169607
H116  H     H_    0.557792 0.186199 0.026334 0.178246
H117  H     H_    0.557218 0.690896 0.311309 0.133761
H118  H     H_    0.534261 0.703644 0.181908 0.172665
H119  H     H_    0.603786 0.679640 0.354999 0.144032
H120  H     H_    0.558705 0.695233 0.135319 0.158770
H121  H     H_    0.503642 0.713060 0.444292 0.152063
H122  H     H_    0.008684 0.672952 0.434386 0.164948
H123  H     H_    0.452546 0.721101 0.051252 0.160681
H124  H     H_    0.591541 0.703956 0.572899 0.182518
H125  H     H_    0.548319 0.711750 0.921313 0.172331
H126  H     H_    0.785542 0.287366 0.678980 0.152921
H127  H     H_    0.832600 0.297834 0.817151 0.159267
H128  H     H_    0.512452 0.699547 0.490272 0.122421
H129  H     H_    0.450623 0.705562 0.004941 0.153470
H130  H     H_    0.381627 0.437889 0.365400 0.123689
H131  H     H_    0.359677 0.436263 0.134026 0.135978
H132  H     H_    0.488585 0.315899 0.508734 0.173949
H133  H     H_    0.280293 0.601829 0.048307 0.154382
H134  H     H_    0.389184 0.309233 0.982766 0.174642
H135  H     H_    0.485606 0.298559 0.554729 0.128136
H136  H     H_    0.400883 0.295639 0.936654 0.153429
H137  H     H_    0.413030 0.409087 0.645101 0.136390
H138  H     H_    0.653018 0.523717 0.870834 0.135259
H139  H     H_    0.813520 0.294933 0.632705 0.152608
H140  H     H_    0.896091 0.316544 0.860185 0.144013
H141  H     H_    0.949095 0.278860 0.559140 0.159170
H142  H     H_    0.795438 0.415208 0.944324 0.164860
H143  H     H_    0.953328 0.279293 0.512518 0.104697
H144  H     H_    0.841703 0.580569 0.558087 0.178867
H145  H     H_    0.820825 0.421046 0.989785 0.111360
H146  H     H_    0.908626 0.257546 0.473306 0.097691
H147  H     H_    0.834978 0.378321 0.026047 0.107243
H148  H     H_    0.021088 0.566280 0.300715 0.153542
H149  H     H_    0.103541 0.656678 0.180624 0.138697
H150  H     H_    0.931882 0.561145 0.357543 0.276100
H151  H     H_    0.890046 0.456998 0.351249 0.249527
H152  H     H_    0.011454 0.630602 0.138158 0.240941
H153  H     H_    0.112076 0.705824 0.132016 0.232726
H154  H     H_    0.819094 0.572453 0.489031 0.230369
H155  H     H_    0.192905 0.506923 0.918420 0.163557
H156  H     H_    0.880766 0.658967 0.508204 0.235223
H157  H     H_    0.239498 0.455166 0.958790 0.245063
H158  H     H_    0.289515 0.561652 0.958023 0.231233
H159  H     H_    0.894772 0.625116 0.665286 0.177156
H160  H     H_    0.009092 0.676335 0.665276 0.139217
H161  H     H_    0.011801 0.724915 0.710715 0.157512
H162  H     H_    0.957739 0.759882 0.689147 0.107969
H163  H     H_    0.898023 0.672417 0.711047 0.157832
H164  H     H_    0.001297 0.564416 0.779049 0.135091
H165  H     H_    0.064669 0.639417 0.804233 0.126604
H166  H     H_    0.972705 0.563507 0.637478 0.131985
H167  H     H_    0.016180 0.737014 0.788973 0.154328
H168  H     H_    0.066126 0.710721 0.762999 0.100504
H169  H     H_    0.952779 0.661632 0.764102 0.172601
H170  H     H_    0.219126 0.626509 0.393118 0.153475
H171  H     H_    0.289412 0.613527 0.370879 0.130372
H172  H     H_    0.307351 0.524027 0.403333 0.169751
H173  H     H_    0.335421 0.625945 0.416875 0.132039
H174  H     H_    0.235964 0.534586 0.425506 0.159919
H175  H     H_    0.038222 0.340555 0.131532 0.155234
H176  H     H_    0.100044 0.337889 0.158802 0.116796
H177  H     H_    0.994219 0.583777 0.855780 0.126355
H178  H     H_    0.185480 0.305459 0.128135 0.147170
H179  H     H_    0.074643 0.228250 0.126051 0.100368
H180  H     H_    0.123860 0.307884 0.101022 0.164490
H181  H     H_    0.554458 0.299121 0.664477 0.277375
H182  H     H_    0.657839 0.328800 0.664072 0.217766
H183  H     H_    0.521725 0.266711 0.836361 0.274862
H184  H     H_    0.427958 0.190537 0.824604 0.237665
H185  H     H_    0.683151 0.234630 0.608452 0.142523
H186  H     H_    0.695837 0.333097 0.620533 0.148847
H187  H     H_    0.633268 0.351741 0.581177 0.184729
H188  H     H_    0.965657 0.650916 0.479165 0.124254
H189  H     H_    0.713792 0.327818 0.571877 0.099505
H190  H     H_    0.604353 0.247088 0.569723 0.148705
H191  H     H_    0.360246 0.026369 0.881882 0.146382
H192  H     H_    0.339282 0.079658 0.855712 0.115971
H193  H     H_    0.336207 0.179998 0.887761 0.199433
H194  H     H_    0.261306 0.072155 0.896301 0.089181
H195  H     H_    0.359398 0.128559 0.913897 0.163032
H196  H     H_    0.337769 0.170215 0.547727 0.098472
H197  H     H_    0.390529 0.182868 0.578834 0.197760
H198  H     H_    0.252731 0.116233 0.601659 0.191846
N1    N     N_R   0.017996 0.497330 0.387821 -0.385835
N2    N     N_R   0.467909 0.561651 0.103196 -0.388118
N3    N     N_R   0.530102 0.482148 0.607787 -0.383914
N4    N     N_R   0.502442 0.493741 0.886160 -0.358349
N5    N     N_3   0.929693 0.517584 0.343936 -0.611182
N6    N     N_3   0.068237 0.641717 0.129829 -0.589683
N7    N     N_3   0.837443 0.594350 0.508070 -0.654583
N8    N     N_3   0.239218 0.507996 0.966448 -0.651190
N9    N     N_3   0.599715 0.287285 0.672526 -0.599889
N10   N     N_3   0.493136 0.216592 0.823148 -0.564489
N11   N     N_3   0.555751 0.085016 0.342335 -0.574748
N12   N     N_R   0.097527 0.521017 0.103902 -0.362366
N13   N     N_3   0.569640 0.930292 0.128558 -0.596662
N14   N     N_3   0.934005 0.255249 0.423440 -0.548302
N15   N     N_3   0.843408 0.384130 0.076154 -0.566789
N16   N     N_3   0.500060 0.949909 0.645497 -0.582266
N17   N     N_3   0.597792 0.988061 0.856039 -0.564758
N18   N     N_3   0.726593 0.522757 0.677216 -0.584904
N19   N     N_3   0.425713 0.403563 0.794810 -0.610683
N20   N     N_3   0.697483 0.549071 0.626761 -0.550031
N21   N     N_3   0.384084 0.444002 0.845261 -0.586174
N22   N     N_3   0.622966 0.750083 0.524842 -0.633033
N23   N     N_R   0.899610 0.434533 0.603408 -0.379730
N24   N     N_3   0.546035 0.748985 0.970247 -0.652288
N25   N     N_3   0.313692 0.429532 0.319325 -0.587780
N26   N     N_3   0.325222 0.421191 0.184323 -0.597253
N27   N     N_3   0.417966 0.370571 0.694784 -0.590832
N28   N     N_3   0.709637 0.488069 0.827614 -0.577618
N29   N     N_R   0.969188 0.458686 0.888031 -0.383010
N30   N     N_R   0.469159 0.984644 0.387077 -0.370666
N31   N     N_R   0.427015 0.933701 0.107764 -0.400936
N32   N     N_R   0.526827 0.071524 0.605222 -0.374910
N33   N     N_R   0.519660 0.046248 0.891524 -0.356573
N34   N     N_R   0.516011 0.556801 0.390306 -0.389321
O1    O     O_R   0.475290 0.813700 0.278840 -0.522398
O2    O     O_2   0.422453 0.910854 0.884125 -0.479711
O3    O     O_2   0.601864 0.008417 0.385790 -0.475450
O4    O     O_2   0.494356 0.073992 0.113619 -0.491426
O5    O     O_2   0.649591 0.072319 0.602296 -0.551821
O6    O     O_2   0.621413 0.179005 0.900683 -0.478301
O7    O     O_2   0.501807 0.669980 0.398559 -0.546796
O8    O     O_2   0.452961 0.675292 0.096716 -0.475772
O9    O     O_2   0.558673 0.616143 0.612639 -0.522851
O10   O     O_2   0.546585 0.632025 0.881724 -0.507214
O11   O     O_2   0.533749 0.445163 0.384138 -0.471983
O12   O     O_R   0.475290 0.813700 0.221160 -0.475191
O13   O     O_2   0.488447 0.450877 0.106899 -0.491170
O14   O     O_2   0.495226 0.347039 0.600737 -0.510069
O15   O     O_2   0.451706 0.354720 0.892321 -0.516322
O16   O     O_R   0.448450 0.657720 0.276690 -0.513145
O17   O     O_R   0.448450 0.657720 0.223310 -0.504200
O18   O     O_R   0.524710 0.338410 0.721160 -0.450717
O19   O     O_R   0.524710 0.338410 0.778840 -0.468672
O20   O     O_R   0.551550 0.209270 0.723310 -0.469546
O21   O     O_R   0.551550 0.209270 0.776690 -0.474881
O22   O     O_R   0.661590 0.186300 0.721160 -0.528873
O23   O     O_2   0.046376 0.631430 0.392548 -0.531185
O24   O     O_R   0.661590 0.186300 0.778840 -0.467004
O25   O     O_R   0.790730 0.342280 0.723310 -0.507280
O26   O     O_R   0.790730 0.342280 0.776690 -0.510095
O27   O     O_R   0.813700 0.475290 0.721160 -0.489048
O28   O     O_R   0.813700 0.475290 0.778840 -0.443708
O29   O     O_R   0.657720 0.448450 0.723310 -0.526410
O30   O     O_R   0.657720 0.448450 0.776690 -0.470745
O31   O     O_3   0.666667 0.333333 0.750000 -0.250669
O32   O     O_R   0.338410 0.524710 0.278840 -0.460021
O33   O     O_R   0.338410 0.524710 0.221160 -0.466946
O34   O     O_2   0.236327 0.588695 0.094692 -0.436162
O35   O     O_R   0.209270 0.551550 0.276690 -0.486422
O36   O     O_R   0.209270 0.551550 0.223310 -0.499804
O37   O     O_R   0.186300 0.661590 0.278840 -0.501216
O38   O     O_R   0.186300 0.661590 0.221160 -0.510720
O39   O     O_R   0.342280 0.790730 0.276690 -0.486346
O40   O     O_R   0.342280 0.790730 0.223310 -0.501007
O41   O     O_3   0.333333 0.666667 0.250000 -0.243649
O42   O     O_2   0.988345 0.362748 0.385229 -0.440402
O43   O     O_2   0.958211 0.449385 0.111363 -0.480505
O44   O     O_2   0.940568 0.337004 0.602230 -0.517823
O45   O     O_2   0.856200 0.530095 0.601448 -0.537962
O46   O     O_2   0.836278 0.425620 0.897897 -0.504969
O47   O     O_3   0.948688 0.572761 0.689760 -0.549182
O48   O     O_3   0.935056 0.583131 0.809310 -0.541738
O49   O     O_3   0.172750 0.505640 0.377766 -0.535719
O50   O     O_3   0.163491 0.437366 0.132588 -0.539871
O51   O     O_3   0.572382 0.235130 0.620089 -0.511065
O52   O     O_3   0.457159 0.148323 0.873223 -0.516042
O53   O     O_3   0.317213 0.059302 0.565846 -0.515641
O54   O     O_3   0.355673 0.798384 0.919619 -0.510416
O55   O     O_3   0.536450 0.001440 0.293530 -0.565686
O56   O     O_2   0.103166 0.491697 0.880257 -0.529481
O57   O     O_3   0.565778 0.882966 0.180118 -0.523325
O58   O     O_3   0.705825 0.067338 0.424013 -0.528072
O59   O     O_3   0.531814 0.179959 0.075957 -0.526473
O60   O     O_3   0.697420 0.031004 0.508904 -0.572393
O61   O     O_3   0.660746 0.203323 0.996632 -0.609607
O62   O     O_3   0.535722 0.004736 0.697414 -0.538646
O63   O     O_3   0.625143 0.045992 0.804423 -0.540530
O64   O     O_3   0.557353 0.364180 0.420832 -0.491844
O65   O     O_3   0.463625 0.347104 0.069678 -0.499104
O66   O     O_3   0.573384 0.352199 0.472884 -0.575725
O67   O     O_2   0.339470 0.968712 0.390101 -0.513498
O68   O     O_3   0.479976 0.338758 0.017113 -0.564467
O69   O     O_2   0.352131 0.793915 0.100183 -0.453863
O70   O     O_2   0.400797 0.063551 0.606337 -0.451604

loop_
_geom_bond_atom_site_label_1
_geom_bond_atom_site_label_2
_ccdc_geom_bond_type
C143  N20   S    
C63   C65   A    
C247  N28   S    
C213  C253  A    
C15   N30   S    
C74   C85   A    
C121  C192  A    
C49   C203  A    
C223  C226  A    
C39   C41   A    
C229  C262  A    
C211  C220  A    
C21   C76   A    
H69   N18   S    
C241  C245  A    
C151  H174  S    
C169  H30   S    
C149  H169  S    
C62   O63   S    
C88   C108  A    
C194  O22   A    
C170  H31   S    
C250  C252  A    
C240  C244  A    
C267  O43   D    
C16   N31   S    
C61   C63   A    
H154  N7    S    
C80   C86   A    
Cr6   O28   S    
C175  H47   S    
H151  N5    S    
C190  H136  S    
H63   N16   S    
C70   C74   A    
C50   C52   A    
H157  N8    S    
C209  C240  A    
Cr3   O37   S    
C241  O48   S    
C34   C81   A    
H158  N8    S    
C21   H57   S    
C33   C69   A    
C119  C128  A    
H96   N27   S    
C79   C191  A    
C141  N3    Am   
C238  H126  S    
C41   C43   A    
C31   C62   A    
H183  N10   S    
C42   C44   A    
C130  H124  S    
Cr5   O25   S    
C88   N2    Am   
C50   C83   A    
C167  O58   S    
C180  H56   S    
C77   H112  S    
C59   N9    S    
C181  H86   S    
H67   N18   S    
C160  H4    S    
C127  C136  A    
C210  C241  A    
C148  H164  S    
C99   C116  A    
C178  H54   S    
C55   O2    D    
C123  C126  A    
C117  C236  A    
C35   C101  A    
H73   N20   S    
C215  C254  A    
C85   H115  S    
C64   C66   A    
C122  C203  A    
H81   N25   S    
C224  C233  A    
C265  H2    S    
Cr4   O20   S    
C172  H37   S    
C73   H149  S    
C92   C94   A    
C29   C243  S    
C177  H51   S    
C183  H91   S    
C157  H134  S    
C230  C232  A    
C154  C155  S    
Cr4   O18   S    
C138  C140  A    
H97   N27   S    
C244  H166  S    
C236  N27   S    
C260  C262  A    
C73   C208  A    
H23   N13   S    
C249  C255  A    
C82   C84   A    
C8    C28   A    
C49   C73   A    
C186  H104  S    
H62   N15   S    
C37   C45   A    
C25   C206  A    
C160  H198  S    
H153  N6    S    
C231  N23   Am   
C232  N29   Am   
C102  H120  S    
C18   C71   A    
C168  C251  A    
C171  H36   S    
C111  C124  A    
C147  H162  S    
C65   N32   S    
C151  H172  S    
C161  H6    S    
C145  H160  S    
C94   C115  A    
H25   N13   S    
C194  O20   A    
C243  O12   A    
C54   N32   Am   
H60   N14   S    
Cr3   O40   S    
C236  C258  A    
C33   C38   A    
C56   C59   A    
C88   O8    D    
C40   H90   S    
C183  O65   S    
H22   N11   S    
C156  C158  S    
H75   N21   S    
C31   C195  S    
C179  C252  A    
C44   C55   A    
C90   C193  A    
C45   C50   A    
C263  H155  S    
C203  N12   S    
C239  H127  S    
C101  H128  S    
C76   H101  S    
C217  C228  A    
C225  N19   S    
C119  C126  A    
C87   C107  A    
C126  C134  A    
C132  C134  A    
C245  C248  A    
C187  H106  S    
C125  C127  A    
C1    C115  S    
C58   C60   A    
C124  C191  A    
H82   N25   S    
C165  H16   S    
C180  H58   S    
C174  O61   S    
C166  H19   S    
C209  C238  A    
C231  O45   D    
C258  H137  S    
C69   C77   A    
C9    O57   S    
C169  H28   S    
Cr1   O16   S    
C195  O24   A    
Cr4   O19   S    
C120  C127  A    
C154  H186  S    
C167  C169  S    
C53   N33   Am   
C162  H9    S    
Cr2   O32   S    
C25   O34   D    
C124  O64   S    
C105  C107  A    
C4    N30   Am   
C133  C142  A    
C26   C78   A    
C96   C121  A    
C197  O28   A    
C19   C21   A    
C176  H49   S    
C204  C256  A    
C89   O11   D    
C170  C171  S    
C223  H142  S    
C91   O13   D    
C7    N13   S    
C218  O37   A    
C174  C175  S    
C185  O66   S    
C5    C27   A    
C103  N34   S    
H76   N22   S    
C47   C51   A    
C185  H100  S    
C62   C64   A    
C25   N12   Am   
C109  H121  S    
Cr5   O31   S    
C113  H129  S    
C175  H44   S    
C40   C42   A    
C211  C216  A    
C93   C95   A    
C23   C205  A    
C150  H171  S    
C23   O23   D    
C48   C72   A    
C81   C83   A    
C184  H94   S    
C144  N21   S    
C122  O50   S    
C22   H68   S    
C250  C256  A    
H74   N21   S    
C33   C40   A    
C248  N29   S    
C120  C129  A    
C262  H144  S    
C27   C80   A    
Cr5   O24   S    
C140  O15   D    
C51   C53   A    
H77   N22   S    
C189  H135  S    
C181  O64   S    
H99   N28   S    
C46   C68   A    
C36   C75   A    
C43   C45   A    
C68   C90   A    
C95   C116  A    
C167  H27   S    
C195  O21   A    
C30   C59   A    
C87   O7    D    
C46   C120  A    
C32   C37   A    
C158  H195  S    
C222  C224  A    
H181  N9    S    
H61   N15   S    
C152  H175  S    
C32   C67   A    
C242  O1    A    
C78   C85   A    
C200  C202  A    
C227  C229  A    
C155  H189  S    
C213  C260  A    
C235  C238  A    
C137  C189  A    
C144  C225  A    
C30   C61   A    
C153  H179  S    
C48   N5    S    
C182  H88   S    
C174  H43   S    
C212  C250  A    
C112  C116  S    
Cr4   O21   S    
C162  H7    S    
C132  C141  A    
C46   C113  A    
C82   O61   S    
C140  N4    Am   
C1    O16   A    
C246  N23   S    
C222  H141  S    
C201  C267  A    
C172  H38   S    
C259  H133  S    
C226  C234  A    
C91   C114  A    
C164  H12   S    
C202  N14   S    
C67   C70   A    
C210  C239  A    
C147  H163  S    
C218  O35   A    
C151  H173  S    
H66   N17   S    
C169  H29   S    
C66   N33   S    
C149  H168  S    
C2    C24   A    
C156  O52   S    
C98   C115  A    
C106  C108  A    
C4    O3    D    
C5    N31   Am   
C185  H102  S    
C52   N32   Am   
Cr3   O41   S    
C244  C246  A    
H182  N9    S    
C170  O59   S    
C233  N23   Am   
C173  H40   S    
Cr6   O29   S    
C163  H10   S    
C35   C57   A    
C168  C205  A    
C242  O39   A    
C154  O51   S    
C188  H109  S    
C117  C198  S    
C199  O30   A    
C5    O4    D    
C163  O55   S    
C206  C259  A    
H98   N28   S    
C198  O18   A    
C167  H26   S    
C187  H107  S    
C34   C37   A    
C3    O69   D    
C240  O47   S    
H150  N5    S    
C134  C137  A    
C228  C230  A    
C161  C162  S    
C141  O9    D    
C142  O10   D    
C181  C182  S    
C13   N3    S    
C137  C139  A    
C58   O52   S    
C28   C242  S    
C181  H85   S    
C24   N4    S    
C135  C193  A    
C129  N24   S    
C125  C157  A    
C212  C217  A    
Cr2   O35   S    
C101  C109  A    
C179  C201  A    
C131  H125  S    
C32   C39   A    
C158  H193  S    
C57   C79   A    
C157  C190  A    
C2    H138  S    
C197  C210  S    
C176  H48   S    
C156  H191  S    
H152  N6    S    
H65   N17   S    
C267  N12   Am   
C155  H187  S    
C171  H34   S    
C146  C189  A    
C177  H50   S    
Cr1   O12   S    
C235  C246  A    
C150  O49   S    
C105  C111  A    
C97   H111  S    
C64   N17   S    
C107  C109  A    
C186  H105  S    
Cr5   O22   S    
C78   O58   S    
C188  H108  S    
C145  C147  S    
C86   H116  S    
C60   N10   S    
C175  H45   S    
Cr1   O1    S    
C100  H119  S    
C18   C27   A    
C147  H161  S    
C161  H5    S    
C145  H159  S    
C176  O62   S    
C164  H14   S    
C118  C247  A    
C187  O68   S    
C6    C8    A    
C95   N26   S    
Cr3   O39   S    
C100  C103  A    
C63   N16   S    
C31   C60   A    
C87   N34   Am   
C130  C132  A    
C184  H95   S    
C49   N6    S    
Cr6   O27   S    
C184  H93   S    
C159  C160  S    
C123  C146  A    
C104  N2    S    
C154  H185  S    
H59   N14   S    
Cr3   O38   S    
C42   O54   S    
C219  O38   A    
C257  H122  S    
C34   C74   A    
C196  C209  S    
C7    C16   A    
C52   O5    D    
C20   C22   A    
C98   C100  A    
C234  N29   Am   
C1    O32   A    
C237  H140  S    
C224  C227  A    
C172  O60   S    
Cr5   O26   S    
C233  O44   D    
C252  C254  A    
C180  H55   S    
C213  C216  A    
C10   C28   A    
C166  H20   S    
H70   N19   S    
H64   N16   S    
C207  C218  S    
C168  C200  A    
C146  H132  S    
C232  O56   D    
C160  H3    S    
C22   C77   A    
C96   C207  A    
C128  C130  A    
C220  H143  S    
C178  C180  S    
C178  H53   S    
C55   N33   Am   
C255  H146  S    
C53   O6    D    
Cr2   O33   S    
C260  N7    S    
C199  O19   A    
H71   N19   S    
C208  C219  S    
C36   C38   A    
C187  C188  S    
C229  C231  A    
C159  H196  S    
C139  O14   D    
C185  C186  S    
C30   C194  S    
Cr6   O31   S    
C54   O70   D    
C24   C144  A    
C268  N30   Am   
C90   C125  A    
C177  H52   S    
C13   C143  A    
C183  H92   S    
C117  C214  A    
C48   C192  A    
C89   N34   Am   
C221  H145  S    
C99   C102  A    
C193  O68   S    
C197  O26   A    
C186  H103  S    
C51   C84   A    
C84   H114  S    
C234  O46   D    
C110  H123  S    
C57   C105  A    
C163  H11   S    
C254  C265  A    
C83   H113  S    
C165  C166  S    
C257  C264  A    
C215  C261  A    
C35   C119  A    
C163  C164  S    
C56   O51   S    
C183  C184  S    
C14   H46   S    
C6    N11   S    
C220  C222  A    
H184  N10   S    
C159  O53   S    
C112  O17   A    
C171  H33   S    
C196  O25   A    
C81   O60   S    
C106  C114  A    
C17   C26   A    
C135  O65   S    
C235  H139  S    
C170  H32   S    
C215  C217  A    
C164  H15   S    
C205  C257  A    
C11   C14   A    
C251  C253  A    
H80   N24   S    
C56   C65   A    
C204  N15   S    
Cr4   O31   S    
C69   C71   A    
C219  O36   A    
C75   C86   A    
C92   C103  A    
C6    C15   A    
C72   H148  S    
C58   C66   A    
C202  C255  A    
C108  C110  A    
C133  C136  A    
C114  C135  A    
C12   C15   A    
H84   N26   S    
C198  O29   A    
H21   N11   S    
C44   C47   A    
C9    C29   A    
C165  H17   S    
C166  H18   S    
C179  C206  A    
C17   C70   A    
C97   C208  A    
C80   O59   S    
C268  O67   D    
H78   N24   S    
C173  H39   S    
C138  C190  A    
C153  H178  S    
C68   C106  A    
C182  H89   S    
C148  H165  S    
C118  C199  S    
Cr1   O17   S    
C93   C104  A    
C121  O49   S    
C99   H118  S    
C72   C207  A    
C212  C221  A    
C162  H8    S    
C118  C225  A    
C41   O53   S    
C256  H147  S    
C152  O50   S    
C4    C26   A    
C249  C251  A    
C216  C227  A    
C139  N3    Am   
C3    C20   A    
C159  H197  S    
C148  C149  S    
C136  C138  A    
C191  O66   S    
C36   C82   A    
C261  C263  A    
C266  O42   D    
C178  O63   S    
C79   C123  A    
C211  C249  A    
C237  C248  A    
C148  O48   S    
C13   C258  A    
C23   N1    Am   
C2    C247  A    
C149  H167  S    
C97   C122  A    
C259  C265  A    
C92   H130  S    
C93   H131  S    
H72   N20   S    
C152  C153  S    
C43   C54   A    
C102  C104  A    
H83   N26   S    
C110  C113  A    
C38   C47   A    
C10   C12   A    
C143  C214  A    
Cr6   O30   S    
C253  C264  A    
C176  C177  S    
C94   N25   S    
Cr1   O41   S    
C226  C228  A    
C237  C239  A    
C150  H170  S    
C201  C204  A    
C14   C16   A    
C128  N22   S    
C188  H110  S    
C172  C173  S    
C11   H24   S    
C7    C9    A    
C161  O54   S    
C230  C263  A    
C196  O27   A    
C150  C151  S    
C10   H13   S    
C142  N4    Am   
H156  N7    S    
Cr2   O36   S    
C131  C133  A    
C261  N8    S    
C18   C20   A    
C153  H180  S    
C152  H176  S    
C89   C111  A    
C12   H35   S    
C243  O40   A    
C221  C223  A    
C71   C75   A    
C214  N18   S    
C3    N31   Am   
C192  N1    S    
C91   N2    Am   
C8    O55   S    
C200  C266  A    
C17   C19   A    
C264  H188  S    
C145  O47   S    
C158  H194  S    
C245  H177  S    
C165  O57   S    
C39   H79   S    
C156  H192  S    
C11   C29   A    
C155  H190  S    
Cr2   O41   S    
C96   H1    S    
C173  H41   S    
C61   O62   S    
C67   C76   A    
C182  H87   S    
C174  H42   S    
C98   H117  S    
C266  N1    Am   
C19   C268  A    
C129  C131  A    
C112  O33   A    
