data_mof_unit_57859.cif
_audit_creation_date              2012-12-10T17:48:54-0500
_audit_creation_method            fapswitch 2.2
_symmetry_space_group_name_H-M    P1
_symmetry_Int_Tables_number       1
_space_group_crystal_system       triclinic
_cell_length_a                    10.797254
_cell_length_b                    14.726086
_cell_length_c                    14.717492
_cell_angle_alpha                 64.325327
_cell_angle_beta                  104.105681
_cell_angle_gamma                 102.364468
_cell_volume                      2029.6354648

loop_
_atom_site_label
_atom_site_type_symbol
_atom_type_description
_atom_site_fract_x
_atom_site_fract_y
_atom_site_fract_z
_atom_type_partial_charge
C1    C     C_R   0.482417 0.119999 0.311926 0.842158
C2    C     C_R   0.539614 0.354938 0.070919 -0.006334
C3    C     C_R   0.464364 0.320264 0.995875 0.094092
C4    C     C_R   0.260287 0.000829 0.499901 0.893817
C5    C     C_R   0.595695 0.458522 0.039176 -0.003905
C6    C     C_R   0.552567 0.528839 0.939333 0.098331
C7    C     C_R   0.485532 0.490477 0.865521 -0.072809
C8    C     C_R   0.444242 0.387495 0.893324 -0.200158
C9    C     C_R   0.696594 0.493474 0.101668 -0.269948
C10   C     C_R   0.739372 0.596977 0.074835 0.506659
C11   C     C_R   0.681682 0.669200 0.981986 -0.126943
C12   C     C_3   0.877911 0.000106 0.499859 -0.064724
C13   C     C_R   0.584521 0.634778 0.914930 -0.183372
C14   C     C_R   0.718207 0.775101 0.954397 0.526820
C15   C     C_R   0.663985 0.844118 0.859008 -0.409308
C16   C     C_R   0.526046 0.879780 0.688026 0.905785
C17   C     C_R   0.520259 0.707443 0.826468 0.601699
C18   C     C_R   0.729557 0.296729 0.650962 0.483191
C19   C     C_R   0.689107 0.206578 0.634285 0.452723
C20   C     C_R   0.514596 0.283931 0.506631 0.750032
C21   C     C_R   0.554013 0.378441 0.516221 -0.291787
C22   C     C_R   0.667181 0.383467 0.588471 -0.312519
C23   C     C_3   0.931803 0.906247 0.592955 0.234167
C24   C     C_R   0.485254 0.466701 0.461703 -0.056484
C25   C     C_R   0.526671 0.550974 0.490565 -0.160539
C26   C     C_R   0.655277 0.561237 0.538997 0.432500
C27   C     C_R   0.720268 0.476728 0.594366 0.633255
C28   C     C_R   0.739799 0.999742 0.499962 0.821072
C29   C     C_R   0.385601 0.480678 0.374414 0.544672
C30   C     C_R   0.314225 0.562539 0.335246 -0.231446
C31   C     C_R   0.346189 0.638151 0.372690 -0.082723
C32   C     C_R   0.450937 0.632672 0.452619 -0.092912
C33   C     C_R   0.280923 0.723768 0.324894 -0.366127
C34   C     C_3   0.959638 0.097540 0.509656 -0.556117
C35   C     C_R   0.320436 0.803450 0.356375 0.673666
C36   C     C_R   0.476943 0.711018 0.489734 0.740201
C37   C     C_3   0.037591 0.010288 0.394498 0.197098
C38   C     C_3   0.892682 0.001766 0.397133 -0.468589
C39   C     C_3   0.073894 0.903968 0.589702 0.408561
C40   C     C_3   0.105016 0.095881 0.518414 0.317236
C41   C     C_3   0.122771 0.001555 0.500962 -0.199604
C42   C     C_3   0.030232 0.846313 0.394227 -0.157077
C43   C     C_3   0.810600 0.607143 0.230012 -0.293196
C44   C     C_3   0.764836 0.864048 0.055067 -0.252882
C45   C     C_R   0.481731 0.187612 0.203010 -0.146988
C46   C     C_3   0.874121 0.128260 0.733046 -0.227852
C47   C     C_3   0.750210 0.693680 0.415023 -0.299393
C48   C     C_3   0.447989 0.474915 0.241024 -0.183217
C49   C     C_3   0.852472 0.742501 0.694706 -0.078770
C50   C     C_3   0.197464 0.186951 0.620247 -0.228181
C51   C     C_R   0.565941 0.810718 0.794828 -0.203117
C52   C     C_R   0.407733 0.219132 0.024131 -0.180755
C53   C     C_R   0.416245 0.153371 0.126863 -0.249772
C54   C     C_R   0.546654 0.286981 0.175114 0.505521
Cu1   Cu    Cu3+1 0.465900 0.918260 0.475680 1.082727
Cu2   Cu    Cu3+1 0.534100 0.081740 0.524320 1.079467
F1    F     F_    0.149759 0.895538 0.683162 -0.627798
F2    F     F_    0.408258 0.679987 0.772998 -0.646244
F3    F     F_    0.607819 0.318243 0.250645 -0.705500
F4    F     F_    0.841025 0.489225 0.646043 -0.589212
F5    F     F_    0.560650 0.702196 0.577441 -0.624454
F6    F     F_    0.265068 0.890000 0.302413 -0.626444
F7    F     F_    0.824740 0.299900 0.729633 -0.617810
F8    F     F_    0.402188 0.265930 0.449122 -0.620501
H1    H     H_    0.943085 0.103560 0.578032 0.221343
H2    H     H_    0.238461 0.570395 0.269488 0.179925
H3    H     H_    0.851491 0.068733 0.332694 0.155350
H4    H     H_    0.203631 0.731215 0.260256 0.203920
H5    H     H_    0.834573 0.935356 0.384663 0.213396
H6    H     H_    0.083783 0.834924 0.581388 0.122578
H7    H     H_    0.142930 0.166185 0.456589 0.130925
H8    H     H_    0.928125 0.166429 0.442254 0.181344
H9    H     H_    0.961112 0.822242 0.446659 0.152470
H10   H     H_    0.116049 0.807093 0.438051 0.193451
H11   H     H_    0.987307 0.818569 0.332945 0.155549
H12   H     H_    0.929626 0.918110 0.662748 0.127428
H13   H     H_    0.719203 0.637070 0.219002 0.125654
H14   H     H_    0.887685 0.646442 0.270303 0.184470
H15   H     H_    0.803717 0.524706 0.279974 0.166203
H16   H     H_    0.679576 0.818841 0.091135 0.132732
H17   H     H_    0.739768 0.938704 0.994673 0.166287
H18   H     H_    0.839343 0.878984 0.115477 0.196240
H19   H     H_    0.928071 0.193628 0.677829 0.162724
H20   H     H_    0.889112 0.134301 0.807666 0.228662
H21   H     H_    0.914561 0.058741 0.748610 0.166564
H22   H     H_    0.672925 0.669811 0.361151 0.112615
H23   H     H_    0.391632 0.361079 0.834705 0.149371
H24   H     H_    0.841695 0.669724 0.416707 0.156477
H25   H     H_    0.757472 0.777411 0.381754 0.178583
H26   H     H_    0.551037 0.470983 0.277153 0.176661
H27   H     H_    0.430924 0.555389 0.193386 0.111019
H28   H     H_    0.425276 0.435664 0.188480 0.219693
H29   H     H_    0.797249 0.766423 0.733553 0.119188
H30   H     H_    0.951089 0.729575 0.739236 0.166542
H31   H     H_    0.802701 0.668933 0.693316 0.250136
H32   H     H_    0.113571 0.230731 0.584833 0.127770
H33   H     H_    0.280864 0.231614 0.582758 0.200389
H34   H     H_    0.701544 0.923750 0.834153 0.229427
H35   H     H_    0.222938 0.176536 0.701569 0.174410
H36   H     H_    0.352654 0.191846 0.966756 0.161324
H37   H     H_    0.367745 0.076578 0.146770 0.226611
H38   H     H_    0.062594 0.090044 0.340790 0.137574
H39   H     H_    0.468994 0.538290 0.784788 0.220789
H40   H     H_    0.750553 0.441064 0.168750 0.226130
N1    N     N_R   0.585360 0.204570 0.560800 -0.291276
N2    N     N_R   0.414550 0.795430 0.439160 -0.295292
O1    O     O_R   0.455060 0.022100 0.338110 -0.560551
O2    O     O_3   0.844522 0.626792 0.135883 -0.518132
O3    O     O_3   0.816156 0.810851 0.015709 -0.517563
O4    O     O_3   0.741440 0.115811 0.694473 -0.567322
O5    O     O_3   0.725945 0.656021 0.516177 -0.486800
O6    O     O_3   0.367678 0.425596 0.315698 -0.521429
O7    O     O_3   0.855691 0.814703 0.593178 -0.560338
O8    O     O_3   0.171444 0.090251 0.616544 -0.482958
O9    O     O_R   0.512640 0.160150 0.379180 -0.482997
O10   O     O_R   0.288900 0.930980 0.479450 -0.549235
O11   O     O_R   0.346480 0.069030 0.520520 -0.515710
O12   O     O_R   0.487360 0.839850 0.620820 -0.497714
O13   O     O_R   0.544940 0.977900 0.661890 -0.549064
O14   O     O_R   0.653520 0.930970 0.479480 -0.538021
O15   O     O_R   0.711100 0.069020 0.520550 -0.581211
O16   O     O_3   0.066165 0.952255 0.347502 -0.506254

loop_
_geom_bond_atom_site_label_1
_geom_bond_atom_site_label_2
_ccdc_geom_bond_type
C14   O3    S    
C49   O7    S    
Cu1   Cu2   S    
C40   H7    S    
Cu2   O11   S    
C29   O6    S    
C10   O2    S    
C16   C51   S    
C23   H12   S    
C1    C45   S    
C17   C51   A    
C7    C8    A    
C39   C41   S    
C52   C53   A    
C43   H14   S    
C12   C23   S    
C50   H35   S    
C29   C30   A    
C12   C28   S    
C34   C40   S    
C32   C36   A    
C44   H18   S    
C27   F4    S    
C30   C31   A    
C11   C14   A    
C47   O5    S    
C18   F7    S    
C4    C41   S    
C43   H15   S    
C39   F1    S    
C18   C19   A    
C24   C29   A    
Cu2   O9    S    
C40   O8    S    
C53   H37   S    
C50   H33   S    
C48   H27   S    
C48   H28   S    
C31   C33   A    
C15   C51   A    
C49   H30   S    
C9    C10   A    
C17   F2    S    
Cu1   O14   S    
C46   H21   S    
C44   O3    S    
C25   C32   A    
C38   H5    S    
C45   C53   A    
C48   H26   S    
C21   C22   A    
C12   C38   S    
C47   H25   S    
C34   H1    S    
C54   F3    S    
C42   H10   S    
Cu1   N2    S    
C36   N2    A    
C47   H22   S    
C44   H16   S    
C24   C25   A    
C3    C8    A    
C28   O14   A    
C16   O13   A    
C28   O15   A    
C25   C26   A    
C52   H36   S    
C37   H38   S    
C37   O16   S    
Cu1   O1    S    
C50   O8    S    
C20   F8    S    
C5    C9    A    
C37   C38   S    
C16   O12   A    
C23   O7    S    
C31   C32   A    
C26   C27   A    
C49   H31   S    
C30   H2    S    
C1    O1    A    
C46   H20   S    
C19   N1    A    
C40   C41   S    
C48   O6    S    
C45   C54   A    
C44   H17   S    
C22   C27   A    
C46   O4    S    
C2    C54   A    
Cu2   O13   S    
C4    O11   A    
C2    C5    A    
C15   H34   S    
C12   C34   S    
C36   F5    S    
C38   H3    S    
C34   H8    S    
C42   H11   S    
C42   O16   S    
C20   N1    A    
C19   O4    S    
C42   H9    S    
C18   C22   A    
C4    O10   A    
C3    C52   A    
C6    C7    A    
C43   H13   S    
C13   C17   A    
C8    H23   S    
Cu2   O15   S    
C2    C3    A    
C35   N2    A    
C47   H24   S    
C6    C13   A    
C11   C13   A    
C50   H32   S    
C5    C6    A    
C9    H40   S    
C23   C39   S    
C33   C35   A    
C39   H6    S    
C35   F6    S    
C43   O2    S    
C37   C41   S    
Cu2   N1    S    
C10   C11   A    
C46   H19   S    
C20   C21   A    
Cu1   O10   S    
C21   C24   A    
C14   C15   A    
C7    H39   S    
C1    O9    A    
C49   H29   S    
C26   O5    S    
C33   H4    S    
Cu1   O12   S    
