data_mof_unit_23573.cif
_audit_creation_date              2012-12-10T17:03:55-0500
_audit_creation_method            fapswitch 2.2
_symmetry_space_group_name_H-M    P1
_symmetry_Int_Tables_number       1
_space_group_crystal_system       triclinic
_cell_length_a                    9.800861
_cell_length_b                    11.04642
_cell_length_c                    15.833822
_cell_angle_alpha                 94.673234
_cell_angle_beta                  79.234432
_cell_angle_gamma                 111.259928
_cell_volume                      1569.28249039

loop_
_atom_site_label
_atom_site_type_symbol
_atom_type_description
_atom_site_fract_x
_atom_site_fract_y
_atom_site_fract_z
_atom_type_partial_charge
C1    C     C_R   0.556138 0.745414 0.506162 0.867962
C2    C     C_R   0.443877 0.254587 0.493811 0.867823
C3    C     C_R   0.325027 0.483846 0.079106 -0.242376
C4    C     C_R   0.681912 0.595391 0.926978 -0.245272
C5    C     C_R   0.221881 0.459429 0.024808 -0.214948
C6    C     C_R   0.784907 0.623711 0.981800 -0.214099
C7    C     C_2   0.587816 0.884522 0.509513 -0.357150
C8    C     C_2   0.412231 0.115478 0.490398 -0.358353
C9    C     C_2   0.484352 0.930552 0.498310 -0.152588
C10   C     C_2   0.515743 0.069451 0.501516 -0.152915
C11   C     C_2   0.923208 0.490276 0.492497 -0.078535
C12   C     C_2   0.076780 0.509697 0.507527 -0.078660
C13   C     C_R   0.411330 0.487008 0.662933 0.817158
C14   C     C_R   0.589064 0.514829 0.337197 0.815610
C15   C     C_R   0.358682 0.481158 0.756487 -0.110942
C16   C     C_R   0.644472 0.535487 0.244576 -0.110777
C17   C     C_R   0.158654 0.436321 0.880235 0.267798
C18   C     C_R   0.846274 0.625489 0.125341 0.268381
C19   C     C_R   0.207851 0.446479 0.790744 -0.229494
C20   C     C_R   0.795792 0.594292 0.212947 -0.230929
C21   C     C_R   0.462476 0.509270 0.811481 -0.255666
C22   C     C_R   0.541843 0.505695 0.188861 -0.251107
C23   C     C_R   0.420206 0.506908 0.901175 0.049593
C24   C     C_R   0.585340 0.541054 0.102155 0.048467
C25   C     C_R   0.265962 0.466854 0.935543 0.089987
C26   C     C_R   0.739827 0.597328 0.069627 0.088300
C27   C     C_R   0.527485 0.540096 0.957304 0.090335
C28   C     C_R   0.478688 0.519959 0.046971 0.091759
Cu1   Cu    Cu3+1 0.362980 0.479380 0.485080 0.934498
Cu2   Cu    Cu3+1 0.637020 0.520620 0.514920 0.933505
H1    H     H_    0.106465 0.434593 0.054175 0.170456
H2    H     H_    0.901100 0.664544 0.953587 0.166628
H3    H     H_    0.427507 0.452809 0.214858 0.158190
H4    H     H_    0.576490 0.529508 0.782351 0.162173
H5    H     H_    0.872948 0.618921 0.257729 0.166045
H6    H     H_    0.129265 0.423374 0.746916 0.165320
H7    H     H_    0.280415 0.478546 0.146812 0.140799
H8    H     H_    0.728148 0.622318 0.861077 0.140882
H9    H     H_    0.624619 0.134437 0.513119 0.180479
H10   H     H_    0.375494 0.865567 0.486676 0.180376
H11   H     H_    0.303562 0.050211 0.478774 0.149259
H12   H     H_    0.696467 0.949788 0.521166 0.149349
H13   H     H_    0.122152 0.577319 0.557557 0.157924
H14   H     H_    0.877824 0.422623 0.442487 0.158554
H15   H     H_    0.111522 0.384896 0.415441 0.188597
H16   H     H_    0.888483 0.615124 0.584550 0.188223
N1    N     N_2   0.842890 0.551600 0.537350 -0.287139
N2    N     N_2   0.157110 0.448400 0.462650 -0.286715
O1    O     O_R   0.426810 0.668300 0.492040 -0.577137
O2    O     O_R   0.573190 0.331700 0.507960 -0.576998
O3    O     O_R   0.658240 0.703130 0.517240 -0.574734
O4    O     O_R   0.341760 0.296870 0.482760 -0.574398
O5    O     O_R   0.319390 0.472820 0.610170 -0.582891
O6    O     O_R   0.680610 0.527180 0.389830 -0.583393
O7    O     O_R   0.550820 0.507640 0.635370 -0.577876
O8    O     O_R   0.449180 0.492360 0.364630 -0.576247
N3    N     N_2   0.003250 0.392079 0.915689 -0.428736
H17   H     H_    0.968761 0.315148 0.956971 0.244425
C29   C     C_3   0.895511 0.385439 0.862463 -0.690240
H18   H     H_    0.784642 0.364460 0.903360 0.242977
H19   H     H_    0.887493 0.305926 0.813795 0.218453
H20   H     H_    0.926079 0.479799 0.830556 0.229369
N4    N     N_2   0.001320 0.689128 0.092817 -0.429306
H21   H     H_    0.025591 0.771341 0.057897 0.244265
C30   C     C_3   0.111323 0.700084 0.145493 -0.692826
H22   H     H_    0.223744 0.735070 0.105620 0.241656
H23   H     H_    0.092816 0.603939 0.171421 0.227676
H24   H     H_    0.107295 0.771068 0.198922 0.219194

loop_
_geom_bond_atom_site_label_1
_geom_bond_atom_site_label_2
_ccdc_geom_bond_type
C5    H1    S    
C2    O2    A    
C14   O8    A    
Cu2   O3    S    
N4    C30   S    
Cu1   Cu2   S    
Cu1   O8    S    
C23   C27   A    
Cu2   O6    S    
Cu2   O7    S    
C18   C20   A    
C18   C26   A    
C16   C20   A    
C12   N2    D    
C30   H24   S    
C17   C25   A    
C3    C5    A    
C23   C25   A    
Cu2   O2    S    
C29   H18   S    
Cu1   O1    S    
C15   C19   A    
C1    O3    A    
C24   C26   A    
N3    H17   S    
C6    C26   A    
C15   C21   A    
C2    O4    A    
C5    C25   A    
C8    C10   D    
C3    C28   A    
C14   O6    A    
C4    H8    S    
Cu1   O5    S    
C12   H13   S    
C13   O5    A    
C19   H6    S    
C13   C15   S    
C21   C23   A    
C6    H2    S    
C22   C24   A    
C18   N4    S    
N3    C29   S    
C29   H19   S    
Cu1   N2    S    
N4    H21   S    
C24   C28   A    
Cu2   N1    S    
C11   H14   S    
C4    C27   A    
C8    H11   S    
C3    H7    S    
C4    C6    A    
C30   H22   S    
C9    C10   S    
C7    H12   S    
C27   C28   A    
C7    C9    D    
C22   H3    S    
H16   N1    S    
C29   H20   S    
C16   C22   A    
C21   H4    S    
H15   N2    S    
C17   C19   A    
C14   C16   S    
C1    C7    S    
C20   H5    S    
C11   N1    D    
C9    H10   S    
C2    C8    S    
C30   H23   S    
C11   C12   S    
C17   N3    S    
C10   H9    S    
C13   O7    A    
Cu1   O4    S    
C1    O1    A    
