data_mof_unit_7946.cif
_audit_creation_date              2012-12-10T20:40:59-0500
_audit_creation_method            fapswitch 2.2
_symmetry_space_group_name_H-M    P1
_symmetry_Int_Tables_number       1
_space_group_crystal_system       triclinic
_cell_length_a                    27.785743
_cell_length_b                    10.715361
_cell_length_c                    9.83714
_cell_angle_alpha                 90.159384
_cell_angle_beta                  90.029675
_cell_angle_gamma                 89.965328
_cell_volume                      2928.8414076

loop_
_atom_site_label
_atom_site_type_symbol
_atom_type_description
_atom_site_fract_x
_atom_site_fract_y
_atom_site_fract_z
_atom_type_partial_charge
C1    C     C_R   0.498819 0.259847 0.499928 0.858296
C2    C     C_R   0.276705 0.443855 0.396691 0.510377
C3    C     C_R   0.252925 0.509682 0.500302 0.145580
C4    C     C_R   0.101736 0.511673 0.512703 -0.054716
C5    C     C_R   0.127183 0.398281 0.519906 -0.047346
C6    C     C_R   0.102070 0.285578 0.526695 -0.123659
C7    C     C_R   0.127176 0.624895 0.504268 -0.035120
C8    C     C_R   0.353404 0.498582 0.501659 -0.259719
C9    C     C_R   0.646742 0.491612 0.498986 -0.087734
C10   C     C_R   0.975315 0.397611 0.493276 0.048461
C11   C     C_R   0.974717 0.625051 0.528829 0.031838
C12   C     C_R   0.406085 0.499039 0.500226 0.954992
C13   C     C_R   0.949718 0.511319 0.509958 0.070938
C14   C     C_R   0.949604 0.288698 0.458667 -0.218454
C15   C     C_R   0.899980 0.290287 0.448216 -0.150158
C16   C     C_R   0.874200 0.399391 0.475779 -0.005172
C17   C     C_R   0.898775 0.510792 0.507454 -0.065965
C18   C     C_R   0.872445 0.620836 0.536364 -0.067356
C19   C     C_R   0.821618 0.612549 0.540562 0.492862
C20   C     C_R   0.824085 0.399303 0.471354 0.489760
C21   C     C_R   0.723238 0.466219 0.383457 -0.155211
C22   C     C_R   0.673166 0.456753 0.381323 -0.044073
C23   C     C_R   0.498744 0.740136 0.500019 0.906410
C24   C     C_R   0.671393 0.525992 0.617823 -0.251162
C25   C     C_R   0.721254 0.527221 0.620741 -0.108641
C26   C     C_R   0.747369 0.499950 0.502947 0.294524
C27   C     C_R   0.025828 0.396728 0.508596 0.044957
C28   C     C_R   0.050879 0.511695 0.513353 0.078851
C29   C     C_R   0.025552 0.626520 0.517631 0.052856
C30   C     C_R   0.052223 0.284505 0.519898 -0.215204
C31   C     C_R   0.101955 0.737701 0.500619 -0.128266
C32   C     C_R   0.948121 0.733658 0.558543 -0.266931
C33   C     C_R   0.897939 0.733163 0.562390 0.015852
C34   C     C_R   0.593983 0.496685 0.499719 0.855358
C35   C     C_R   0.052044 0.738824 0.508375 -0.217195
C36   C     C_R   0.490689 0.063982 0.622980 0.201918
C37   C     C_R   0.491823 0.128430 0.500133 -0.186393
C38   C     C_R   0.484021 0.064352 0.377532 -0.214984
C39   C     C_R   0.483911 0.935234 0.377530 -0.207610
C40   C     C_R   0.491710 0.871559 0.500073 -0.112769
C41   C     C_R   0.490867 0.936464 0.622703 0.108896
C42   C     C_3   0.523901 0.928765 0.742336 -0.559350
C43   C     C_3   0.523651 0.070563 0.743151 0.225606
C44   C     C_R   0.478322 0.405385 0.070878 0.182173
C45   C     C_R   0.177436 0.400390 0.520509 0.603657
C46   C     C_R   0.525297 0.586630 0.072400 -0.099358
C47   C     C_R   0.525340 0.586563 0.928202 -0.143381
C48   C     C_R   0.478265 0.405572 0.928129 0.276114
C49   C     C_3   0.426404 0.371144 0.921561 -0.464481
C50   C     C_3   0.426391 0.371112 0.075752 -0.462486
C51   C     C_R   0.177474 0.622185 0.497517 0.538365
C52   C     C_R   0.278867 0.570296 0.602339 -0.308713
C53   C     C_R   0.329096 0.568281 0.602223 0.397554
C54   C     C_R   0.327075 0.431499 0.401759 0.225059
H1    H     H_    0.259605 0.620102 0.681401 0.183954
H2    H     H_    0.120706 0.825975 0.492284 0.192056
H3    H     H_    0.965693 0.820790 0.582482 0.141551
H4    H     H_    0.652090 0.553690 0.708438 0.155637
H5    H     H_    0.739640 0.551470 0.714242 0.154835
H6    H     H_    0.035086 0.829129 0.501580 0.139358
H7    H     H_    0.481190 0.112884 0.281360 0.176474
H8    H     H_    0.480974 0.886340 0.281338 0.176823
H9    H     H_    0.506054 0.886096 0.832065 0.233049
H10   H     H_    0.559583 0.888337 0.715990 0.163717
H11   H     H_    0.558980 0.115341 0.721415 0.090627
H12   H     H_    0.545031 0.657732 0.127220 0.143656
H13   H     H_    0.545138 0.657542 0.873891 0.142325
H14   H     H_    0.403674 0.446174 0.877285 0.240748
H15   H     H_    0.420792 0.277023 0.876601 0.245147
H16   H     H_    0.403757 0.446558 0.119866 0.256935
H17   H     H_    0.420770 0.276853 0.119852 0.225494
H18   H     H_    0.120856 0.197294 0.535096 0.191142
H19   H     H_    0.743785 0.443613 0.293019 0.156781
H20   H     H_    0.881913 0.204826 0.419348 0.183114
H21   H     H_    0.967126 0.201688 0.433908 0.141745
H22   H     H_    0.035121 0.194448 0.527802 0.138928
N1    N     N_R   0.201468 0.510909 0.505560 -0.318571
N2    N     N_R   0.798909 0.504121 0.505020 -0.343102
N3    N     N_R   0.499670 0.499140 0.142800 -0.105280
N4    N     N_R   0.499670 0.499180 0.857150 -0.112892
O1    O     O_R   0.500010 0.316790 0.614690 -0.604291
O2    O     O_2   0.800433 0.294544 0.435371 -0.623062
O3    O     O_2   0.202237 0.729560 0.482131 -0.541038
O4    O     O_2   0.794745 0.710823 0.580157 -0.567686
O5    O     O_R   0.500000 0.316760 0.385350 -0.627089
O6    O     O_R   0.428760 0.500040 0.614660 -0.567638
O7    O     O_R   0.428750 0.500000 0.385310 -0.621611
O8    O     O_R   0.500000 0.683240 0.614650 -0.606333
O9    O     O_R   0.499990 0.683210 0.385310 -0.633649
O10   O     O_R   0.571250 0.500000 0.614690 -0.632325
O11   O     O_R   0.571240 0.499960 0.385340 -0.606350
O12   O     O_2   0.202211 0.292910 0.536009 -0.523744
Zn1   Zn    Zn3+2 0.500000 0.500020 0.653130 0.979048
Zn2   Zn    Zn3+2 0.500000 0.499980 0.346870 0.959315
O13   O     O_3   0.348954 0.349886 0.312181 -0.773374
H23   H     H_    0.378136 0.314969 0.355672 0.342585
C55   C     C_R   0.873884 0.853723 0.589866 0.183406
C56   C     C_R   0.847228 0.912768 0.487268 -0.112167
C57   C     C_R   0.820541 0.019679 0.517146 -0.100328
C58   C     C_R   0.822497 0.072544 0.647205 -0.073303
C59   C     C_R   0.850850 0.017493 0.747985 -0.154083
C60   C     C_R   0.876331 0.907883 0.719802 -0.144303
H24   H     H_    0.845306 0.872430 0.386312 0.126662
H25   H     H_    0.798125 0.060554 0.439268 0.185823
H26   H     H_    0.801986 0.155867 0.670095 0.160418
H27   H     H_    0.852433 0.058564 0.848526 0.137809
H28   H     H_    0.897153 0.863958 0.799563 0.130651
O14   O     O_3   0.249283 0.389395 0.295224 -0.723753
H29   H     H_    0.270541 0.352649 0.225005 0.386696
O15   O     O_3   0.499854 0.119570 0.856827 -0.756108
H30   H     H_    0.522778 0.111884 0.933663 0.321352
C61   C     C_R   0.650170 0.405161 0.257319 0.147880
C62   C     C_R   0.654784 0.467061 0.132413 -0.168385
C63   C     C_R   0.632176 0.419630 0.016309 -0.128135
C64   C     C_R   0.605063 0.310124 0.023708 -0.120333
C65   C     C_R   0.600665 0.247247 0.147350 -0.135905
C66   C     C_R   0.623374 0.293980 0.263726 -0.073922
H31   H     H_    0.675274 0.552759 0.125479 0.125773
H32   H     H_    0.635292 0.468396 0.920838 0.128555
H33   H     H_    0.587418 0.274383 0.933613 0.130897
H34   H     H_    0.579574 0.162532 0.153151 0.118438
H35   H     H_    0.619609 0.244648 0.359103 0.102569
O16   O     O_3   0.355036 0.634648 0.698199 -0.736707
H36   H     H_    0.332462 0.678149 0.760411 0.343850

loop_
_geom_bond_atom_site_label_1
_geom_bond_atom_site_label_2
_ccdc_geom_bond_type
C10   C27   A    
C21   C26   A    
C59   C60   A    
C49   H14   S    
C20   O2    S    
C41   C42   S    
O13   H23   S    
C50   H17   S    
C34   O10   A    
C63   C64   A    
O16   H36   S    
C65   C66   A    
C6    H18   S    
C28   C29   A    
C58   H26   S    
C26   N2    S    
C5    C6    A    
C32   H3    S    
C36   C37   A    
C46   H12   S    
C61   C66   A    
C9    C22   A    
C1    O1    A    
C15   C16   A    
O7    Zn2   S    
C21   H19   S    
C30   H22   S    
O14   H29   S    
C18   C19   A    
O9    Zn2   S    
C45   O12   S    
C34   O11   A    
O15   H30   S    
C46   N3    A    
C16   C17   A    
C23   C40   S    
C23   O9    A    
C43   O15   S    
C31   H2    S    
C55   C60   A    
C52   H1    S    
C16   C20   A    
C38   H7    S    
C57   H25   S    
C49   H15   S    
C21   C22   A    
C27   C30   A    
C36   C41   A    
C47   N4    A    
C4    C7    A    
C47   H13   S    
C61   C62   A    
C4    C28   A    
C55   C56   A    
C1    O5    A    
C7    C31   A    
C65   H34   S    
C24   C25   A    
N3    Zn2   S    
C2    C54   A    
C8    C54   A    
C39   C40   A    
O8    Zn1   S    
C25   C26   A    
C5    C45   A    
C35   H6    S    
C19   N2    A    
C66   H35   S    
C51   N1    A    
C37   C38   A    
O6    Zn1   S    
O1    Zn1   S    
O5    Zn2   S    
C57   C58   A    
C43   H11   S    
C17   C18   A    
C60   H28   S    
C54   O13   S    
C48   C49   S    
C6    C30   A    
C11   C32   A    
C49   C50   S    
C22   C61   S    
C23   O8    A    
C10   C14   A    
C9    C34   S    
C31   C35   A    
C42   C43   S    
C19   O4    S    
C3    N1    S    
C51   O3    S    
C52   C53   A    
O10   Zn1   S    
C62   C63   A    
C44   C50   S    
C59   H27   S    
C39   H8    S    
C46   C47   A    
C40   C41   A    
C12   O7    A    
C44   N3    A    
C63   H32   S    
C4    C5    A    
C10   C13   A    
C8    C53   A    
C42   H10   S    
C3    C52   A    
C64   H33   S    
C9    C24   A    
C12   O6    A    
C29   C35   A    
C13   C17   A    
C32   C33   A    
C48   N4    A    
C2    C3    A    
C50   H16   S    
C7    C51   A    
C56   H24   S    
C14   H21   S    
O11   Zn2   S    
C11   C13   A    
C64   C65   A    
C38   C39   A    
C20   N2    A    
C2    O14   S    
C58   C59   A    
C33   C55   S    
C18   C33   A    
C62   H31   S    
C44   C48   A    
C15   H20   S    
C53   O16   S    
C11   C29   A    
C24   H4    S    
C56   C57   A    
C27   C28   A    
C14   C15   A    
C36   C43   S    
C45   N1    A    
C25   H5    S    
N4    Zn1   S    
C42   H9    S    
C8    C12   S    
C1    C37   S    
