data_mof_unit_31944.cif
_audit_creation_date              2012-12-10T16:56:31-0500
_audit_creation_method            fapswitch 2.2
_symmetry_space_group_name_H-M    P1
_symmetry_Int_Tables_number       1
_space_group_crystal_system       triclinic
_cell_length_a                    10.830808
_cell_length_b                    11.024492
_cell_length_c                    9.663134
_cell_angle_alpha                 87.945939
_cell_angle_beta                  91.004459
_cell_angle_gamma                 88.804384
_cell_volume                      1152.63301287

loop_
_atom_site_label
_atom_site_type_symbol
_atom_type_description
_atom_site_fract_x
_atom_site_fract_y
_atom_site_fract_z
_atom_type_partial_charge
C1    C     C_R   0.499819 0.265091 0.503543 0.816981
C2    C     C_3   0.879768 0.491596 0.507704 -0.334842
C3    C     C_3   0.929477 0.627061 0.501912 0.200488
C4    C     C_3   0.930751 0.439626 0.364755 0.183696
C5    C     C_2   0.514474 0.939043 0.386263 0.503282
C6    C     C_2   0.472660 0.863196 0.486394 -0.314782
C7    C     C_2   0.496833 0.070330 0.399108 -0.371818
C8    C     C_2   0.508696 0.132840 0.516530 0.253274
C9    C     C_2   0.434641 0.425907 0.923704 0.001892
C10   C     C_2   0.429409 0.430683 0.079262 -0.019329
C11   C     C_R   0.260390 0.497998 0.498888 0.795951
C12   C     C_R   0.495527 0.733979 0.496306 0.909705
C13   C     C_R   0.740790 0.495878 0.502163 0.934239
C14   C     C_3   0.082126 0.404182 0.613351 -0.427986
C15   C     C_3   0.940997 0.415461 0.640973 0.632430
C16   C     C_3   0.071843 0.624324 0.519869 -0.387460
C17   C     C_3   0.072692 0.450879 0.358461 -0.432035
C18   C     C_3   0.123693 0.495016 0.497706 -0.103231
Cu1   Cu    Cu3+1 0.500030 0.500020 0.638630 1.102538
Cu2   Cu    Cu3+1 0.499970 0.499980 0.361370 1.064331
H1    H     H_    0.136605 0.415110 0.710282 0.219620
H2    H     H_    0.892951 0.500833 0.279349 0.145778
H3    H     H_    0.111692 0.689425 0.442804 0.164089
H4    H     H_    0.912846 0.662717 0.393824 0.126472
H5    H     H_    0.415224 0.897122 0.566363 0.184075
H6    H     H_    0.480086 0.120317 0.301416 0.199200
H7    H     H_    0.379740 0.358262 0.873768 0.166305
H8    H     H_    0.545482 0.567146 0.892313 0.237952
H9    H     H_    0.364668 0.372003 0.131895 0.156982
H10   H     H_    0.109890 0.312557 0.580286 0.206721
H11   H     H_    0.564632 0.549637 0.105100 0.238635
N1    N     N_2   0.498630 0.498660 0.846910 -0.251063
N2    N     N_2   0.498590 0.498630 0.153040 -0.254049
O1    O     O_R   0.500020 0.321960 0.617040 -0.521861
O2    O     O_R   0.499980 0.321920 0.382900 -0.586577
O3    O     O_R   0.317710 0.500000 0.617070 -0.601343
O4    O     O_R   0.317670 0.499960 0.382930 -0.597465
O5    O     O_R   0.500020 0.678080 0.617100 -0.545547
O6    O     O_R   0.499980 0.678040 0.382960 -0.530977
O7    O     O_R   0.682330 0.500040 0.617070 -0.481546
O8    O     O_R   0.682290 0.500000 0.382930 -0.549080
S1    S     S_3+6 0.573934 0.891199 0.225399 0.052738
O9    O     O_2   0.675549 0.797171 0.246644 -0.257328
O10   O     O_2   0.470637 0.838295 0.142714 -0.269439
O11   O     O_3   0.629520 0.010729 0.135205 -0.541541
H12   H     H_    0.664175 0.976225 0.050575 0.392298
S2    S     S_3+6 0.541228 0.068140 0.687818 0.050243
O12   O     O_2   0.422945 0.025481 0.750667 -0.308459
O13   O     O_2   0.632255 0.963879 0.683228 -0.226299
O14   O     O_3   0.599958 0.170999 0.793551 -0.446144
H13   H     H_    0.574204 0.145668 0.887859 0.378853
S3    S     S_3+6 0.878664 0.262388 0.671252 0.134918
O15   O     O_2   0.768297 0.242711 0.580435 -0.234056
O16   O     O_2   0.973389 0.164031 0.647120 -0.239816
O17   O     O_3   0.833333 0.241659 0.836217 -0.389638
H14   H     H_    0.845659 0.153808 0.858723 0.397949
S4    S     S_3+6 0.928604 0.484558 0.811410 0.071238
O18   O     O_2   0.797006 0.490846 0.857646 -0.208637
O19   O     O_2   0.999816 0.403527 0.914235 -0.247582
O20   O     O_3   0.990964 0.621636 0.823438 -0.521284
H15   H     H_    0.979711 0.643601 0.920998 0.381987
H16   H     H_    0.103168 0.654301 0.622255 0.266382
S5    S     S_3+6 0.855703 0.749538 0.594387 0.096181
O21   O     O_2   0.952918 0.827043 0.657598 -0.212530
O22   O     O_2   0.782719 0.828723 0.492082 -0.216014
O23   O     O_3   0.759356 0.703196 0.718794 -0.455101
H17   H     H_    0.761661 0.766456 0.788956 0.394949
H18   H     H_    0.096291 0.516309 0.272890 0.190138
H19   H     H_    0.118681 0.363005 0.334741 0.228413
S6    S     S_3+6 0.887118 0.293079 0.302363 0.082868
O24   O     O_2   0.921435 0.289940 0.152730 -0.199778
O25   O     O_2   0.956578 0.191289 0.378234 -0.207817
O26   O     O_3   0.734907 0.270580 0.310199 -0.476886
H20   H     H_    0.724553 0.185296 0.284345 0.405546

loop_
_geom_bond_atom_site_label_1
_geom_bond_atom_site_label_2
_ccdc_geom_bond_type
C2    C4    S    
C5    S1    S    
H11   N2    S    
C11   C18   S    
C17   H19   S    
S6    O24   D    
C2    C15   S    
Cu1   O5    S    
C3    S5    S    
C16   H3    S    
C1    C8    S    
C4    H2    S    
O26   H20   S    
C14   C18   S    
Cu1   Cu2   S    
S3    O17   S    
O17   H14   S    
S5    O22   D    
C12   O6    A    
C4    S6    S    
O14   H13   S    
S4    O18   D    
S5    O23   S    
C5    C7    S    
C7    C8    D    
S2    O13   D    
C16   C18   S    
C15   S3    S    
C6    C12   S    
Cu2   O4    S    
C15   S4    S    
C10   H9    S    
C1    O2    A    
C3    H4    S    
C7    H6    S    
S1    O10   D    
C14   H10   S    
Cu1   N1    S    
Cu2   N2    S    
C13   O8    A    
C11   O3    A    
S3    O16   D    
C1    O1    A    
Cu2   O8    S    
S2    O14   S    
C2    C3    S    
Cu1   O3    S    
C12   O5    A    
C5    C6    D    
C8    S2    S    
C6    H5    S    
S4    O19   D    
Cu1   O7    S    
C4    C17   S    
S1    O11   S    
C14   H1    S    
S5    O21   D    
C13   O7    A    
H8    N1    S    
C2    C13   S    
O23   H17   S    
S3    O15   D    
C9    H7    S    
C17   C18   S    
C10   N2    D    
C9    C10   S    
C11   O4    A    
Cu2   O6    S    
C14   C15   S    
S4    O20   S    
S6    O25   D    
C9    N1    D    
O11   H12   S    
S6    O26   S    
C16   H16   S    
C3    C16   S    
S2    O12   D    
S1    O9    D    
Cu1   O1    S    
O20   H15   S    
C17   H18   S    
Cu2   O2    S    
