data_mof_unit_63153.cif
_audit_creation_date              2013-03-05T15:40:16-0500
_audit_creation_method            fapswitch 2.2
_symmetry_space_group_name_H-M    P1
_symmetry_Int_Tables_number       1
_space_group_crystal_system       triclinic
_cell_length_a                    19.042698
_cell_length_b                    18.761056
_cell_length_c                    18.750581
_cell_angle_alpha                 109.193028
_cell_angle_beta                  109.670736
_cell_angle_gamma                 109.626419
_cell_volume                      5151.82238212

loop_
_atom_site_label
_atom_site_type_symbol
_atom_site_description
_atom_site_fract_x
_atom_site_fract_y
_atom_site_fract_z
_atom_type_partial_charge
O1    O     O_R   0.409870 0.358470 0.449260 -0.618145
O2    O     O_R   0.409230 0.460600 0.550770 -0.569396
C1    C     C_R   0.381278 0.380348 0.500268 0.942244
O3    O     O_R   0.591360 0.448940 0.540280 -0.630719
O4    O     O_R   0.590720 0.551070 0.641790 -0.587261
C2    C     C_R   0.618987 0.499367 0.620167 0.889031
Zn1   Zn    Zn3+2 0.500430 0.431810 0.432220 1.063887
Zn2   Zn    Zn3+2 0.499570 0.568190 0.567780 1.105343
O5    O     O_R   0.590770 0.539400 0.449230 -0.617140
O6    O     O_R   0.590130 0.641530 0.550740 -0.605391
O7    O     O_R   0.409280 0.448930 0.358210 -0.568075
O8    O     O_R   0.408640 0.551060 0.459720 -0.633698
C3    C     C_R   0.615860 0.619378 0.496799 0.937249
C4    C     C_R   0.377268 0.496421 0.379146 0.850857
C5    C     C_R   0.758443 0.662767 0.779971 -0.251844
C6    C     C_R   0.814347 0.738299 0.862397 0.251355
C7    C     C_R   0.863398 0.732444 0.933383 0.271927
C8    C     C_R   0.862235 0.653690 0.917677 -0.252484
C9    C     C_R   0.809081 0.578954 0.833310 0.022565
C10   C     C_R   0.749965 0.580572 0.766181 0.039428
C11   C     C_R   0.816065 0.503543 0.813591 -0.102438
C12   C     C_R   0.765387 0.430179 0.729885 0.043623
C13   C     C_R   0.691413 0.422556 0.670742 0.024102
C14   C     C_R   0.686032 0.500194 0.687120 -0.136745
C15   C     C_R   0.785962 0.363465 0.705291 -0.186573
C16   C     C_R   0.730087 0.286990 0.624821 -0.001853
C17   C     C_R   0.648540 0.272095 0.572134 -0.053553
C18   C     C_R   0.626961 0.337394 0.598706 -0.032877
H1    H     H_    0.725751 0.670964 0.726459 0.200000
H2    H     H_    0.902814 0.651249 0.972303 0.184713
H3    H     H_    0.846235 0.371144 0.747888 0.125490
C19   C     C_2   0.262887 0.253833 0.583791 -0.105917
C20   C     C_2   0.180205 0.204706 0.519011 -0.342293
H4    H     H_    0.156570 0.225095 0.472387 0.185721
C21   C     C_2   0.322431 0.325244 0.580897 0.256361
C22   C     C_2   0.321748 0.311971 0.504751 -0.302964
C23   C     C_2   0.175228 0.502868 0.260249 0.365404
C24   C     C_2   0.184295 0.516908 0.197060 -0.367324
H5    H     H_    0.247428 0.541533 0.202485 0.169202
C25   C     C_2   0.249345 0.510160 0.328060 -0.312885
C26   C     C_2   0.299704 0.480300 0.309131 0.095368
H6    H     H_    0.263906 0.543017 0.395172 0.197511
C27   C     C_2   0.741178 0.742432 0.414976 0.303444
C28   C     C_2   0.817563 0.801989 0.488974 -0.437557
H7    H     H_    0.835480 0.793280 0.545687 0.159339
C29   C     C_2   0.678578 0.671010 0.415663 -0.104601
C30   C     C_2   0.672449 0.686393 0.488310 -0.409957
H8    H     H_    0.707704 0.752504 0.542981 0.178269
O9    O     O_R   0.946350 0.358500 0.906960 -0.609750
O10   O     O_R   0.048480 0.460610 0.906920 -0.612976
C31   C     C_R   0.993190 0.380348 0.874164 0.890939
O11   O     O_R   0.854760 0.448970 0.905840 -0.607383
O12   O     O_R   0.956890 0.551080 0.905790 -0.620134
C32   C     C_R   0.878723 0.502175 0.879530 0.851016
Zn3   Zn    Zn3+2 0.928680 0.431850 0.996880 1.125128
Zn4   Zn    Zn3+2 0.065060 0.568210 0.996820 1.046722
O13   O     O_R   0.945260 0.539450 0.086770 -0.542544
O14   O     O_R   0.047380 0.641560 0.086730 -0.641564
O15   O     O_R   0.036850 0.448980 0.087900 -0.560058
O16   O     O_R   0.138970 0.551100 0.087860 -0.618455
C33   C     C_R   0.999731 0.619322 0.119146 0.855840
C34   C     C_R   0.116363 0.504980 0.121384 0.972549
O17   O     O_R   0.050830 0.090460 0.641300 -0.627918
O18   O     O_R   0.948030 0.090450 0.538510 -0.574259
C35   C     C_R   0.005587 0.124426 0.618298 0.947778
O19   O     O_R   0.141850 0.090470 0.551380 -0.611558
O20   O     O_R   0.039050 0.090460 0.448590 -0.592171
C36   C     C_R   0.118056 0.124427 0.505547 0.950825
Zn5   Zn    Zn3+2 0.068640 0.000010 0.568630 1.094469
Zn6   Zn    Zn3+2 0.931360 0.999990 0.431370 1.155288
O21   O     O_R   0.051970 0.909550 0.461490 -0.568936
O22   O     O_R   0.949170 0.909540 0.358700 -0.587506
O23   O     O_R   0.960950 0.909540 0.551410 -0.615810
O24   O     O_R   0.858150 0.909530 0.448620 -0.574093
C37   C     C_R   0.006103 0.887504 0.381551 0.989727
C38   C     C_R   0.881479 0.877533 0.496942 0.974521
C39   C     C_2   0.998870 0.259524 0.669412 0.301733
C40   C     C_2   0.021436 0.203283 0.685298 -0.427969
H9    H     H_    0.052953 0.215757 0.751903 0.166993
C41   C     C_2   0.006182 0.329263 0.742121 -0.153502
C42   C     C_2   0.979067 0.311919 0.796117 -0.273343
C43   C     C_2   0.087080 0.827163 0.328749 0.321257
C44   C     C_2   0.017332 0.836580 0.313902 -0.342983
H10   H     H_    0.964459 0.803957 0.247345 0.190463
C45   C     C_2   0.083038 0.761984 0.254913 -0.197249
C46   C     C_2   0.009990 0.682734 0.198061 0.086414
C47   C     C_1   0.585292 0.188181 0.493510 0.211661
N1    N     N_1   0.534849 0.121289 0.430827 -0.130307
N2    N     N_R   0.385720 0.405555 0.662057 0.231079
O25   O     O_R   0.467510 0.434882 0.689187 -0.369733
O26   O     O_R   0.362513 0.438461 0.716539 -0.329311
C48   C     C_1   0.271797 0.225819 0.427076 0.218750
N3    N     N_1   0.232358 0.157473 0.365345 -0.107419
N4    N     N_R   0.099694 0.488632 0.268144 0.239329
O27   O     O_R   0.080078 0.446350 0.307687 -0.306418
O28   O     O_R   0.060288 0.530753 0.251002 -0.350849
N5    N     N_R   0.273325 0.422594 0.220289 0.214692
O29   O     O_R   0.329889 0.430588 0.194884 -0.341015
O30   O     O_R   0.195297 0.356124 0.167991 -0.330637
N6    N     N_R   0.721813 0.743021 0.334038 0.231813
O31   O     O_R   0.775732 0.747046 0.305393 -0.328099
O32   O     O_R   0.644734 0.724446 0.282284 -0.337746
C49   C     C_1   0.623966 0.586624 0.336300 0.370973
N7    N     N_1   0.580425 0.519407 0.272881 -0.104133
N8    N     N_R   0.974363 0.257465 0.586844 0.236912
O33   O     O_R   0.919323 0.281969 0.559235 -0.357132
O34   O     O_R   0.018594 0.247753 0.548228 -0.361079
C50   C     C_1   0.043637 0.415851 0.752584 0.337786
N9    N     N_1   0.073417 0.484814 0.760622 -0.131998
C51   C     C_1   0.925350 0.222707 0.773719 0.232528
N10   N     N_1   0.882583 0.151903 0.756052 -0.140119
N11   N     N_R   0.165525 0.880748 0.412187 0.233346
O35   O     O_R   0.198634 0.965057 0.453039 -0.369822
O36   O     O_R   0.211570 0.847423 0.439186 -0.328441
C52   C     C_1   0.158997 0.787295 0.245886 0.331800
N12   N     N_1   0.219790 0.807696 0.238958 -0.130892
N13   N     N_R   0.943349 0.653115 0.219209 0.219986
O37   O     O_R   0.862511 0.610829 0.159025 -0.319615
O38   O     O_R   0.963162 0.658906 0.295242 -0.300974
N14   N     N_R   0.822975 0.820514 0.871822 0.239031
O39   O     O_R   0.898419 0.891025 0.920746 -0.290614
O40   O     O_R   0.757951 0.823236 0.822487 -0.346530
N15   N     N_R   0.913771 0.804981 0.021231 0.241076
O41   O     O_R   0.884681 0.855777 0.047944 -0.284376
O42   O     O_R   0.982444 0.813077 0.078239 -0.388965
C53   C     C_1   0.754462 0.221426 0.601091 0.238045
N16   N     N_1   0.773523 0.168609 0.581753 -0.139132
C54   C     C_1   0.537215 0.307700 0.570443 0.243614
N17   N     N_1   0.465022 0.280296 0.548507 -0.173820
C55   C     C_1   0.297159 0.238843 0.655660 0.366669
N18   N     N_1   0.324757 0.227118 0.713171 -0.132154

loop_
_geom_bond_atom_site_label_1
_geom_bond_atom_site_label_2
_geom_bond_distance
_ccdc_geom_bond_type
C15   H3    1.082652 S    
O19   C36   1.281201 A    
C47   N1    1.157312 T    
O17   C35   1.278166 A    
C53   N16   1.157184 T    
Zn3   O15   2.021618 S    
C21   C22   1.361006 D    
C54   N17   1.152785 T    
C19   C55   1.449620 S    
N5    O29   1.301349 A    
N15   O41   1.301341 A    
C39   C40   1.346026 D    
N14   O39   1.301396 A    
Zn1   O7    2.021807 S    
N8    O34   1.301483 A    
C16   C17   1.399886 A    
O24   C38   1.282364 A    
O4    C2    1.278338 A    
C9    C11   1.404137 A    
C23   C25   1.474859 S    
N13   O38   1.301996 A    
O17   Zn5   2.007171 S    
C24   H5    1.087559 S    
O7    C4    1.271050 A    
O12   Zn4   2.021703 S    
O19   Zn5   2.000874 S    
C52   N12   1.157516 T    
C50   N9    1.157425 T    
O16   C34   1.272285 A    
C8    C9    1.415350 A    
C16   C53   1.445395 S    
O13   C33   1.274251 A    
Zn5   O21   1.995966 S    
O5    C3    1.275466 A    
C51   N10   1.157518 T    
C48   N3    1.157565 T    
C7    N15   1.439033 S    
C30   H8    1.086858 S    
N14   O40   1.301521 A    
C6    C7    1.408623 A    
O9    C31   1.277160 A    
C12   C15   1.415743 A    
Zn6   O24   2.000875 S    
C13   C14   1.433085 A    
Zn5   O23   2.011515 S    
C8    H2    1.081718 S    
O18   Zn6   1.995967 S    
N2    O26   1.300985 A    
C31   C42   1.459414 S    
O11   Zn3   2.011255 S    
C22   C48   1.457801 S    
O14   C33   1.284739 A    
C25   H6    1.086590 S    
C11   C12   1.398855 A    
O22   C37   1.278573 A    
N11   O36   1.301363 A    
N11   O35   1.301690 A    
N5    O30   1.301847 A    
O11   C32   1.271739 A    
C5    H1    1.078528 S    
Zn4   O14   2.004290 S    
C5    C10   1.418935 A    
C5    C6    1.403202 A    
O20   C36   1.279407 A    
C19   C21   1.467046 S    
C10   C14   1.426764 A    
C45   C52   1.450063 S    
C27   N6    1.440933 S    
O3    C2    1.272371 A    
C3    C30   1.450584 S    
C40   H9    1.087922 S    
O3    Zn1   2.010730 S    
C15   C16   1.391959 A    
C45   C46   1.360945 D    
O10   Zn4   1.998110 S    
Zn4   O16   2.011040 S    
O1    C1    1.273692 A    
C43   N11   1.439952 S    
N4    O28   1.301486 A    
C27   C28   1.348914 D    
C23   C24   1.347358 D    
C44   H10   1.087972 S    
Zn2   O8    2.010730 S    
C2    C14   1.449529 S    
N6    O32   1.301032 A    
C7    C8    1.399217 A    
O10   C31   1.282473 A    
C13   C18   1.425208 A    
C17   C47   1.451650 S    
C4    C26   1.459442 S    
C21   N2    1.440957 S    
C25   C26   1.348594 D    
O8    C4    1.285666 A    
Zn3   O13   1.998025 S    
O23   C38   1.280477 A    
C26   N5    1.443925 S    
C17   C18   1.411591 A    
C28   H7    1.086903 S    
N8    O33   1.301050 A    
C39   C41   1.472042 S    
Zn1   O5    2.002542 S    
C29   C30   1.350423 D    
O15   C34   1.283844 A    
C35   C40   1.442494 S    
O1    Zn1   2.008788 S    
O2    Zn2   2.002542 S    
C41   C42   1.361363 D    
O6    C3    1.276640 A    
O4    Zn2   2.021807 S    
O12   C32   1.261750 A    
C43   C45   1.473035 S    
C29   C49   1.451015 S    
C41   C50   1.450517 S    
O20   Zn6   2.011514 S    
O18   C35   1.282806 A    
C9    C10   1.395215 A    
C6    N14   1.438162 S    
O2    C1    1.277400 A    
O9    Zn3   2.004287 S    
N13   O37   1.301532 A    
C19   C20   1.343663 D    
O21   C37   1.284127 A    
C37   C44   1.445847 S    
C11   C32   1.414655 S    
C1    C22   1.447727 S    
C39   N8    1.441648 S    
N6    O31   1.301645 A    
C20   H4    1.088010 S    
C23   N4    1.439954 S    
C55   N18   1.157380 T    
C46   N13   1.444429 S    
N4    O27   1.301010 A    
C27   C29   1.471503 S    
N15   O42   1.301750 A    
C33   C46   1.461100 S    
C42   C51   1.456882 S    
Zn2   O6    2.008786 S    
C43   C44   1.346790 D    
C49   N7    1.157444 T    
C12   C13   1.394007 A    
Zn6   O22   2.007170 S    
C28   C38   1.446360 S    
N2    O25   1.301633 A    
C18   C54   1.438227 S    
C20   C36   1.443681 S    
C24   C34   1.448431 S    
