data_mof_unit_38180.cif
_audit_creation_date              2012-10-26T21:24:43-0400
_audit_creation_method            fapswitch 2.2
_symmetry_space_group_name_H-M    P1
_symmetry_Int_Tables_number       1
_space_group_crystal_system       triclinic
_cell_length_a                    9.554851
_cell_length_b                    10.838673
_cell_length_c                    15.533158
_cell_angle_alpha                 89.821929
_cell_angle_beta                  74.182817
_cell_angle_gamma                 90.527693
_cell_volume                      1547.64220809

loop_
_atom_site_label
_atom_site_type_symbol
_atom_type_description
_atom_site_fract_x
_atom_site_fract_y
_atom_site_fract_z
_atom_type_partial_charge
C1    C     C_R   0.998387 0.262438 0.502155 0.549461
C2    C     C_R   0.229113 0.429573 0.047871 0.049345
C3    C     C_R   0.328982 0.470802 0.094585 0.034365
C4    C     C_R   0.918042 0.499945 0.672017 0.546987
C5    C     C_R   0.081080 0.414222 0.092763 -0.144816
C6    C     C_R   0.030348 0.440383 0.183676 -0.143401
C7    C     C_R   0.273821 0.500544 0.185351 -0.131749
C8    C     C_R   0.114009 0.065395 0.520088 0.021860
C9    C     C_R   0.992471 0.129527 0.511926 0.007357
C10   C     C_R   0.863503 0.063239 0.516518 -0.161798
C11   C     C_R   0.864586 0.934534 0.515950 -0.160190
C12   C     C_R   0.675694 0.483000 0.908520 0.034290
C13   C     C_R   0.994651 0.871102 0.510726 0.007798
C14   C     C_R   0.115313 0.938358 0.519523 0.024591
C15   C     C_3   0.270549 0.936145 0.465257 -0.277913
C16   C     C_R   0.999599 0.737814 0.501592 0.550067
C17   C     C_3   0.268876 0.075947 0.466334 -0.261847
C18   C     C_R   0.607892 0.530506 0.424395 0.155212
C19   C     C_R   0.541974 0.456708 0.571435 -0.014441
C20   C     C_R   0.393294 0.457023 0.571529 -0.019054
C21   C     C_R   0.460621 0.530412 0.424270 0.161867
C22   C     C_3   0.479967 0.650539 0.375200 -0.280136
C23   C     C_R   0.777403 0.513373 0.956939 0.050256
C24   C     C_3   0.638812 0.649572 0.374719 -0.275460
C25   C     C_R   0.081845 0.497499 0.328031 0.544422
C26   C     C_R   0.872743 0.500627 0.770177 -0.000397
C27   C     C_R   0.127271 0.482637 0.230500 -0.002919
C28   C     C_R   0.924610 0.533363 0.912175 -0.141984
C29   C     C_R   0.972337 0.525806 0.819390 -0.140033
C30   C     C_R   0.726217 0.479205 0.814717 -0.131819
C31   C     C_R   0.526673 0.461720 0.955133 0.034214
C32   C     C_R   0.479891 0.481623 0.049158 0.034076
C33   C     C_R   0.585833 0.509283 0.094891 -0.139783
C34   C     C_R   0.731376 0.524530 0.049471 -0.140322
C35   C     C_R   0.423332 0.419648 0.911241 -0.138342
C36   C     C_R   0.277876 0.403192 0.957092 -0.139755
Cu1   Cu    Cu3+1 0.140670 0.499980 0.500000 0.936574
Cu2   Cu    Cu3+1 0.859330 0.500020 0.500000 0.932977
H1    H     H_    0.808244 0.546875 0.087237 0.106492
H2    H     H_    0.311679 0.423800 0.629967 0.113242
H3    H     H_    0.464435 0.643090 0.307306 0.112368
H4    H     H_    0.342488 0.538680 0.222921 0.110737
H5    H     H_    0.417995 0.724698 0.416706 0.143751
H6    H     H_    0.714067 0.638114 0.306733 0.123454
H7    H     H_    0.668624 0.725012 0.414915 0.147216
H8    H     H_    0.916477 0.424844 0.217599 0.125460
H9    H     H_    0.202738 0.370182 0.920904 0.107843
H10   H     H_    0.002583 0.556748 0.948885 0.113775
H11   H     H_    0.086166 0.542869 0.786151 0.125174
H12   H     H_    0.004961 0.380019 0.057771 0.111614
H13   H     H_    0.652864 0.463275 0.774254 0.111774
H14   H     H_    0.561109 0.516922 0.166501 0.096936
H15   H     H_    0.451513 0.394930 0.841599 0.093555
H16   H     H_    0.764218 0.110086 0.515718 0.134898
H17   H     H_    0.765692 0.885586 0.515026 0.131084
H18   H     H_    0.342606 0.897315 0.503688 0.133407
H19   H     H_    0.283668 0.897488 0.397307 0.132592
H20   H     H_    0.339310 0.116888 0.505372 0.139232
H21   H     H_    0.281326 0.117942 0.399196 0.145399
H22   H     H_    0.570444 0.422645 0.629807 0.111019
N1    N     N_R   0.648210 0.500930 0.499430 -0.230450
N2    N     N_R   0.352300 0.500890 0.499430 -0.231100
O1    O     O_R   0.118810 0.319640 0.500000 -0.498429
O2    O     O_R   0.881230 0.319680 0.499990 -0.506446
O3    O     O_R   0.055580 0.499970 0.629840 -0.510406
O4    O     O_R   0.818000 0.500010 0.629830 -0.513482
O5    O     O_R   0.118770 0.680320 0.500010 -0.496965
O6    O     O_R   0.881190 0.680360 0.500000 -0.506814
O7    O     O_R   0.182000 0.499990 0.370170 -0.504701
O8    O     O_R   0.944420 0.500030 0.370160 -0.501786

loop_
_geom_bond_atom_site_label_1
_geom_bond_atom_site_label_2
_ccdc_geom_bond_type
C4    C26   S    
C30   H13   S    
Cu2   O8    S    
C18   N1    A    
C23   C28   A    
Cu1   Cu2   S    
C16   O6    A    
Cu1   O7    S    
C19   H22   S    
C25   C27   S    
C18   C21   A    
C11   C13   A    
C9    C10   A    
C3    C7    A    
C8    C17   S    
C14   C15   S    
C6    C27   A    
C17   H20   S    
C23   C34   A    
C15   H18   S    
Cu2   N1    S    
C33   C34   A    
C11   H17   S    
C16   O5    A    
C29   H11   S    
C13   C14   A    
C32   C33   A    
C33   H14   S    
C4    O4    A    
C15   H19   S    
C12   C23   A    
C6    H8    S    
C21   N2    A    
C3    C32   A    
C35   C36   A    
C17   H21   S    
C18   C24   S    
C24   H7    S    
Cu1   O5    S    
C22   C24   S    
C28   C29   A    
Cu1   O1    S    
C24   H6    S    
C19   N1    A    
C26   C30   A    
Cu2   O2    S    
C12   C31   A    
C20   N2    A    
C5    C6    A    
C20   H2    S    
C31   C35   A    
C5    H12   S    
C13   C16   S    
C2    C5    A    
C25   O7    A    
C10   C11   A    
C10   H16   S    
C34   H1    S    
C22   H3    S    
C1    O2    A    
Cu2   O4    S    
C7    C27   A    
C36   H9    S    
C35   H15   S    
C7    H4    S    
C2    C36   A    
C15   C17   S    
Cu1   N2    S    
C4    O3    A    
C1    O1    A    
C2    C3    A    
C25   O8    A    
C8    C14   A    
C26   C29   A    
C12   C30   A    
C21   C22   S    
C31   C32   A    
C28   H10   S    
C1    C9    S    
C19   C20   A    
Cu2   O6    S    
C8    C9    A    
C22   H5    S    
Cu1   O3    S    
