data_mof_unit_56819.cif
_audit_creation_date              2012-12-10T16:37:49-0500
_audit_creation_method            fapswitch 2.2
_symmetry_space_group_name_H-M    P1
_symmetry_Int_Tables_number       1
_space_group_crystal_system       triclinic
_cell_length_a                    28.082149
_cell_length_b                    18.423309
_cell_length_c                    16.881333
_cell_angle_alpha                 89.930725
_cell_angle_beta                  61.215994
_cell_angle_gamma                 89.874114
_cell_volume                      7654.66882718

loop_
_atom_site_label
_atom_site_type_symbol
_atom_type_description
_atom_site_fract_x
_atom_site_fract_y
_atom_site_fract_z
_atom_type_partial_charge
C1    C     C_R   0.700818 0.265696 0.677241 0.900237
C2    C     C_R   0.299384 0.734681 0.322560 0.900964
C3    C     C_R   0.299100 0.265852 0.322804 0.897724
C4    C     C_R   0.701105 0.733664 0.677021 0.917031
C5    C     C_R   0.200905 0.765836 0.677258 0.879892
C6    C     C_R   0.799425 0.234820 0.322559 0.883134
C7    C     C_R   0.799244 0.765710 0.322933 0.864364
C8    C     C_R   0.200644 0.234619 0.677402 0.878217
C9    C     C_R   0.898840 0.502985 0.509026 0.067281
C10   C     C_R   0.077377 0.501831 0.573469 0.079422
C11   C     C_R   0.424309 0.000118 0.420111 0.071034
C12   C     C_R   0.619125 0.000263 0.442132 0.072699
C13   C     C_R   0.069448 0.371616 0.594851 -0.209240
C14   C     C_R   0.916405 0.630680 0.470219 -0.190970
C15   C     C_R   0.879594 0.378188 0.560343 -0.201436
C16   C     C_R   0.073950 0.632956 0.582278 -0.207907
C17   C     C_R   0.622431 0.869013 0.429316 -0.198257
C18   C     C_R   0.429187 0.131464 0.406756 -0.214924
C19   C     C_R   0.428702 0.868641 0.409809 -0.201356
C20   C     C_R   0.622844 0.131424 0.427456 -0.215191
C21   C     C_R   0.734946 0.290475 0.937914 -0.017451
C22   C     C_R   0.295220 0.760425 0.028992 -0.012704
C23   C     C_R   0.264784 0.291060 0.062145 -0.015299
C24   C     C_R   0.719688 0.734918 0.956350 -0.017198
C25   C     C_R   0.235709 0.791824 0.937381 -0.016377
C26   C     C_R   0.794375 0.258871 0.029600 -0.015390
C27   C     C_R   0.784562 0.757167 0.040713 -0.018587
C28   C     C_R   0.205242 0.259505 0.970658 -0.012631
C29   C     C_R   0.774960 0.235396 0.905330 0.082539
C30   C     C_R   0.252882 0.812372 0.064741 0.082027
C31   C     C_R   0.224168 0.236957 0.095675 0.074804
C32   C     C_R   0.768546 0.775059 0.911745 0.085762
C33   C     C_R   0.276538 0.737852 0.903843 0.078558
C34   C     C_R   0.752381 0.311290 0.064929 0.086245
C35   C     C_R   0.736118 0.716218 0.084983 0.082238
C36   C     C_R   0.247410 0.311534 0.934905 0.087720
C37   C     C_R   0.810066 0.227537 0.943757 -0.019414
C38   C     C_R   0.228126 0.835207 0.012075 -0.017353
C39   C     C_R   0.189128 0.229276 0.057125 -0.012356
C40   C     C_R   0.803320 0.781542 0.950938 -0.018598
C41   C     C_R   0.311561 0.730320 0.942425 -0.010803
C42   C     C_R   0.727782 0.334206 0.012104 -0.020372
C43   C     C_R   0.701285 0.709534 0.045812 -0.001271
C44   C     C_R   0.272189 0.334399 0.987452 -0.017160
C45   C     C_R   0.663968 0.358771 0.925095 0.003611
C46   C     C_R   0.367094 0.692105 0.039685 0.014147
C47   C     C_R   0.336193 0.358562 0.074324 0.009176
C48   C     C_R   0.639700 0.682303 0.955005 0.013709
C49   C     C_R   0.164059 0.859045 0.925255 0.006597
C50   C     C_R   0.866509 0.191288 0.040241 0.012510
C51   C     C_R   0.862998 0.813514 0.043419 0.016083
C52   C     C_R   0.133381 0.191298 0.960094 0.013578
C53   C     C_R   0.627615 0.364192 0.888646 -0.118234
C54   C     C_R   0.388711 0.662276 0.094103 -0.112448
C55   C     C_R   0.372470 0.363943 0.111038 -0.109603
C56   C     C_R   0.614014 0.658591 0.903973 -0.109893
C57   C     C_R   0.127624 0.864100 0.888864 -0.108794
C58   C     C_R   0.888509 0.162055 0.094343 -0.125138
C59   C     C_R   0.887219 0.839892 0.095522 -0.128231
C60   C     C_R   0.111547 0.161905 0.905785 -0.108064
C61   C     C_R   0.636520 0.325351 0.813295 -0.290987
C62   C     C_R   0.368061 0.682706 0.183097 -0.275740
C63   C     C_R   0.363451 0.325118 0.186534 -0.270528
C64   C     C_R   0.632919 0.681324 0.816286 -0.293326
C65   C     C_R   0.136544 0.825056 0.813642 -0.291529
C66   C     C_R   0.868063 0.182810 0.183160 -0.273803
C67   C     C_R   0.867619 0.818410 0.183924 -0.278054
C68   C     C_R   0.132052 0.182621 0.816903 -0.293977
C69   C     C_R   0.679992 0.279084 0.773764 -0.125528
C70   C     C_R   0.324237 0.729096 0.223410 -0.116749
C71   C     C_R   0.319883 0.279161 0.226227 -0.117429
C72   C     C_R   0.678075 0.724987 0.774892 -0.124935
C73   C     C_R   0.180303 0.779272 0.773774 -0.121098
C74   C     C_R   0.824128 0.229027 0.223493 -0.105106
C75   C     C_R   0.823218 0.773314 0.224806 -0.099799
C76   C     C_R   0.175853 0.228867 0.776564 -0.119694
C77   C     C_R   0.709150 0.259745 0.821126 0.081729
C78   C     C_R   0.301637 0.760832 0.170366 0.079080
C79   C     C_R   0.290582 0.260107 0.179027 0.076730
C80   C     C_R   0.704905 0.749467 0.824292 0.081503
C81   C     C_R   0.209897 0.760529 0.820708 0.083703
C82   C     C_R   0.801271 0.260341 0.170585 0.078806
C83   C     C_R   0.797928 0.746185 0.174334 0.071449
C84   C     C_R   0.198522 0.260303 0.829534 0.085837
C85   C     C_R   0.705201 0.130990 0.494627 0.944407
C86   C     C_R   0.309527 0.870286 0.460962 0.921658
C87   C     C_R   0.309597 0.129874 0.460608 0.917365
C88   C     C_R   0.705023 0.869135 0.495070 0.945576
C89   C     C_R   0.192294 0.629078 0.531331 0.943256
C90   C     C_R   0.804990 0.372232 0.478463 0.951478
C91   C     C_R   0.808820 0.629131 0.466529 0.933573
C92   C     C_R   0.191795 0.370918 0.532374 0.936682
C93   C     C_R   0.702451 0.302558 0.895237 0.074368
C94   C     C_R   0.321308 0.737891 0.079820 0.078315
C95   C     C_R   0.297463 0.302760 0.104593 0.077191
C96   C     C_R   0.688305 0.721797 0.911659 0.070734
C97   C     C_R   0.202958 0.803321 0.895004 0.073882
C98   C     C_R   0.820690 0.236921 0.080299 0.073724
C99   C     C_R   0.815050 0.772534 0.086272 0.073775
C100  C     C_R   0.179069 0.237100 0.919951 0.075834
C101  C     C_R   0.665269 0.409850 0.986060 -0.204909
C102  C     C_R   0.390752 0.680342 0.945581 -0.194745
C103  C     C_R   0.335085 0.409433 0.012822 -0.193148
C104  C     C_R   0.617162 0.671807 0.048865 -0.187123
C105  C     C_R   0.165063 0.910100 0.986548 -0.200983
C106  C     C_R   0.889612 0.178515 0.946548 -0.194863
C107  C     C_R   0.886388 0.822633 0.949131 -0.194866
C108  C     C_R   0.109996 0.179230 0.054132 -0.194723
C109  C     C_R   0.697072 0.399035 0.028093 0.241208
C110  C     C_R   0.363201 0.696798 0.897708 0.260965
C111  C     C_R   0.303278 0.398801 0.970773 0.239742
C112  C     C_R   0.646648 0.685105 0.094225 0.263246
C113  C     C_R   0.196858 0.899573 0.028661 0.239581
C114  C     C_R   0.861285 0.192710 0.899541 0.240154
C115  C     C_R   0.857927 0.806037 0.902729 0.240706
C116  C     C_R   0.137629 0.195584 0.101856 0.261153
C117  C     C_R   0.744127 0.199419 0.797957 -0.187805
C118  C     C_R   0.260224 0.814140 0.203333 -0.172910
C119  C     C_R   0.254989 0.200497 0.203029 -0.160425
C120  C     C_R   0.746019 0.802758 0.792373 -0.174721
C121  C     C_R   0.245807 0.701088 0.796636 -0.172810
C122  C     C_R   0.759855 0.313642 0.203419 -0.178621
C123  C     C_R   0.757860 0.691554 0.205972 -0.172863
C124  C     C_R   0.239797 0.313607 0.796585 -0.193606
C125  C     C_R   0.775865 0.187194 0.839858 -0.161030
C126  C     C_R   0.235331 0.836979 0.153279 -0.150247
C127  C     C_R   0.222634 0.189190 0.162096 -0.111091
C128  C     C_R   0.777236 0.814789 0.834863 -0.154001
C129  C     C_R   0.278285 0.690019 0.837450 -0.115060
C130  C     C_R   0.734977 0.336327 0.153271 -0.162145
C131  C     C_R   0.727670 0.677106 0.162207 -0.116642
C132  C     C_R   0.264773 0.336255 0.846465 -0.157687
C133  C     C_R   0.072089 0.102805 0.936347 0.879345
C134  C     C_R   0.927774 0.897400 0.063801 0.929058
C135  C     C_R   0.927911 0.102809 0.063664 0.909240
C136  C     C_R   0.079811 0.909264 0.928495 0.917879
C137  C     C_R   0.572627 0.602202 0.935917 0.881445
C138  C     C_R   0.420209 0.409199 0.071498 0.938487
C139  C     C_R   0.428040 0.602946 0.063516 0.891489
C140  C     C_R   0.579861 0.409394 0.928409 0.933855
C141  C     C_R   0.575683 0.131757 0.418895 0.103137
C142  C     C_R   0.477682 0.868388 0.412465 0.086821
C143  C     C_R   0.478534 0.131777 0.408407 0.105334
C144  C     C_R   0.574793 0.868585 0.422564 0.084915
C145  C     C_R   0.030968 0.634487 0.562870 0.102635
C146  C     C_R   0.924763 0.376236 0.574718 0.079741
C147  C     C_R   0.952500 0.633193 0.504996 0.090279
C148  C     C_R   0.019337 0.372967 0.594332 0.089287
C149  C     C_R   0.554451 0.196990 0.405807 -0.195383
C150  C     C_R   0.504554 0.802948 0.407842 -0.139012
C151  C     C_R   0.506202 0.197011 0.400733 -0.195534
C152  C     C_R   0.552720 0.803067 0.412993 -0.128860
C153  C     C_R   0.013119 0.699986 0.543420 -0.138150
C154  C     C_R   0.940956 0.311750 0.599775 -0.135819
C155  C     C_R   0.975757 0.699023 0.510913 -0.164192
C156  C     C_R   0.988514 0.309754 0.607660 -0.141138
C157  C     C_R   0.500702 0.066008 0.417723 0.029647
C158  C     C_R   0.548889 0.934399 0.425104 0.030059
C159  C     C_R   0.549348 0.066033 0.423178 0.030050
C160  C     C_R   0.500247 0.934328 0.419770 0.030814
C161  C     C_R   0.966256 0.568716 0.533210 0.031953
C162  C     C_R   0.000722 0.438404 0.575955 0.033179
C163  C     C_R   0.007955 0.568839 0.556675 0.030121
C164  C     C_R   0.954996 0.439418 0.562095 0.035335
C165  C     C_R   0.939959 0.503704 0.534752 -0.023569
C166  C     C_R   0.027921 0.503058 0.571077 -0.025841
C167  C     C_R   0.475007 0.000161 0.419314 -0.031404
C168  C     C_R   0.572428 0.000253 0.430339 -0.031534
C169  C     C_R   0.869627 0.438771 0.517303 0.008450
C170  C     C_R   0.103527 0.567515 0.570762 0.004195
C171  C     C_R   0.102062 0.435152 0.573902 0.012847
C172  C     C_R   0.886077 0.567040 0.477213 0.021281
C173  C     C_R   0.398786 0.933572 0.421792 0.016088
C174  C     C_R   0.642507 0.066696 0.447478 0.016069
C175  C     C_R   0.642374 0.933781 0.448145 0.012848
C176  C     C_R   0.399019 0.066625 0.420499 0.016187
C177  C     C_R   0.833333 0.437575 0.479330 -0.177422
C178  C     C_R   0.159817 0.564880 0.546005 -0.185620
C179  C     C_R   0.159112 0.435712 0.546660 -0.186823
C180  C     C_R   0.842773 0.565238 0.455098 -0.174382
C181  C     C_R   0.345606 0.934573 0.430467 -0.189986
C182  C     C_R   0.686862 0.065507 0.466805 -0.188635
C183  C     C_R   0.686769 0.934762 0.467172 -0.188319
C184  C     C_R   0.345744 0.065623 0.429739 -0.189293
C185  C     C_R   0.824966 0.499677 0.440419 0.175701
C186  C     C_R   0.187865 0.500008 0.518145 0.182391
C187  C     C_R   0.324487 0.000097 0.418953 0.199948
C188  C     C_R   0.713407 0.000054 0.461064 0.181871
H1    H     H_    0.001690 0.258652 0.622483 0.181502
H2    H     H_    0.964677 0.749656 0.491285 0.152353
H3    H     H_    0.918263 0.262148 0.608944 0.186292
H4    H     H_    0.030642 0.751253 0.547525 0.155381
H5    H     H_    0.572258 0.751809 0.410982 0.177454
H6    H     H_    0.490083 0.248183 0.392271 0.146024
H7    H     H_    0.487917 0.751589 0.401598 0.169370
H8    H     H_    0.574627 0.248144 0.401103 0.144358
H9    H     H_    0.082488 0.320589 0.609506 0.172889
H10   H     H_    0.914465 0.678492 0.434854 0.175704
H11   H     H_    0.853484 0.331444 0.583645 0.185160
H12   H     H_    0.085306 0.684000 0.599398 0.179417
H13   H     H_    0.644304 0.818362 0.415732 0.180554
H14   H     H_    0.416251 0.182121 0.391007 0.171390
H15   H     H_    0.416021 0.817751 0.394498 0.174137
H16   H     H_    0.644636 0.182007 0.414407 0.175211
H17   H     H_    0.611336 0.334710 0.781663 0.193730
H18   H     H_    0.384479 0.658343 0.223378 0.199360
H19   H     H_    0.388604 0.334336 0.218204 0.188791
H20   H     H_    0.613633 0.661648 0.778130 0.197690
H21   H     H_    0.111173 0.833993 0.782260 0.191736
H22   H     H_    0.884705 0.158792 0.223302 0.205733
H23   H     H_    0.885686 0.840186 0.222981 0.201744
H24   H     H_    0.115515 0.158606 0.776717 0.196135
H25   H     H_    0.644352 0.461225 0.997468 0.203125
H26   H     H_    0.431961 0.661211 0.906339 0.198869
H27   H     H_    0.356103 0.460645 0.001019 0.204546
H28   H     H_    0.574816 0.658347 0.090170 0.199616
H29   H     H_    0.143787 0.961259 0.998436 0.204307
H30   H     H_    0.930855 0.159686 0.906860 0.200502
H31   H     H_    0.928515 0.837674 0.908789 0.198029
H32   H     H_    0.068866 0.160099 0.093579 0.200162
H33   H     H_    0.745759 0.159349 0.749960 0.178909
H34   H     H_    0.246528 0.841256 0.267067 0.204503
H35   H     H_    0.253102 0.160373 0.251248 0.196053
H36   H     H_    0.753409 0.838550 0.737029 0.183345
H37   H     H_    0.247844 0.660879 0.748507 0.174746
H38   H     H_    0.746246 0.340980 0.267003 0.206774
H39   H     H_    0.750496 0.656959 0.262353 0.203941
H40   H     H_    0.253297 0.340935 0.733010 0.185859
H41   H     H_    0.799217 0.137570 0.823308 0.194259
H42   H     H_    0.200188 0.871513 0.187426 0.195965
H43   H     H_    0.198089 0.140675 0.180352 0.219858
H44   H     H_    0.806420 0.858423 0.809349 0.190158
H45   H     H_    0.303070 0.641603 0.819190 0.215871
H46   H     H_    0.699962 0.371133 0.187160 0.191860
H47   H     H_    0.699434 0.632465 0.187327 0.223451
H48   H     H_    0.299818 0.370790 0.812267 0.192789
O1    O     O_R   0.746490 0.236330 0.638080 -0.644348
O2    O     O_R   0.253510 0.763670 0.361920 -0.638048
O3    O     O_R   0.253510 0.236330 0.361920 -0.622677
O4    O     O_R   0.746490 0.763670 0.638080 -0.633121
O5    O     O_R   0.246490 0.736330 0.638080 -0.630120
O6    O     O_R   0.753510 0.263670 0.361920 -0.670243
O7    O     O_R   0.753510 0.736330 0.361920 -0.662947
O8    O     O_R   0.246490 0.263670 0.638080 -0.641840
O9    O     O_R   0.674170 0.186160 0.516270 -0.648141
O10   O     O_R   0.325830 0.813840 0.483730 -0.640636
O11   O     O_R   0.325830 0.186160 0.483730 -0.644475
O12   O     O_R   0.674170 0.813840 0.516270 -0.644866
O13   O     O_R   0.174170 0.686160 0.516270 -0.649515
O14   O     O_R   0.825830 0.313840 0.483730 -0.648282
O15   O     O_R   0.825830 0.686160 0.483730 -0.651053
O16   O     O_R   0.174170 0.313840 0.516270 -0.636113
O17   O     O_R   0.739960 0.127620 0.525000 -0.573725
O18   O     O_R   0.260040 0.872380 0.475000 -0.569341
O19   O     O_R   0.260040 0.127620 0.475000 -0.567573
O20   O     O_R   0.739960 0.872380 0.525000 -0.575767
O21   O     O_R   0.239960 0.627620 0.525000 -0.582403
O22   O     O_R   0.760040 0.372380 0.475000 -0.577858
O23   O     O_R   0.760040 0.627620 0.475000 -0.575829
O24   O     O_R   0.239960 0.372380 0.525000 -0.581667
O25   O     O_R   0.680700 0.294870 0.629350 -0.616019
O26   O     O_R   0.319300 0.705130 0.370650 -0.613866
O27   O     O_R   0.319300 0.294870 0.370650 -0.614112
O28   O     O_R   0.680700 0.705130 0.629350 -0.612119
O29   O     O_R   0.180700 0.794870 0.629350 -0.621795
O30   O     O_R   0.819300 0.205130 0.370650 -0.606635
O31   O     O_R   0.819300 0.794870 0.370650 -0.621139
O32   O     O_R   0.180700 0.205130 0.629350 -0.623444
O33   O     O_R   0.062020 0.072840 0.007170 -0.636618
O34   O     O_R   0.937980 0.927160 0.992830 -0.620098
O35   O     O_R   0.937980 0.072840 0.992830 -0.622058
O36   O     O_R   0.062020 0.927160 0.007170 -0.626530
O37   O     O_R   0.562020 0.572840 0.007170 -0.637859
O38   O     O_R   0.437980 0.427160 0.992830 -0.622756
O39   O     O_R   0.437980 0.572840 0.992830 -0.635741
O40   O     O_R   0.562020 0.427160 0.007170 -0.621685
O41   O     O_R   0.947860 0.073950 0.109290 -0.607344
O42   O     O_R   0.052140 0.926050 0.890710 -0.622059
O43   O     O_R   0.052140 0.073950 0.890710 -0.622709
O44   O     O_R   0.947860 0.926050 0.109290 -0.601494
O45   O     O_R   0.447860 0.573950 0.109290 -0.616702
O46   O     O_R   0.552140 0.426050 0.890710 -0.612560
O47   O     O_R   0.552140 0.573950 0.890710 -0.621758
O48   O     O_R   0.447860 0.426050 0.109290 -0.608244
Zn1   Zn    Zn3+2 0.792340 0.208750 0.507670 1.016498
Zn2   Zn    Zn3+2 0.207660 0.791250 0.492330 1.000676
Zn3   Zn    Zn3+2 0.207660 0.208750 0.492330 1.028847
Zn4   Zn    Zn3+2 0.792340 0.791250 0.507670 1.006902
Zn5   Zn    Zn3+2 0.292340 0.708750 0.507670 1.011336
Zn6   Zn    Zn3+2 0.707660 0.291250 0.492330 0.975505
Zn7   Zn    Zn3+2 0.707660 0.708750 0.492330 0.995200
Zn8   Zn    Zn3+2 0.292340 0.291250 0.507670 0.988717
Zn9   Zn    Zn3+2 0.505960 0.500000 0.080520 0.989402
Zn10  Zn    Zn3+2 0.494040 0.500000 0.919480 0.987344
Zn11  Zn    Zn3+2 0.005960 0.000000 0.080520 1.003619
Zn12  Zn    Zn3+2 0.994040 0.000000 0.919480 0.991892
Br1   Br    Br    0.794495 0.496763 0.358594 -0.493589
Br2   Br    Br    0.262261 0.499588 0.417177 -0.456750
Br3   Br    Br    0.274460 0.000092 0.369935 -0.496055
Br4   Br    Br    0.790795 0.999852 0.422574 -0.478691
Br5   Br    Br    0.706397 0.483595 0.086353 -0.545417
Br6   Br    Br    0.404811 0.687232 0.768219 -0.520788
Br7   Br    Br    0.294458 0.483359 0.911599 -0.559026
Br8   Br    Br    0.603614 0.684337 0.224011 -0.595668
Br9   Br    Br    0.205273 0.984112 0.088007 -0.542802
Br10  Br    Br    0.901477 0.175610 0.771409 -0.604861
Br11  Br    Br    0.901735 0.801428 0.772965 -0.553755
Br12  Br    Br    0.096156 0.185756 0.231350 -0.504044

loop_
_geom_bond_atom_site_label_1
_geom_bond_atom_site_label_2
_ccdc_geom_bond_type
C154  H3    S    
O10   Zn5   S    
C5    O29   A    
C85   C182  S    
C35   C131  A    
O34   Zn12  S    
C9    C169  A    
C34   C42   A    
C171  C179  A    
C181  C187  A    
C90   O14   A    
C27   C99   A    
C119  H35   S    
C138  O38   A    
C92   C179  S    
C12   C174  A    
C186  Br2   S    
C42   C109  A    
C24   C96   A    
C149  H8    S    
C123  H39   S    
C8    O8    A    
O47   Zn10  S    
O44   Zn11  S    
C121  H37   S    
C30   C38   A    
C124  H40   S    
C101  H25   S    
O11   Zn8   S    
C67   H23   S    
C147  C155  A    
C143  C151  A    
C90   C177  S    
C128  H44   S    
C11   C167  A    
C82   C98   A    
C76   C84   A    
C73   C81   A    
C161  C163  A    
C162  C164  A    
O18   Zn2   S    
O7    Zn7   S    
C139  O45   A    
C84   C100  A    
C104  H28   S    
C57   C65   A    
C37   C114  A    
C27   C35   A    
C10   C171  A    
C21   C29   A    
C81   C121  A    
C114  Br10  S    
C23   C31   A    
C24   C32   A    
O39   Zn10  S    
C146  C154  A    
O42   Zn12  S    
O25   Zn6   S    
C19   H15   S    
C136  O36   A    
C17   H13   S    
C132  H48   S    
C107  H31   S    
C63   C71   A    
C105  H29   S    
C36   C44   A    
C90   O22   A    
C175  C183  A    
C176  C184  A    
O3    Zn3   S    
O4    Zn4   S    
C140  O46   A    
C87   O11   A    
C133  O43   A    
C148  C162  A    
C33   C41   A    
C183  C188  A    
O30   Zn1   S    
C108  C116  A    
C2    O26   A    
C21   C93   A    
C78   C94   A    
C9    C165  A    
C112  Br8   S    
C23   C95   A    
O33   Zn11  S    
O36   Zn11  S    
O5    Zn5   S    
C21   C42   A    
C22   C41   A    
C51   C107  A    
C24   C43   A    
C62   H18   S    
C161  C165  A    
C17   C175  A    
C18   C176  A    
O24   Zn8   S    
C29   C125  A    
C118  H34   S    
C69   C77   A    
C31   C127  A    
C45   C93   A    
C174  C182  A    
C71   C79   A    
O21   Zn5   S    
C179  C186  A    
C62   C70   A    
C11   C176  A    
C13   H9    S    
C17   C144  A    
C151  H6    S    
C105  C113  A    
C18   C143  A    
C78   C118  A    
C125  H41   S    
C36   C132  A    
C66   C74   A    
C48   C96   A    
C8    C76   S    
C49   C57   A    
C124  C132  A    
C52   C60   A    
C59   C67   A    
C53   C61   A    
C141  C159  A    
C20   C174  A    
C55   C63   A    
C6    O30   A    
C86   C181  S    
C56   C64   A    
C66   H22   S    
C35   C43   A    
C16   H12   S    
C10   C166  A    
C156  H1    S    
C45   C53   A    
C120  H36   S    
C85   O9    A    
C22   C94   A    
C139  O39   A    
C187  Br3   S    
C169  C177  A    
C92   O16   A    
C50   C98   A    
C28   C36   A    
C104  C112  A    
O37   Zn9   S    
C145  C163  A    
C1    O1    A    
C146  C164  A    
C14   C147  A    
C52   C100  A    
C16   C145  A    
C178  C186  A    
C136  O42   A    
C25   C38   A    
C88   O12   A    
C54   C139  S    
C46   C94   A    
C27   C40   A    
C4    O28   A    
C91   C180  S    
C182  C188  A    
C89   C178  S    
C7    O31   A    
C137  O47   A    
C25   C97   A    
O13   Zn2   S    
C67   C75   A    
C68   H24   S    
C22   C30   A    
C20   C141  A    
C115  Br11  S    
C15   C146  A    
C58   C135  S    
C86   O18   A    
C59   C134  S    
O26   Zn5   S    
C134  O44   A    
C32   C128  A    
C72   C80   A    
C56   C137  S    
O22   Zn6   S    
C82   C122  A    
C5    C73   S    
C150  H7    S    
C91   O23   A    
C188  Br4   S    
C13   C171  A    
C138  O48   A    
C6    O6    A    
C83   C99   A    
C117  C125  A    
C61   H17   S    
C119  C127  A    
O1    Zn1   S    
C157  C167  A    
C30   C126  A    
C158  C168  A    
C91   O15   A    
C89   O13   A    
C164  C165  A    
O6    Zn6   S    
C40   C115  A    
C101  C109  A    
C122  H38   S    
O19   Zn3   S    
C177  C185  A    
O20   Zn4   S    
C103  C111  A    
C162  C166  A    
C102  H26   S    
C79   C119  A    
C153  C155  A    
C154  C156  A    
C172  C180  A    
C87   O19   A    
C173  C181  A    
C157  C159  A    
C63   H19   S    
C158  C160  A    
C74   C82   A    
C6    C74   S    
C116  Br12  S    
C109  Br5   S    
C47   C103  A    
C50   C58   A    
C163  C166  A    
C20   H16   S    
C7    O7    A    
C147  C161  A    
C38   C113  A    
O46   Zn10  S    
C49   C105  A    
C54   C62   A    
C28   C39   A    
C130  H46   S    
C1    C69   S    
C23   C44   A    
O28   Zn7   S    
C3    C71   S    
C19   C173  A    
C79   C95   A    
C155  H2    S    
C14   H10   S    
C46   C54   A    
C4    O4    A    
C18   H14   S    
C45   C101  A    
C184  C187  A    
C106  H30   S    
C19   C142  A    
O32   Zn3   S    
C102  C110  A    
C134  O34   A    
O15   Zn4   S    
O16   Zn3   S    
C103  H27   S    
C4    C72   S    
C58   C66   A    
C33   C129  A    
O12   Zn7   S    
C123  C131  A    
C135  O41   A    
C121  C129  A    
C120  C128  A    
C26   C37   A    
O9    Zn6   S    
C10   C170  A    
C131  H47   S    
C142  C150  A    
C149  C151  A    
O38   Zn10  S    
O40   Zn9   S    
C75   C83   A    
C77   C93   A    
O14   Zn1   S    
C185  Br1   S    
C49   C97   A    
C108  H32   S    
C44   C111  A    
C16   C170  A    
C60   C68   A    
C144  C152  A    
C39   C116  A    
C29   C37   A    
C50   C106  A    
C9    C172  A    
C148  C156  A    
C83   C123  A    
C2    C70   S    
C60   C133  S    
C3    O3    A    
C170  C178  A    
C80   C120  A    
C70   C78   A    
C53   C140  S    
O27   Zn8   S    
C117  H33   S    
C8    O32   A    
C141  C149  A    
C88   O20   A    
C64   H20   S    
C55   C138  S    
C152  H5    S    
C106  C114  A    
C126  H42   S    
C77   C117  A    
O17   Zn1   S    
O43   Zn12  S    
C48   C104  A    
C65   C73   A    
C159  C168  A    
C15   C169  A    
C160  C167  A    
O8    Zn8   S    
O41   Zn11  S    
C113  Br9   S    
C57   C136  S    
C80   C96   A    
C65   H21   S    
O2    Zn2   S    
O45   Zn9   S    
C28   C100  A    
C32   C40   A    
C52   C108  A    
C86   O10   A    
C135  O35   A    
C92   O24   A    
C26   C34   A    
C143  C157  A    
C51   C99   A    
C11   C173  A    
C89   O21   A    
C14   C172  A    
C87   C184  S    
C2    O2    A    
C88   C183  S    
C7    C75   S    
C129  H45   S    
C15   H11   S    
C133  O33   A    
O23   Zn7   S    
C127  H43   S    
C68   C76   A    
C107  C115  A    
O29   Zn2   S    
C26   C98   A    
C12   C175  A    
C1    O25   A    
O31   Zn4   S    
C3    O27   A    
C41   C110  A    
C110  Br6   S    
C150  C152  A    
C51   C59   A    
C43   C112  A    
C144  C158  A    
C47   C55   A    
C61   C69   A    
C48   C56   A    
C142  C160  A    
C12   C168  A    
C84   C124  A    
C85   O17   A    
C140  O40   A    
C145  C153  A    
C81   C97   A    
O48   Zn9   S    
C111  Br7   S    
C137  O37   A    
C31   C39   A    
C64   C72   A    
O35   Zn12  S    
C180  C185  A    
C34   C130  A    
C25   C33   A    
C47   C95   A    
C118  C126  A    
C13   C148  A    
C5    O5    A    
C122  C130  A    
C46   C102  A    
C153  H4    S    
