data_mof_unit_22708.cif
_audit_creation_date              2012-12-10T20:46:50-0500
_audit_creation_method            fapswitch 2.2
_symmetry_space_group_name_H-M    P1
_symmetry_Int_Tables_number       1
_space_group_crystal_system       triclinic
_cell_length_a                    12.859782
_cell_length_b                    8.914896
_cell_length_c                    8.109484
_cell_angle_alpha                 90.015462
_cell_angle_beta                  98.163103
_cell_angle_gamma                 89.767484
_cell_volume                      920.27313027

loop_
_atom_site_label
_atom_site_type_symbol
_atom_type_description
_atom_site_fract_x
_atom_site_fract_y
_atom_site_fract_z
_atom_type_partial_charge
C1    C     C_R   0.500277 0.218025 0.500030 0.991093
C2    C     C_R   0.867970 0.380149 0.657483 -0.202253
C3    C     C_R   0.128187 0.406610 0.513850 -0.092485
C4    C     C_R   0.868150 0.595290 0.469159 -0.188388
C5    C     C_R   0.025700 0.442817 0.539911 0.114872
C6    C     C_R   0.973146 0.565655 0.449387 0.056224
C7    C     C_1   0.500961 0.065222 0.500167 -0.105599
C8    C     C_1   0.501364 0.934764 0.500351 -0.080218
C9    C     C_2   0.816779 0.742984 0.424317 0.920804
C10   C     C_2   0.169227 0.249885 0.536244 0.911915
C11   C     C_2   0.811098 0.284143 0.765268 0.972975
C12   C     C_R   0.501270 0.781951 0.500317 0.982691
C13   C     C_2   0.198187 0.743232 0.264266 0.990407
C14   C     C_2   0.974022 0.758801 0.216692 0.980704
C15   C     C_2   0.036391 0.264984 0.787654 0.947145
C16   C     C_R   0.297823 0.501474 0.466026 0.938667
C17   C     C_R   0.702279 0.499113 0.533751 0.884933
C18   C     C_R   0.814908 0.492468 0.556847 -0.119673
C19   C     C_R   0.185699 0.514082 0.441221 -0.196177
C20   C     C_R   0.027844 0.653806 0.343020 -0.120806
C21   C     C_R   0.975667 0.361069 0.656867 -0.187667
C22   C     C_R   0.136536 0.635955 0.351542 -0.104785
H1    H     H_    0.740064 0.670611 0.204204 0.339219
H2    H     H_    0.283833 0.109153 0.637947 0.354883
H3    H     H_    0.880691 0.379920 0.978079 0.336916
H4    H     H_    0.225717 0.832148 0.046028 0.365868
H5    H     H_    0.882319 0.783343 0.995059 0.383216
H6    H     H_    0.960827 0.074884 0.706840 0.357247
N1    N     N_1   0.500020 0.500000 0.073640 -0.004432
N2    N     N_1   0.499980 0.500000 0.926360 0.001593
O1    O     O_R   0.499990 0.285340 0.636850 -0.581562
O2    O     O_R   0.746509 0.762898 0.277728 -0.733373
O3    O     O_2   0.116282 0.146314 0.471339 -0.542063
O4    O     O_R   0.266141 0.220136 0.632283 -0.768871
O5    O     O_2   0.747579 0.192327 0.701457 -0.557484
O6    O     O_R   0.829318 0.297109 0.938763 -0.711661
O7    O     O_2   0.264687 0.821724 0.344740 -0.639757
O8    O     O_R   0.179184 0.754952 0.090685 -0.739535
O9    O     O_2   0.985324 0.894219 0.235131 -0.499040
O10   O     O_R   0.913722 0.701489 0.073813 -0.795249
O11   O     O_2   0.106662 0.320747 0.885268 -0.520270
O12   O     O_R   0.500010 0.714660 0.363150 -0.596245
O13   O     O_R   0.015061 0.112097 0.800617 -0.693322
O14   O     O_R   0.500010 0.285340 0.363150 -0.612721
O15   O     O_R   0.499990 0.714660 0.636850 -0.629498
O16   O     O_R   0.346350 0.500000 0.614250 -0.566074
O17   O     O_R   0.653650 0.500000 0.385750 -0.619437
O18   O     O_R   0.346360 0.500000 0.340500 -0.620748
O19   O     O_R   0.653640 0.500000 0.659500 -0.618808
O20   O     O_2   0.835961 0.848971 0.518863 -0.533961
Zn1   Zn    Zn3+2 0.499990 0.500000 0.682780 1.082636
Zn2   Zn    Zn3+2 0.500010 0.500000 0.317220 1.068155

loop_
_geom_bond_atom_site_label_1
_geom_bond_atom_site_label_2
_ccdc_geom_bond_type
N2    Zn1   S    
C3    C19   A    
N1    N2    T    
C2    C18   A    
C6    C20   A    
C1    O14   A    
C13   O7    D    
C1    O1    A    
H5    O10   S    
C8    C12   S    
C4    C18   A    
H1    O2    S    
O14   Zn2   S    
C2    C21   A    
C11   O5    D    
C17   C18   S    
C4    C9    S    
C15   O13   S    
C7    C8    T    
C10   O4    S    
C3    C10   S    
C16   O18   A    
C13   O8    S    
O17   Zn2   S    
C15   C21   S    
C16   C19   S    
C2    C11   S    
C11   O6    S    
C20   C22   A    
C13   C22   S    
C10   O3    D    
C5    C6    A    
H2    O4    S    
O15   Zn1   S    
H3    O6    S    
C14   O10   S    
C14   C20   S    
O18   Zn2   S    
C19   C22   A    
C5    C21   A    
C15   O11   D    
C4    C6    A    
C16   O16   A    
H4    O8    S    
C12   O12   A    
H6    O13   S    
C9    O2    S    
C3    C5    A    
C14   O9    D    
C1    C7    S    
O16   Zn1   S    
C17   O19   A    
C9    O20   D    
C17   O17   A    
O1    Zn1   S    
C12   O15   A    
O19   Zn1   S    
N1    Zn2   S    
O12   Zn2   S    
