data_mof_unit_46288.cif
_audit_creation_date              2013-03-05T15:48:44-0500
_audit_creation_method            fapswitch 2.2
_symmetry_space_group_name_H-M    P1
_symmetry_Int_Tables_number       1
_space_group_crystal_system       monoclinic
_cell_length_a                    22.299073
_cell_length_b                    6.941492
_cell_length_c                    19.440711
_cell_angle_alpha                 90.0
_cell_angle_beta                  99.236213
_cell_angle_gamma                 90.0
_cell_volume                      2970.19075145

loop_
_atom_site_label
_atom_site_type_symbol
_atom_site_description
_atom_site_fract_x
_atom_site_fract_y
_atom_site_fract_z
_atom_type_partial_charge
O1    O     O_R   0.448420 0.506120 0.415750 -0.594672
O2    O     O_R   0.551580 0.006120 0.584250 -0.594673
O3    O     O_R   0.436490 0.174470 0.555610 -0.581871
O4    O     O_R   0.563510 0.674470 0.444390 -0.581871
C1    C     C_R   0.421200 0.344654 0.575924 0.969274
C2    C     C_R   0.578800 0.844654 0.424076 0.969275
O5    O     O_R   0.441310 0.176330 0.414520 -0.583689
O6    O     O_R   0.558690 0.676330 0.585480 -0.583689
O7    O     O_R   0.556430 0.007110 0.442150 -0.596103
O8    O     O_R   0.443570 0.507110 0.557850 -0.596103
C3    C     C_R   0.426789 0.344648 0.388318 0.920112
C4    C     C_R   0.573211 0.844648 0.611682 0.920113
O9    O     O_3   0.537770 0.339560 0.509230 -0.264227
O10   O     O_3   0.462230 0.839560 0.490770 -0.264228
V1    V     V_3+5 0.492990 0.064280 0.498290 1.189958
V2    V     V_3+5 0.507010 0.564280 0.501710 1.189958
C5    C     C_R   0.863963 0.050966 0.701000 -0.052788
C6    C     C_R   0.136037 0.550966 0.299000 -0.052788
H1    H     H_    0.950527 0.078934 0.765965 0.124271
H2    H     H_    0.049473 0.578934 0.234035 0.124271
H3    H     H_    0.881269 0.118593 0.658098 0.179051
H4    H     H_    0.118731 0.618593 0.341902 0.179051
C7    C     C_R   0.884907 0.946925 0.821166 -0.108844
C8    C     C_R   0.115093 0.446925 0.178834 -0.108845
C9    C     C_R   0.592955 0.775289 0.737201 -0.163185
C10   C     C_R   0.407045 0.275289 0.262799 -0.163185
C11   C     C_R   0.631048 0.753757 0.800646 -0.100909
C12   C     C_R   0.368952 0.253756 0.199354 -0.100908
C13   C     C_R   0.692531 0.799321 0.807176 -0.163094
C14   C     C_R   0.307469 0.299321 0.192824 -0.163094
C15   C     C_R   0.717779 0.870636 0.749882 0.099540
C16   C     C_R   0.282220 0.370636 0.250118 0.099540
C17   C     C_R   0.677798 0.898129 0.685245 0.052484
C18   C     C_R   0.322202 0.398129 0.314755 0.052485
C19   C     C_R   0.781171 0.915830 0.754831 0.069443
C20   C     C_R   0.218829 0.415830 0.245169 0.069443
C21   C     C_R   0.802669 0.994096 0.695451 -0.027503
C22   C     C_R   0.197330 0.494096 0.304549 -0.027503
C23   C     C_R   0.762260 0.020883 0.632304 0.328649
C24   C     C_R   0.237740 0.520883 0.367696 0.328649
C25   C     C_R   0.701052 0.972573 0.627934 -0.305829
C26   C     C_R   0.298947 0.472574 0.372066 -0.305829
C27   C     C_R   0.823967 0.889800 0.817152 -0.205893
C28   C     C_R   0.176033 0.389800 0.182848 -0.205893
C29   C     C_R   0.904152 0.028778 0.762999 -0.162016
C30   C     C_R   0.095848 0.528778 0.237001 -0.162015
C31   C     C_R   0.615232 0.847311 0.679056 -0.141436
C32   C     C_R   0.384768 0.347311 0.320944 -0.141437
H5    H     H_    0.811213 0.831730 0.864103 0.095012
H6    H     H_    0.188787 0.331730 0.135896 0.095013
H7    H     H_    0.545686 0.733495 0.733188 0.101325
H8    H     H_    0.454314 0.233495 0.266812 0.101326
H9    H     H_    0.718922 0.777198 0.857967 0.104839
H10   H     H_    0.281077 0.277198 0.142033 0.104839
H11   H     H_    0.612891 0.698456 0.845152 0.109049
H12   H     H_    0.387109 0.198455 0.154848 0.109049
H13   H     H_    0.671637 0.993734 0.578507 0.159199
H14   H     H_    0.328363 0.493734 0.421493 0.159199
C33   C     C_3   0.810192 0.751599 0.262850 -0.476601
C34   C     C_3   0.189807 0.251599 0.737150 -0.476602
C35   C     C_3   0.787519 0.104629 0.247494 -0.347300
C36   C     C_3   0.212481 0.604629 0.752506 -0.347298
C37   C     C_3   0.735957 0.095683 0.293637 -0.299187
C38   C     C_3   0.264043 0.595683 0.706363 -0.299187
H15   H     H_    0.857267 0.777512 0.289823 0.217230
H16   H     H_    0.142733 0.277511 0.710177 0.217230
H17   H     H_    0.777836 0.225082 0.209522 0.131426
H18   H     H_    0.222164 0.725082 0.790478 0.131425
H19   H     H_    0.832708 0.134859 0.278940 0.214346
H20   H     H_    0.167292 0.634859 0.721060 0.214346
H21   H     H_    0.698292 0.189338 0.268082 0.098674
H22   H     H_    0.301708 0.689338 0.731918 0.098675
C39   C     C_1   0.624633 0.854980 0.378787 -0.231418
C40   C     C_1   0.375367 0.354980 0.621213 -0.231419
C41   C     C_3   0.791826 0.912181 0.207978 0.319644
C42   C     C_3   0.208174 0.412181 0.792022 0.319643
C43   C     C_3   0.763311 0.737641 0.314882 0.247530
C44   C     C_3   0.236689 0.237641 0.685118 0.247530
C45   C     C_3   0.710223 0.885203 0.294503 0.159413
C46   C     C_3   0.289777 0.385203 0.705497 0.159412
C47   C     C_3   0.681082 0.838038 0.218140 -0.449707
C48   C     C_3   0.318918 0.338039 0.781860 -0.449706
C49   C     C_3   0.727988 0.862595 0.167449 -0.391388
C50   C     C_3   0.272012 0.362595 0.832551 -0.391390
C51   C     C_1   0.662881 0.867084 0.340802 -0.063529
C52   C     C_1   0.337119 0.367084 0.659198 -0.063531
C53   C     C_1   0.837409 0.927659 0.159742 -0.050854
C54   C     C_1   0.162591 0.427659 0.840258 -0.050853
C55   C     C_1   0.875158 0.939230 0.121136 -0.282377
C56   C     C_1   0.124841 0.439230 0.878864 -0.282378
H23   H     H_    0.730157 0.727284 0.137239 0.156374
H24   H     H_    0.269843 0.227285 0.862761 0.156374
H25   H     H_    0.712596 0.979136 0.129378 0.160940
H26   H     H_    0.287404 0.479137 0.870622 0.160940
H27   H     H_    0.663535 0.687620 0.214845 0.158745
H28   H     H_    0.336465 0.187620 0.785155 0.158745
H29   H     H_    0.811624 0.610903 0.235641 0.145040
H30   H     H_    0.188376 0.110903 0.764359 0.145040
H31   H     H_    0.743499 0.589994 0.309136 0.054661
H32   H     H_    0.256501 0.089995 0.690864 0.054663
H33   H     H_    0.641454 0.934007 0.201293 0.173019
H34   H     H_    0.358546 0.434007 0.798707 0.173019
O11   O     O_R   0.056480 0.288780 0.942210 -0.590706
O12   O     O_R   0.943520 0.788780 0.057790 -0.590706
O13   O     O_R   0.058700 0.616820 0.085490 -0.592366
O14   O     O_R   0.941300 0.116820 0.914510 -0.592367
C57   C     C_R   0.073135 0.448905 0.111781 0.924298
C58   C     C_R   0.926865 0.948905 0.888219 0.924298
O15   O     O_R   0.063520 0.618570 0.944410 -0.590962
O16   O     O_R   0.936480 0.118570 0.055590 -0.590962
O17   O     O_R   0.948420 0.787670 0.915740 -0.587381
O18   O     O_R   0.051580 0.287670 0.084260 -0.587381
C59   C     C_R   0.079065 0.449717 0.924203 0.979903
C60   C     C_R   0.920935 0.949717 0.075797 0.979903
O19   O     O_3   0.962260 0.453430 0.990800 -0.272104
O20   O     O_3   0.037740 0.953430 0.009200 -0.272104
V3    V     V_3+5 0.007000 0.728750 0.001710 1.166494
V4    V     V_3+5 0.993000 0.228750 0.998290 1.166494
C61   C     C_2   0.753881 0.181349 0.365784 0.688967
H35   H     H_    0.720367 0.188121 0.400401 0.052917
O21   O     O_2   0.804360 0.248205 0.385547 -0.479297
C62   C     C_2   0.246119 0.681350 0.634216 0.688969
H36   H     H_    0.279632 0.688118 0.599599 0.052918
O22   O     O_2   0.195640 0.748210 0.614453 -0.479298
N1    N     N_R   0.782428 0.098711 0.571571 0.239371
O23   O     O_R   0.751834 0.236858 0.536879 -0.371882
O24   O     O_R   0.825231 0.012895 0.544947 -0.293848
N2    N     N_R   0.217571 0.598711 0.428428 0.239370
O25   O     O_R   0.248165 0.736859 0.463121 -0.371882
O26   O     O_R   0.174769 0.512896 0.455053 -0.293849
N3    N     N_R   0.791925 0.758751 0.388137 0.260015
O27   O     O_R   0.843782 0.846242 0.405449 -0.296738
O28   O     O_R   0.766136 0.681716 0.436971 -0.331509
N4    N     N_R   0.208075 0.258751 0.611863 0.260014
O29   O     O_R   0.156219 0.346247 0.594552 -0.296741
O30   O     O_R   0.233863 0.181711 0.563029 -0.331506

loop_
_geom_bond_atom_site_label_1
_geom_bond_atom_site_label_2
_geom_bond_distance
_ccdc_geom_bond_type
O18   V4    1.991509 S    
C23   N1    1.434785 S    
C11   C13   1.392820 A    
C38   C46   1.570774 S    
C57   O18   1.298991 A    
C18   C26   1.400993 A    
O2    C4    1.300309 A    
N2    O25   1.300841 A    
C33   C43   1.570007 S    
C2    O7    1.303927 A    
C12   H12   1.082746 S    
O15   V3    1.965955 S    
C23   C25   1.394748 A    
C37   C45   1.570774 S    
C35   C41   1.551655 S    
O5    C3    1.294790 A    
O13   C57   1.292529 A    
C34   C44   1.570007 S    
C13   H9    1.076280 S    
C38   C62   1.516784 S    
C7    C29   1.393394 A    
C16   C20   1.436030 A    
O11   C59   1.296461 A    
C5    C29   1.390275 A    
C50   H26   1.112865 S    
C34   H30   1.113589 S    
C47   H27   1.113269 S    
C44   C46   1.567481 S    
C17   C31   1.425321 A    
C49   H25   1.112866 S    
C7    C27   1.405675 A    
O20   V3    1.700421 S    
C36   H20   1.111484 S    
C43   N3    1.471417 S    
C56   C59   1.453610 S    
C1    C40   1.453872 S    
C35   C37   1.568966 S    
C36   C38   1.568965 S    
C26   H14   1.082963 S    
C55   C60   1.453610 S    
O19   V3    2.150537 S    
O1    C3    1.300311 A    
C46   C52   1.498504 S    
C15   C17   1.432009 A    
C19   C27   1.428322 A    
O16   C60   1.300769 A    
C10   C32   1.398113 A    
C24   C26   1.394748 A    
C34   H16   1.110189 S    
O6    V2    1.995680 S    
C22   C24   1.413676 A    
O14   V4    1.995694 S    
O13   V3    1.995695 S    
O16   V4    1.965956 S    
C3    C32   1.483226 S    
C4    C31   1.483226 S    
C6    C30   1.390273 A    
C47   C49   1.557290 S    
C43   C45   1.567482 S    
C42   C50   1.551023 S    
C48   H28   1.113269 S    
C46   C48   1.556808 S    
C45   C47   1.556808 S    
C27   H5    1.076954 S    
C47   H33   1.113110 S    
O5    V1    1.995679 S    
O3    C1    1.308045 A    
C34   C42   1.551766 S    
C5    H3    1.080848 S    
C16   C18   1.432011 A    
O4    V2    1.965918 S    
C9    H7    1.083917 S    
C10   H8    1.083917 S    
C14   H10   1.076280 S    
C35   H17   1.113334 S    
O6    C4    1.294789 A    
O19   V4    1.700421 S    
C48   H34   1.113111 S    
C8    C57   1.477594 S    
C5    C21   1.410054 A    
C40   C52   1.217362 T    
O2    V1    1.990407 S    
C44   N4    1.471415 S    
C39   C51   1.217362 T    
C61   O21   1.221167 D    
O12   C60   1.296461 A    
O4    C2    1.308045 A    
C54   C56   1.217010 T    
C48   C50   1.557291 S    
O9    V1    2.150705 S    
C44   H32   1.114541 S    
N1    O23   1.300840 A    
C33   H29   1.113589 S    
O10   V2    2.150705 S    
C20   C28   1.428322 A    
O11   V4    1.965051 S    
C18   C32   1.425321 A    
C62   O22   1.221165 D    
N3    O27   1.301669 A    
C33   C41   1.551764 S    
C45   C51   1.498504 S    
O3    V1    1.965917 S    
C2    C39   1.453872 S    
O12   V3    1.965052 S    
C35   H19   1.111484 S    
C42   C54   1.493356 S    
C9    C31   1.398113 A    
C36   C42   1.551656 S    
C19   C21   1.426629 A    
C6    H4    1.080848 S    
C37   H21   1.113967 S    
N3    O28   1.301239 A    
N2    O26   1.300888 A    
N4    O30   1.301241 A    
C61   H35   1.083991 S    
H1    C29   1.083877 S    
N4    O29   1.301667 A    
O15   C59   1.300769 A    
C9    C11   1.388835 A    
C49   H23   1.112915 S    
C10   C12   1.388833 A    
C58   O17   1.298991 A    
C36   H18   1.113335 S    
O17   V3    1.991508 S    
C17   C25   1.400994 A    
C53   C55   1.217008 T    
C6    C22   1.410054 A    
C25   H13   1.082960 S    
C1    O8    1.303928 A    
C13   C15   1.415631 A    
O8    V2    1.960996 S    
C33   H15   1.110192 S    
C20   C22   1.426629 A    
C14   C16   1.415630 A    
C41   C49   1.551024 S    
O14   C58   1.292528 A    
C8    C28   1.405676 A    
C7    C58   1.477594 S    
C15   C19   1.436030 A    
C12   C14   1.392820 A    
O20   V4    2.150537 S    
C43   H31   1.114541 S    
C11   H11   1.082745 S    
C38   H22   1.113967 S    
O7    V1    1.960999 S    
C28   H6    1.076954 S    
C21   C23   1.413677 A    
C37   C61   1.516785 S    
O9    V2    1.700862 S    
N1    O24   1.300889 A    
O10   V1    1.700862 S    
O1    V2    1.990406 S    
C50   H24   1.112914 S    
C62   H36   1.083989 S    
H2    C30   1.083879 S    
C41   C53   1.493357 S    
C8    C30   1.393393 A    
C24   N2    1.434785 S    
