data_mof_unit_28206.cif
_audit_creation_date              2012-12-10T18:05:40-0500
_audit_creation_method            fapswitch 2.2
_symmetry_space_group_name_H-M    P1
_symmetry_Int_Tables_number       1
_space_group_crystal_system       triclinic
_cell_length_a                    10.906695
_cell_length_b                    10.826863
_cell_length_c                    9.576715
_cell_angle_alpha                 89.986939
_cell_angle_beta                  91.448571
_cell_angle_gamma                 90.208032
_cell_volume                      1130.50032569

loop_
_atom_site_label
_atom_site_type_symbol
_atom_type_description
_atom_site_fract_x
_atom_site_fract_y
_atom_site_fract_z
_atom_type_partial_charge
C1    C     C_R   0.499976 0.262263 0.499970 0.791888
C2    C     C_R   0.500024 0.737737 0.500030 0.791888
C3    C     C_R   0.871852 0.495772 0.506140 -0.098420
C4    C     C_R   0.128148 0.504228 0.493860 -0.098419
C5    C     C_R   0.943040 0.525882 0.626610 0.011035
C6    C     C_R   0.056960 0.474118 0.373390 0.011035
C7    C     C_R   0.499655 0.063901 0.373105 -0.159335
C8    C     C_R   0.500345 0.936099 0.626895 -0.159335
C9    C     C_R   0.499608 0.936133 0.373115 -0.177454
C10   C     C_R   0.500391 0.063866 0.626885 -0.177454
C11   C     C_R   0.499989 0.871685 0.500008 -0.026720
C12   C     C_R   0.500011 0.128315 0.499992 -0.026720
C13   C     C_R   0.470015 0.396001 0.073204 0.071478
C14   C     C_R   0.529984 0.603999 0.926796 0.071476
C15   C     C_R   0.470908 0.395797 0.925155 0.001113
C16   C     C_R   0.529092 0.604203 0.074844 0.001113
C17   C     C_R   0.262240 0.501779 0.497814 0.800794
C18   C     C_R   0.737760 0.498221 0.502186 0.800794
C19   C     C_R   0.182738 0.548558 0.020906 0.412224
C20   C     C_R   0.817261 0.451442 0.979094 0.412224
C21   C     C_R   0.143762 0.561525 0.157689 -0.124597
C22   C     C_R   0.856236 0.438474 0.842311 -0.124596
C23   C     C_R   0.107594 0.457521 0.233725 0.063099
C24   C     C_R   0.892406 0.542478 0.766275 0.063098
C25   C     C_R   0.108261 0.340517 0.171083 -0.106098
C26   C     C_R   0.891741 0.659482 0.828918 -0.106099
C27   C     C_R   0.146672 0.327651 0.033897 -0.211751
C28   C     C_R   0.853332 0.672348 0.966105 -0.211750
C29   C     C_R   0.183696 0.431388 0.958889 -0.206608
C30   C     C_R   0.816305 0.568612 0.041112 -0.206609
C31   C     C_R   0.930529 0.467537 0.382479 -0.219717
C32   C     C_R   0.069471 0.532462 0.617521 -0.219717
Cu1   Cu    Cu3+1 0.500000 0.500020 0.640660 0.974075
Cu2   Cu    Cu3+1 0.500000 0.499980 0.359340 0.974075
H1    H     H_    0.214994 0.419521 0.853736 0.168100
H2    H     H_    0.785007 0.580479 0.146264 0.168100
H3    H     H_    0.140953 0.652447 0.204731 0.151301
H4    H     H_    0.859043 0.347553 0.795268 0.151302
H5    H     H_    0.077999 0.259969 0.227951 0.155253
H6    H     H_    0.922005 0.740030 0.772051 0.155255
H7    H     H_    0.147637 0.237334 0.985570 0.162593
H8    H     H_    0.852369 0.762665 0.014432 0.162594
H9    H     H_    0.877567 0.440987 0.291025 0.211177
H10   H     H_    0.122432 0.559012 0.708975 0.211176
H11   H     H_    0.499425 0.111884 0.273861 0.159148
H12   H     H_    0.500575 0.888116 0.726139 0.159148
H13   H     H_    0.499242 0.888176 0.273878 0.152627
H14   H     H_    0.500758 0.111824 0.726122 0.152627
H15   H     H_    0.444340 0.312449 0.126855 0.120824
H16   H     H_    0.555660 0.687551 0.873145 0.120824
N1    N     N_R   0.500030 0.500030 0.852070 -0.162604
N2    N     N_R   0.499970 0.499970 0.147930 -0.162603
O1    O     O_R   0.499990 0.319660 0.618740 -0.599963
O2    O     O_R   0.500010 0.680340 0.381260 -0.599962
O3    O     O_R   0.499990 0.319630 0.381170 -0.582352
O4    O     O_R   0.500010 0.680370 0.618830 -0.582352
O5    O     O_R   0.319650 0.500020 0.618780 -0.571410
O6    O     O_R   0.680350 0.499980 0.381220 -0.571409
O7    O     O_R   0.319640 0.500000 0.381210 -0.577722
O8    O     O_R   0.680360 0.500000 0.618790 -0.577722
H17   H     H_    0.445753 0.312094 0.870076 0.115377
H18   H     H_    0.554247 0.687906 0.129924 0.115377
Cl1   Cl    Cl    0.230185 0.679932 0.929238 -0.697357
Cl2   Cl    Cl    0.769813 0.320068 0.070762 -0.697357

loop_
_geom_bond_atom_site_label_1
_geom_bond_atom_site_label_2
_ccdc_geom_bond_type
C17   O5    A    
C20   Cl2   S    
Cu1   O5    S    
C9    H13   S    
C15   N1    A    
Cu1   N1    S    
C13   N2    A    
C29   H1    S    
Cu2   N2    S    
C14   N1    A    
C30   H2    S    
C5    C32   A    
C1    O1    A    
Cu1   O4    S    
C23   C25   A    
C6    C31   A    
C15   H17   S    
Cu2   O3    S    
C19   Cl1   S    
C20   C30   A    
C25   H5    S    
C3    C31   A    
C9    C11   A    
C24   C26   A    
C26   H6    S    
C14   H16   S    
C1    C12   S    
C16   H18   S    
C17   O7    A    
C8    C11   A    
C13   H15   S    
C2    C11   S    
C7    H11   S    
C28   H8    S    
C19   C21   A    
Cu1   Cu2   S    
Cu2   O2    S    
Cu1   O8    S    
C14   C16   A    
C13   C15   A    
C21   C23   A    
C10   H14   S    
Cu2   O7    S    
C10   C12   A    
C22   C24   A    
C1    O3    A    
C27   C29   A    
C4    C17   S    
C4    C32   A    
C19   C29   A    
C7    C9    A    
C21   H3    S    
Cu1   O1    S    
C32   H10   S    
C3    C18   S    
C4    C6    A    
C2    O2    A    
C18   O8    A    
Cu2   O6    S    
C27   H7    S    
C5    C24   S    
C2    O4    A    
C8    H12   S    
C7    C12   A    
C6    C23   S    
C26   C28   A    
C18   O6    A    
C8    C10   A    
C31   H9    S    
C16   N2    A    
C20   C22   A    
C28   C30   A    
C3    C5    A    
C25   C27   A    
C22   H4    S    
