data_mof_unit_28489.cif
_audit_creation_date              2013-03-05T15:45:15-0500
_audit_creation_method            fapswitch 2.2
_symmetry_space_group_name_H-M    P1
_symmetry_Int_Tables_number       1
_space_group_crystal_system       triclinic
_cell_length_a                    16.914175
_cell_length_b                    7.083067
_cell_length_c                    16.863553
_cell_angle_alpha                 90.001435
_cell_angle_beta                  100.189889
_cell_angle_gamma                 89.99896
_cell_volume                      1988.45815718

loop_
_atom_site_label
_atom_site_type_symbol
_atom_site_description
_atom_site_fract_x
_atom_site_fract_y
_atom_site_fract_z
_atom_type_partial_charge
O1    O     O_R   0.579510 0.506290 0.439030 -0.578198
O2    O     O_R   0.420490 0.006290 0.560970 -0.578243
O3    O     O_R   0.412540 0.170090 0.405290 -0.522564
O4    O     O_R   0.587460 0.670090 0.594710 -0.522477
C1    C     C_R   0.386126 0.343674 0.380993 1.031942
C2    C     C_R   0.613876 0.843672 0.619004 1.031620
O5    O     O_R   0.578390 0.176230 0.429330 -0.589855
O6    O     O_R   0.421610 0.676230 0.570670 -0.589772
O7    O     O_R   0.587530 0.011250 0.585190 -0.586551
O8    O     O_R   0.412470 0.511250 0.414810 -0.586465
C3    C     C_R   0.605047 0.344083 0.413930 1.091195
C4    C     C_R   0.394957 0.844089 0.586075 1.091144
O9    O     O_3   0.502800 0.340940 0.551110 -0.265532
O10   O     O_3   0.497200 0.840940 0.448890 -0.265522
V1    V     V_3+5 0.499480 0.064020 0.490520 1.343924
V2    V     V_3+5 0.500520 0.564020 0.509480 1.344009
C5    C     C_R   0.168149 0.922352 0.862666 -0.182970
C6    C     C_R   0.831855 0.422369 0.137343 -0.183024
C7    C     C_R   0.330254 0.843553 0.636122 -0.286521
C8    C     C_R   0.669747 0.343534 0.363881 -0.286596
C9    C     C_R   0.217330 0.678678 0.680037 0.199519
C10   C     C_R   0.782647 0.178606 0.319936 0.199534
C11   C     C_R   0.270523 0.700710 0.624767 0.254667
C12   C     C_R   0.729462 0.200645 0.375213 0.254612
C13   C     C_R   0.332469 0.970660 0.700330 -0.143480
C14   C     C_R   0.667549 0.470688 0.299694 -0.143356
C15   C     C_R   0.278494 0.952437 0.754759 0.152553
C16   C     C_R   0.721519 0.452460 0.245260 0.152533
C17   C     C_R   0.221436 0.803815 0.745853 -0.021538
C18   C     C_R   0.778551 0.303780 0.254135 -0.021565
C19   C     C_R   0.167404 0.789086 0.800964 -0.088775
C20   C     C_R   0.832572 0.289037 0.199014 -0.088855
C21   C     C_R   0.225415 0.068208 0.870653 -0.034792
C22   C     C_R   0.774619 0.568292 0.129393 -0.034458
C23   C     C_R   0.280512 0.081767 0.818072 -0.038722
C24   C     C_R   0.719522 0.581847 0.181974 -0.038776
C25   C     C_3   0.752511 0.754494 0.834165 0.036548
C26   C     C_3   0.247430 0.254186 0.165890 0.036483
C27   C     C_3   0.670540 0.742756 0.770670 0.469265
C28   C     C_3   0.329451 0.242638 0.229331 0.469414
C29   C     C_3   0.845631 0.845401 0.723859 0.413185
C30   C     C_3   0.154385 0.345722 0.276161 0.413338
C31   C     C_3   0.767685 0.082733 0.791480 -0.375601
C32   C     C_3   0.232424 0.582628 0.208412 -0.376222
C33   C     C_3   0.816648 0.897267 0.808206 -0.389037
C34   C     C_3   0.183364 0.397260 0.191790 -0.388856
C35   C     C_3   0.685432 0.850373 0.690764 -0.446135
C36   C     C_3   0.314587 0.350386 0.309222 -0.445942
C37   C     C_3   0.765611 0.791472 0.661196 0.022663
C38   C     C_3   0.234392 0.291620 0.338806 0.022251
C39   C     C_3   0.699761 0.060771 0.717422 -0.328642
C40   C     C_3   0.300292 0.560755 0.282521 -0.328740
H1    H     H_    0.765031 0.880595 0.607348 0.186183
H2    H     H_    0.234999 0.380724 0.392668 0.186204
O11   O     O_R   0.087500 0.266000 0.085220 -0.546349
O12   O     O_R   0.912500 0.766000 0.914780 -0.546206
O13   O     O_R   0.921600 0.589950 0.070670 -0.591685
O14   O     O_R   0.078400 0.089950 0.929330 -0.591708
C41   C     C_R   0.894777 0.422800 0.085818 1.043488
C42   C     C_R   0.105225 0.922796 0.914186 1.043030
O15   O     O_R   0.087460 0.596020 0.094710 -0.557146
O16   O     O_R   0.912540 0.096020 0.905290 -0.557254
O17   O     O_R   0.079520 0.760970 0.939020 -0.588799
O18   O     O_R   0.920480 0.260970 0.060980 -0.588821
C43   C     C_R   0.114004 0.424529 0.119537 1.031569
C44   C     C_R   0.886004 0.924528 0.880458 1.031549
O19   O     O_3   0.997180 0.425140 0.948910 -0.238077
O20   O     O_3   0.002820 0.925140 0.051090 -0.238084
V3    V     V_3+5 0.000520 0.702080 0.009480 1.348253
V4    V     V_3+5 0.999480 0.202080 0.990520 1.348161
H3    H     H_    0.122251 0.679590 0.794286 0.206795
H4    H     H_    0.877695 0.179473 0.205659 0.206853
N1    N     N_R   0.645220 0.542707 0.761245 0.245280
O21   O     O_R   0.616850 0.461187 0.819529 -0.308681
O22   O     O_R   0.643521 0.447760 0.695536 -0.378376
N2    N     N_R   0.354835 0.042663 0.238832 0.245170
O23   O     O_R   0.383345 0.961160 0.180631 -0.308864
O24   O     O_R   0.356360 0.947707 0.304511 -0.378565
N3    N     N_R   0.907305 0.695192 0.728220 0.284678
O25   O     O_R   0.966683 0.690589 0.788567 -0.373584
O26   O     O_R   0.922983 0.628586 0.660647 -0.205774
N4    N     N_R   0.092622 0.195746 0.271853 0.284717
O27   O     O_R   0.033208 0.191329 0.211537 -0.373907
O28   O     O_R   0.076959 0.129220 0.339446 -0.205727
N5    N     N_R   0.763183 0.597596 0.629523 0.296541
O29   O     O_R   0.745697 0.570311 0.552082 -0.289162
O30   O     O_R   0.788600 0.454947 0.675323 -0.294886
N6    N     N_R   0.236754 0.097724 0.370459 0.296580
O31   O     O_R   0.254287 0.070389 0.447895 -0.289089
O32   O     O_R   0.211257 0.955127 0.324659 -0.294485
H5    H     H_    0.806898 0.197837 0.779273 0.299042
H6    H     H_    0.193276 0.697979 0.220500 0.299131
H7    H     H_    0.742242 0.126933 0.845070 0.244372
H8    H     H_    0.257945 0.626425 0.154817 0.244200
H9    H     H_    0.643736 0.122172 0.731928 0.268312
H10   H     H_    0.356338 0.622116 0.268048 0.268224
H11   H     H_    0.715376 0.144390 0.666727 0.276972
H12   H     H_    0.284622 0.644440 0.333180 0.277018
N7    N     N_R   0.884068 0.013811 0.694198 0.232451
O33   O     O_R   0.937578 0.107219 0.744079 -0.326450
O34   O     O_R   0.887742 0.028685 0.617961 -0.225554
N8    N     N_R   0.116067 0.514348 0.305796 0.232524
O35   O     O_R   0.062634 0.607924 0.255897 -0.326074
O36   O     O_R   0.112373 0.529309 0.382026 -0.225519
H13   H     H_    0.227138 0.173445 0.917556 0.142444
H14   H     H_    0.772919 0.673592 0.082520 0.142572
N9    N     N_R   0.157082 0.533794 0.666810 0.269659
O37   O     O_R   0.158623 0.396063 0.718095 -0.364721
O38   O     O_R   0.104139 0.531950 0.600668 -0.187813
N10   N     N_R   0.842887 0.033698 0.333149 0.269671
O39   O     O_R   0.895829 0.031811 0.399291 -0.187777
O40   O     O_R   0.841336 0.895981 0.281852 -0.364880
H15   H     H_    0.323631 0.196385 0.825886 0.138960
H16   H     H_    0.676426 0.696515 0.174185 0.138903
N11   N     N_R   0.262503 0.580061 0.555536 0.258077
O41   O     O_R   0.260274 0.653318 0.484498 -0.353504
O42   O     O_R   0.258931 0.397642 0.563263 -0.331542
N12   N     N_R   0.737476 0.079959 0.444430 0.258087
O43   O     O_R   0.739768 0.153188 0.515483 -0.353495
O44   O     O_R   0.741015 0.897540 0.436679 -0.331575
H17   H     H_    0.377738 0.080716 0.709231 0.170866
H18   H     H_    0.622299 0.580789 0.290815 0.170913
N13   N     N_R   0.784225 0.566347 0.860035 0.254316
O45   O     O_R   0.842871 0.490852 0.831215 -0.324290
O46   O     O_R   0.762795 0.488116 0.922802 -0.411402
N14   N     N_R   0.215678 0.065948 0.140207 0.254176
O47   O     O_R   0.156827 0.991015 0.168878 -0.323870
O48   O     O_R   0.237246 0.987158 0.077619 -0.411268
H19   H     H_    0.739387 0.817019 0.890735 0.127159
H20   H     H_    0.260476 0.316411 0.109238 0.127085
N15   N     N_R   0.603546 0.841010 0.800166 0.228056
O49   O     O_R   0.531344 0.830326 0.758032 -0.428829
O50   O     O_R   0.613142 0.933009 0.868045 -0.363174
N16   N     N_R   0.396388 0.340867 0.199730 0.228199
O51   O     O_R   0.468534 0.331333 0.242061 -0.429339
O52   O     O_R   0.386871 0.431096 0.131421 -0.362749

loop_
_geom_bond_atom_site_label_1
_geom_bond_atom_site_label_2
_geom_bond_distance
_ccdc_geom_bond_type
C39   H11   1.109652 S    
C18   C20   1.417854 A    
N14   O47   1.294855 A    
C15   C17   1.418052 A    
N11   O42   1.301117 A    
N1    O21   1.302544 A    
O1    C3    1.323025 A    
C24   H16   1.083695 S    
C2    O7    1.357473 A    
N13   O45   1.294848 A    
C35   C37   1.581480 S    
N5    O29   1.301390 A    
O5    C3    1.313668 A    
C41   O18   1.320123 A    
C38   H2    1.104594 S    
C8    C14   1.403553 A    
C42   O17   1.320118 A    
C26   H20   1.109173 S    
N2    O24   1.292164 A    
C36   C38   1.581614 S    
O17   V3    1.983212 S    
O12   C44   1.305718 A    
O13   C41   1.309135 A    
O14   C42   1.309129 A    
N11   O41   1.299936 A    
C32   H8    1.112412 S    
O16   V4    2.011148 S    
C30   C34   1.626225 S    
N12   O43   1.299929 A    
O11   C43   1.305719 A    
C25   N13   1.473516 S    
C8    C12   1.418690 A    
O20   V3    1.726387 S    
C10   N10   1.435604 S    
C30   N4    1.482653 S    
N9    O37   1.300934 A    
C29   N7    1.486909 S    
C40   H10   1.108599 S    
O18   V4    1.983186 S    
C32   H6    1.093301 S    
C38   N6    1.471447 S    
C32   C40   1.547903 S    
C19   H3    1.080301 S    
O2    C4    1.323025 A    
O6    V2    1.991258 S    
N9    O38   1.301065 A    
C5    C21   1.406247 A    
C30   N8    1.486924 S    
C29   C37   1.608859 S    
C26   N14   1.473570 S    
C32   C34   1.552020 S    
N12   O44   1.301120 A    
N5    O30   1.297982 A    
C1    C36   1.553429 S    
C3    C8    1.495590 S    
C2    C35   1.553471 S    
O16   C44   1.336322 A    
C22   H14   1.083464 S    
C37   N5    1.471376 S    
C21   H13   1.083467 S    
N2    O23   1.302513 A    
C34   C43   1.546762 S    
O4    C2    1.346982 A    
N10   O39   1.301065 A    
N3    O26   1.303186 A    
O14   V4    1.991161 S    
N16   O52   1.302203 A    
O5    V1    1.991298 S    
C15   C23   1.402608 A    
C9    C17   1.412450 A    
C31   H5    1.093311 S    
C28   N2    1.480524 S    
O19   V3    2.207669 S    
O4    V2    2.011173 S    
C7    C11   1.418677 A    
C6    C22   1.406258 A    
N7    O33   1.301959 A    
O6    C4    1.313674 A    
O1    V2    1.981223 S    
N8    O36   1.302329 A    
O2    V1    1.981242 S    
C31   C33   1.551921 S    
C9    N9    1.435601 S    
C30   C38   1.608833 S    
O20   V4    2.207713 S    
N7    O34   1.302319 A    
N6    O32   1.297991 A    
O12   V3    2.032383 S    
N4    O28   1.303225 A    
C9    C11   1.413950 A    
C5    C19   1.403270 A    
C10   C12   1.413940 A    
C6    C20   1.403278 A    
N1    O22   1.292155 A    
C25   C33   1.599757 S    
N15   O49   1.301915 A    
O3    C1    1.346998 A    
O3    V1    2.011180 S    
C27   C35   1.606362 S    
O15   V3    2.011153 S    
C28   C36   1.606397 S    
N14   O48   1.301819 A    
C10   C18   1.412460 A    
C12   N12   1.433739 S    
N15   O50   1.302116 A    
C29   N3    1.482689 S    
C35   C39   1.563055 S    
N16   O51   1.301937 A    
C13   C15   1.410359 A    
C14   C16   1.410353 A    
C31   H7    1.112423 S    
O19   V4    1.726418 S    
C16   C18   1.418059 A    
O7    V1    2.016231 S    
C1    O8    1.357455 A    
C25   C27   1.597026 S    
C28   N16   1.488321 S    
O8    V2    2.016226 S    
C26   C28   1.597118 S    
C31   C39   1.547958 S    
C27   N15   1.488341 S    
C37   H1    1.104554 S    
C4    C7    1.495598 S    
C40   H12   1.109730 S    
C21   C23   1.398689 A    
C25   H19   1.109211 S    
C23   H15   1.083693 S    
C22   C24   1.398677 A    
C27   N1    1.480664 S    
N8    O35   1.301966 A    
C7    C13   1.403553 A    
N10   O40   1.300932 A    
C26   C34   1.599800 S    
O11   V4    2.032378 S    
N13   O46   1.301756 A    
C5    C42   1.488202 S    
C11   N11   1.433732 S    
N3    O25   1.297600 A    
O15   C43   1.336347 A    
C6    C41   1.488230 S    
C36   C40   1.563001 S    
N6    O31   1.301405 A    
C16   C24   1.402602 A    
C17   C19   1.417859 A    
N4    O27   1.297615 A    
O9    V2    1.726701 S    
C33   C44   1.546713 S    
C29   C33   1.626394 S    
O10   V1    1.726670 S    
C14   H18   1.084356 S    
O13   V3    1.991200 S    
C13   H17   1.084357 S    
C39   H9    1.108577 S    
C20   H4    1.080290 S    
