data_mof_unit_30405.cif
_audit_creation_date              2012-12-10T18:47:40-0500
_audit_creation_method            fapswitch 2.2
_symmetry_space_group_name_H-M    P1
_symmetry_Int_Tables_number       1
_space_group_crystal_system       triclinic
_cell_length_a                    10.003062
_cell_length_b                    10.778176
_cell_length_c                    15.311518
_cell_angle_alpha                 92.55342
_cell_angle_beta                  69.409523
_cell_angle_gamma                 91.511411
_cell_volume                      1543.71523062

loop_
_atom_site_label
_atom_site_type_symbol
_atom_type_description
_atom_site_fract_x
_atom_site_fract_y
_atom_site_fract_z
_atom_type_partial_charge
C1    C     C_R   0.504756 0.740253 0.494570 0.962668
C2    C     C_R   0.492503 0.261631 0.510254 0.964753
C3    C     C_R   0.301343 0.545316 0.119933 0.047629
C4    C     C_R   0.572541 0.703946 0.936738 0.009527
C5    C     C_R   0.203213 0.503848 0.077135 0.417028
C6    C     C_R   0.684204 0.720417 0.972707 0.464514
C7    C     C_R   0.619826 0.945556 0.507122 0.051811
C8    C     C_R   0.366284 0.060003 0.515325 0.036243
C9    C     C_R   0.598698 0.070207 0.533356 0.402372
C10   C     C_R   0.385078 0.934822 0.489971 0.407330
C11   C     C_R   0.481650 0.129487 0.524357 -0.240217
C12   C     C_R   0.507521 0.875115 0.492714 -0.243919
C13   C     C_R   0.957186 0.419453 0.441938 0.195878
C14   C     C_R   0.042360 0.578363 0.559410 0.218141
C15   C     C_R   0.100300 0.419103 0.442113 0.176493
C16   C     C_R   0.899749 0.578086 0.559149 0.168341
C17   C     C_R   0.409221 0.497479 0.676553 0.900995
C18   C     C_R   0.589580 0.507529 0.323823 0.910202
C19   C     C_R   0.347769 0.499152 0.780212 -0.198428
C20   C     C_R   0.640793 0.541242 0.223836 -0.145318
C21   C     C_R   0.157968 0.456200 0.928960 0.455273
C22   C     C_R   0.784933 0.668152 0.093041 0.432725
C23   C     C_R   0.210172 0.450773 0.830770 0.150706
C24   C     C_R   0.759661 0.620227 0.182346 0.062793
C25   C     C_R   0.426995 0.555457 0.829921 -0.191996
C26   C     C_R   0.549306 0.514531 0.175010 -0.180712
C27   C     C_R   0.376040 0.564436 0.927423 0.011177
C28   C     C_R   0.555077 0.583166 0.098262 -0.027260
C29   C     C_R   0.243604 0.507895 0.978594 -0.077433
C30   C     C_R   0.677561 0.655971 0.053031 -0.009562
C31   C     C_R   0.465105 0.614177 0.974216 -0.015615
C32   C     C_R   0.441549 0.576666 0.064254 -0.009091
H1    H     H_    0.463898 0.447692 0.202403 0.204942
H2    H     H_    0.533022 0.587722 0.792522 0.208946
N1    N     N_R   0.142780 0.500030 0.500020 -0.141928
N2    N     N_R   0.857220 0.499970 0.499980 -0.141320
O1    O     O_R   0.385370 0.683250 0.500010 -0.532691
O2    O     O_R   0.614630 0.316750 0.499990 -0.538682
O3    O     O_R   0.614700 0.683220 0.500000 -0.589110
O4    O     O_R   0.385300 0.316780 0.500000 -0.594267
O5    O     O_R   0.319830 0.500020 0.632250 -0.590889
O6    O     O_R   0.680170 0.499980 0.367750 -0.580082
O7    O     O_R   0.549160 0.499990 0.632240 -0.594876
O8    O     O_R   0.450840 0.500010 0.367760 -0.588905
Zn1   Zn    Zn3+2 0.346870 0.500020 0.500000 1.064015
Zn2   Zn    Zn3+2 0.653130 0.499980 0.500000 1.063894
O9    O     O_3   0.072006 0.455298 0.129450 -0.725433
H3    H     H_    0.070789 0.441620 0.193047 0.374991
O10   O     O_3   0.795152 0.802918 0.933695 -0.637004
H4    H     H_    0.799695 0.820337 0.869746 0.367965
I1    I     I_    0.881543 0.697075 0.258595 -0.197285
I2    I     I_    0.071880 0.363703 0.766908 -0.153461
O11   O     O_3   0.024872 0.405984 0.974143 -0.661648
H5    H     H_    0.967112 0.473436 0.014781 0.361431
O12   O     O_3   0.908599 0.733646 0.047187 -0.655820
H6    H     H_    0.986810 0.703270 0.065797 0.350002
I3    I     I_    0.227236 0.618534 0.261041 -0.259629
I4    I     I_    0.520020 0.855205 0.869145 -0.218671
I5    I     I_    0.839000 0.892363 0.459651 -0.152005
I6    I     I_    0.150731 0.124635 0.567862 -0.174117
O13   O     O_3   0.693468 0.137201 0.565169 -0.694449
H7    H     H_    0.736893 0.080398 0.596566 0.372805
O14   O     O_3   0.285689 0.869395 0.461533 -0.682969
H8    H     H_    0.234547 0.927510 0.436290 0.376548
I7    I     I_    0.899742 0.291771 0.349751 -0.128685
I8    I     I_    0.097719 0.700710 0.656012 -0.140463
I9    I     I_    0.249774 0.292718 0.347401 -0.227252
I10   I     I_    0.752786 0.699887 0.654318 -0.250946

loop_
_geom_bond_atom_site_label_1
_geom_bond_atom_site_label_2
_ccdc_geom_bond_type
C19   C23   A    
O12   H6    S    
C17   O7    A    
C2    O4    A    
N2    Zn2   S    
C22   O12   S    
C16   I10   S    
C14   C16   A    
C18   O8    A    
C25   C27   A    
C5    O9    S    
C2    O2    A    
C26   H1    S    
C18   C20   S    
C10   O14   S    
C1    O1    A    
C25   H2    S    
C15   I9    S    
O13   H7    S    
C24   I1    S    
C13   C15   A    
C14   I8    S    
C28   C30   A    
C13   I7    S    
O11   H5    S    
C8    I6    S    
C20   C24   A    
C21   O11   S    
C9    C11   A    
C23   I2    S    
O4    Zn1   S    
C1    C12   S    
C20   C26   A    
C8    C11   A    
C9    O13   S    
C2    C11   S    
C10   C12   A    
C7    I5    S    
C26   C28   A    
C17   C19   S    
O3    Zn2   S    
C5    C29   A    
C18   O6    A    
C6    O10   S    
C3    C32   A    
C19   C25   A    
O7    Zn2   S    
C22   C24   A    
C7    C12   A    
O2    Zn2   S    
C4    C31   A    
C27   C29   A    
C1    O3    A    
O1    Zn1   S    
O14   H8    S    
N1    Zn1   S    
C3    I3    S    
C28   C32   A    
O8    Zn1   S    
C27   C31   A    
C13   N2    A    
C8    C10   A    
O10   H4    S    
O6    Zn2   S    
C15   N1    A    
C14   N1    A    
C7    C9    A    
O5    Zn1   S    
C22   C30   A    
C17   O5    A    
C4    I4    S    
C4    C6    A    
C21   C29   A    
C21   C23   A    
C6    C30   A    
C31   C32   A    
C16   N2    A    
O9    H3    S    
C3    C5    A    
