data_mof_unit_38139.cif
_audit_creation_date              2012-12-10T18:21:20-0500
_audit_creation_method            fapswitch 2.2
_symmetry_space_group_name_H-M    P1
_symmetry_Int_Tables_number       1
_space_group_crystal_system       triclinic
_cell_length_a                    9.448607
_cell_length_b                    10.712522
_cell_length_c                    17.211054
_cell_angle_alpha                 88.411887
_cell_angle_beta                  85.437542
_cell_angle_gamma                 89.20821
_cell_volume                      1735.77030636

loop_
_atom_site_label
_atom_site_type_symbol
_atom_type_description
_atom_site_fract_x
_atom_site_fract_y
_atom_site_fract_z
_atom_type_partial_charge
C1    C     C_R   0.500029 0.740405 0.496143 0.796630
C2    C     C_R   0.499986 0.259590 0.503657 0.796316
C3    C     C_3   0.429104 0.969265 0.438946 0.162519
C4    C     C_3   0.570862 0.030780 0.560552 0.163086
C5    C     C_3   0.563483 0.051056 0.433803 -0.246332
C6    C     C_3   0.436501 0.949012 0.565706 -0.246339
C7    C     C_3   0.499752 0.122697 0.505015 -0.115452
C8    C     C_3   0.500232 0.877326 0.494511 -0.115824
C9    C     C_3   0.366078 0.041474 0.509686 0.218149
C10   C     C_3   0.633908 0.958574 0.489828 0.218066
C11   C     C_3   0.956609 0.396008 0.476381 0.296969
C12   C     C_3   0.043362 0.603979 0.523642 0.297152
C13   C     C_3   0.046113 0.411770 0.545613 -0.080147
C14   C     C_3   0.953883 0.588200 0.454387 -0.079183
C15   C     C_3   0.061084 0.483222 0.430493 -0.083129
C16   C     C_3   0.938879 0.516729 0.569534 -0.083964
C17   C     C_R   0.481022 0.496359 0.650493 0.823796
C18   C     C_R   0.519036 0.503526 0.349501 0.823593
C19   C     C_R   0.469630 0.485106 0.737037 -0.143448
C20   C     C_R   0.531049 0.516302 0.262999 -0.144292
C21   C     C_R   0.563604 0.403950 0.776045 0.108322
C22   C     C_R   0.437804 0.598646 0.224376 0.105642
C23   C     C_R   0.551102 0.393721 0.858358 0.175507
C24   C     C_R   0.454096 0.613661 0.142300 0.176799
C25   C     C_R   0.446445 0.464818 0.901078 0.053487
C26   C     C_R   0.560415 0.544672 0.099371 0.053778
C27   C     C_R   0.347133 0.538902 0.862945 0.174374
C28   C     C_R   0.658623 0.469139 0.137322 0.173718
C29   C     C_R   0.363171 0.554302 0.780909 0.116212
C30   C     C_R   0.639557 0.449697 0.218995 0.117680
C31   C     C_2   0.451375 0.473614 0.985843 -0.184769
C32   C     C_2   0.555853 0.536825 0.014510 -0.187008
Cu1   Cu    Cu3+1 0.356850 0.500010 0.499980 0.924748
Cu2   Cu    Cu3+1 0.643150 0.499990 0.500020 0.925045
H1    H     H_    0.115613 0.465321 0.372381 0.126288
H2    H     H_    0.884178 0.533622 0.627783 0.128621
H3    H     H_    0.638936 0.579847 0.975844 0.159287
H4    H     H_    0.368471 0.430466 0.024582 0.159387
H5    H     H_    0.616884 0.094081 0.380009 0.142522
H6    H     H_    0.383092 0.906098 0.619526 0.142538
H7    H     H_    0.088914 0.337904 0.584001 0.122806
H8    H     H_    0.911095 0.662044 0.415980 0.122827
N1    N     N_3   0.141720 0.500030 0.499940 -0.165280
N2    N     N_3   0.858280 0.499970 0.500060 -0.165513
O1    O     O_R   0.379130 0.683150 0.499960 -0.588455
O2    O     O_R   0.620870 0.316850 0.500040 -0.588884
O3    O     O_R   0.620910 0.683140 0.500000 -0.572163
O4    O     O_R   0.379090 0.316860 0.500000 -0.572294
O5    O     O_R   0.365090 0.500030 0.613580 -0.575539
O6    O     O_R   0.634910 0.499970 0.386420 -0.575207
O7    O     O_R   0.606870 0.500020 0.613610 -0.579511
O8    O     O_R   0.393130 0.499980 0.386390 -0.579676
C33   C     C_3   0.682899 0.332897 0.731335 -0.847449
H9    H     H_    0.703983 0.240161 0.758109 0.229872
H10   H     H_    0.657818 0.311488 0.671821 0.232668
H11   H     H_    0.781713 0.388058 0.728777 0.231326
C34   C     C_3   0.315122 0.664705 0.269469 -0.843298
H12   H     H_    0.283604 0.754216 0.241951 0.230121
H13   H     H_    0.221524 0.602943 0.275034 0.231290
H14   H     H_    0.342611 0.690511 0.327846 0.231049
C35   C     C_3   0.909378 0.272105 0.447033 -0.855244
H15   H     H_    0.000920 0.222639 0.417130 0.195389
H16   H     H_    0.865233 0.213407 0.496894 0.235654
H17   H     H_    0.829143 0.287803 0.404497 0.258371
C36   C     C_3   0.090523 0.728019 0.552814 -0.855211
H18   H     H_    0.998960 0.777519 0.582671 0.195536
H19   H     H_    0.170799 0.712538 0.595331 0.258422
H20   H     H_    0.134613 0.786574 0.502869 0.235591
C37   C     C_3   0.730575 0.353623 0.259010 -0.842792
H21   H     H_    0.665184 0.300341 0.304637 0.211714
H22   H     H_    0.777293 0.281817 0.219319 0.230961
H23   H     H_    0.818277 0.401483 0.284926 0.242175
C38   C     C_3   0.271159 0.648681 0.740147 -0.843376
H24   H     H_    0.336333 0.701667 0.694292 0.212051
H25   H     H_    0.184363 0.599317 0.714389 0.242553
H26   H     H_    0.222887 0.720806 0.779083 0.231014
C39   C     C_3   0.225028 0.603241 0.909492 -0.875171
H27   H     H_    0.206974 0.566308 0.970141 0.229715
H28   H     H_    0.245553 0.704807 0.911677 0.231567
H29   H     H_    0.124209 0.588234 0.882197 0.236215
C40   C     C_3   0.782806 0.407575 0.090918 -0.876143
H30   H     H_    0.802757 0.447703 0.031120 0.229339
H31   H     H_    0.882191 0.421427 0.119822 0.236931
H32   H     H_    0.763312 0.306182 0.086476 0.231221
C41   C     C_3   0.358561 0.704723 0.100760 -0.865871
H33   H     H_    0.372236 0.800511 0.121743 0.227015
H34   H     H_    0.383175 0.711937 0.036881 0.244977
H35   H     H_    0.245950 0.676491 0.111767 0.235208
C42   C     C_3   0.648547 0.304713 0.900223 -0.864371
H36   H     H_    0.632414 0.207595 0.882246 0.226542
H37   H     H_    0.761032 0.331416 0.886285 0.235726
H38   H     H_    0.628176 0.301783 0.964392 0.245250
C43   C     C_3   0.355141 0.936094 0.366912 -0.421326
C44   C     C_3   0.305774 0.051389 0.321971 -0.815941
H39   H     H_    0.221085 0.102174 0.356822 0.251060
H40   H     H_    0.395779 0.115165 0.306125 0.248141
H41   H     H_    0.261906 0.021930 0.267480 0.234783
H42   H     H_    0.432841 0.884181 0.327900 0.201734
H43   H     H_    0.262336 0.876626 0.384725 0.205900
C45   C     C_3   0.644586 0.064303 0.632562 -0.422055
C46   C     C_3   0.694089 0.949213 0.677653 -0.816039
H44   H     H_    0.604186 0.885335 0.693520 0.248422
H45   H     H_    0.778917 0.898459 0.642880 0.251258
H46   H     H_    0.737812 0.978887 0.732133 0.234600
H47   H     H_    0.737229 0.123973 0.614776 0.206412
H48   H     H_    0.566587 0.116224 0.671382 0.200963
C47   C     C_3   0.212858 0.084662 0.526400 -0.861219
H49   H     H_    0.139825 0.006002 0.520785 0.228107
H50   H     H_    0.197762 0.119934 0.586533 0.224520
H51   H     H_    0.187652 0.160535 0.484905 0.249702
C48   C     C_3   0.787128 0.915370 0.473165 -0.861384
H52   H     H_    0.860149 0.994081 0.478649 0.228134
H53   H     H_    0.812358 0.839673 0.514777 0.249730
H54   H     H_    0.802209 0.879863 0.413089 0.224507

loop_
_geom_bond_atom_site_label_1
_geom_bond_atom_site_label_2
_ccdc_geom_bond_type
C25   C31   S    
C26   C32   S    
C43   C44   S    
C27   C29   A    
C1    C8    S    
Cu1   O1    S    
C38   H24   S    
C2    C7    S    
C17   O7    A    
C6    C9    S    
C13   H7    S    
C40   H30   S    
C18   O8    A    
C48   H53   S    
C20   C30   A    
C33   H9    S    
C2    O2    A    
Cu1   O8    S    
Cu2   O7    S    
C46   H44   S    
C19   C21   A    
C24   C26   A    
C12   N1    S    
C37   H21   S    
C41   H35   S    
C29   C38   S    
Cu1   O5    S    
C35   H16   S    
C37   H22   S    
C11   C15   S    
C12   C16   S    
C36   H19   S    
C47   H49   S    
C23   C42   S    
Cu2   O2    S    
C42   H37   S    
C24   C41   S    
C43   H43   S    
C18   C20   S    
C39   H27   S    
C14   H8    S    
C33   H10   S    
C46   H45   S    
C38   H25   S    
C35   H15   S    
C22   C34   S    
C4    C7    S    
C15   H1    S    
C40   H31   S    
C39   H28   S    
Cu2   O6    S    
C41   H34   S    
Cu1   N1    S    
C10   C48   S    
Cu2   N2    S    
C4    C6    S    
C3    C8    S    
C17   O5    A    
C5    C7    S    
C1    O3    A    
C34   H14   S    
C6    C8    S    
C44   H41   S    
C3    C5    S    
C41   H33   S    
C35   H17   S    
C11   C35   S    
C3    C9    S    
C31   C32   D    
C36   H20   S    
C30   C37   S    
Cu1   Cu2   S    
C45   H47   S    
C11   N2    S    
C3    C43   S    
C32   H3    S    
C42   H38   S    
C44   H40   S    
C12   C14   S    
C46   H46   S    
C21   C23   A    
C47   H51   S    
C22   C24   A    
C25   C27   A    
C20   C22   A    
C4    C10   S    
C19   C29   A    
C13   N1    S    
C40   H32   S    
C18   O6    A    
C14   N2    S    
C33   H11   S    
C7    C9    S    
C16   N2    S    
C48   H52   S    
C28   C40   S    
C26   C28   A    
C37   H23   S    
C27   C39   S    
C9    C47   S    
C12   C36   S    
C45   H48   S    
C31   H4    S    
C2    O4    A    
C5    H5    S    
C15   N1    S    
C5    C10   S    
C16   H2    S    
C21   C33   S    
C11   C13   S    
C1    O1    A    
C34   H12   S    
C47   H50   S    
C39   H29   S    
C28   C30   A    
C45   C46   S    
C17   C19   S    
C48   H54   S    
C6    H6    S    
C23   C25   A    
C44   H39   S    
C34   H13   S    
C38   H26   S    
C8    C10   S    
C36   H18   S    
C13   C16   S    
Cu1   O4    S    
C14   C15   S    
Cu2   O3    S    
C42   H36   S    
C43   H42   S    
C4    C45   S    
