data_mof_unit_21769.cif
_audit_creation_date              2012-12-11T15:35:28-0500
_audit_creation_method            fapswitch 2.2
_symmetry_space_group_name_H-M    P1
_symmetry_Int_Tables_number       1
_space_group_crystal_system       triclinic
_cell_length_a                    17.230547
_cell_length_b                    24.191404
_cell_length_c                    14.730258
_cell_angle_alpha                 89.986616
_cell_angle_beta                  124.745014
_cell_angle_gamma                 89.986283
_cell_volume                      5045.24072737

loop_
_atom_site_label
_atom_site_type_symbol
_atom_type_description
_atom_site_fract_x
_atom_site_fract_y
_atom_site_fract_z
_atom_type_partial_charge
C1    C     C_R   0.350143 0.151844 0.907182 -0.093267
C2    C     C_R   0.598912 0.123909 0.907447 -0.120750
C3    C     C_R   0.253438 0.545918 0.306119 -0.154734
C4    C     C_2   0.038899 0.929613 0.749787 1.016474
C5    C     C_2   0.032732 0.062524 0.754978 1.069799
C6    C     C_2   0.538919 0.429606 0.749796 1.016478
C7    C     C_2   0.532724 0.562530 0.754961 1.069861
C8    C     C_2   0.321436 0.899488 0.461362 0.980617
C9    C     C_2   0.322933 0.101414 0.461278 0.976139
C10   C     C_2   0.821484 0.399478 0.461396 0.980579
C11   C     C_2   0.822943 0.601414 0.461288 0.976120
C12   C     C_R   0.098917 0.376100 0.907444 -0.122712
C13   C     C_R   0.098913 0.623908 0.907448 -0.120753
C14   C     C_R   0.417720 0.000102 0.623338 0.082302
C15   C     C_R   0.917725 0.500101 0.623339 0.082261
C16   C     C_R   0.799255 0.999886 0.370083 0.027679
C17   C     C_R   0.299253 0.499886 0.370085 0.027688
C18   C     C_R   0.688832 0.136078 0.999041 0.043602
C19   C     C_R   0.688863 0.863931 0.999030 0.043738
C20   C     C_R   0.188833 0.636077 0.999042 0.043600
C21   C     C_R   0.350074 0.848206 0.907211 -0.073092
C22   C     C_R   0.188861 0.363931 0.999027 0.043736
C23   C     C_3   0.021611 0.945713 0.640126 -0.232392
C24   C     C_3   0.020093 0.052993 0.645089 -0.217984
C25   C     C_3   0.521607 0.445717 0.640129 -0.232426
C26   C     C_3   0.520097 0.552999 0.645078 -0.217958
C27   C     C_3   0.915451 0.948333 0.545131 -0.466545
C28   C     C_3   0.915305 0.052093 0.543573 -0.444074
C29   C     C_3   0.415441 0.448347 0.545159 -0.466547
C30   C     C_3   0.415315 0.552107 0.543550 -0.444140
C31   C     C_3   0.064402 0.002328 0.531099 -0.386574
C32   C     C_R   0.850144 0.651845 0.907184 -0.093267
C33   C     C_3   0.564400 0.502323 0.531095 -0.386588
C34   C     C_3   0.071870 0.000246 0.641621 0.153782
C35   C     C_3   0.571870 0.500248 0.641618 0.153811
C36   C     C_3   0.895706 0.999935 0.471761 0.349747
C37   C     C_3   0.395705 0.499937 0.471762 0.349770
C38   C     C_R   0.442941 0.847001 0.091105 -0.134724
C39   C     C_R   0.443001 0.153015 0.091061 -0.127349
C40   C     C_R   0.942943 0.347000 0.091104 -0.134741
C41   C     C_R   0.943002 0.653015 0.091063 -0.127359
C42   C     C_3   0.961954 0.999689 0.432623 -0.375116
C43   C     C_R   0.850075 0.348206 0.907210 -0.073110
C44   C     C_3   0.461952 0.499668 0.432622 -0.375124
C45   C     C_R   0.291090 0.731162 0.898038 -0.137237
C46   C     C_R   0.291311 0.268991 0.898004 -0.153986
C47   C     C_R   0.791088 0.231163 0.898035 -0.137226
C48   C     C_R   0.791324 0.768995 0.898013 -0.153987
C49   C     C_R   0.743930 0.184894 0.898092 -0.141522
C50   C     C_R   0.744098 0.815247 0.898085 -0.147276
C51   C     C_R   0.243935 0.684892 0.898096 -0.141524
C52   C     C_R   0.244086 0.315243 0.898076 -0.147278
C53   C     C_R   0.762657 0.165264 0.998264 0.130314
C54   C     C_R   0.689951 0.123311 0.091709 -0.116803
C55   C     C_R   0.762752 0.834792 0.998258 0.134443
C56   C     C_R   0.262660 0.665262 0.998267 0.130313
C57   C     C_R   0.262748 0.334791 0.998250 0.134441
C58   C     C_R   0.843198 0.183875 0.098017 -0.150229
C59   C     C_R   0.843310 0.816138 0.098007 -0.153019
C60   C     C_R   0.343199 0.683875 0.098020 -0.150225
C61   C     C_R   0.343311 0.316140 0.097998 -0.153013
C62   C     C_R   0.390378 0.730177 0.098088 -0.150935
C63   C     C_R   0.390554 0.269859 0.098049 -0.149636
C64   C     C_R   0.890381 0.230176 0.098085 -0.150938
C65   C     C_R   0.689973 0.876677 0.091693 -0.118479
C66   C     C_R   0.890553 0.769856 0.098059 -0.149633
C67   C     C_R   0.357713 0.757328 0.998250 0.124108
C68   C     C_R   0.357914 0.242759 0.998202 0.128878
C69   C     C_R   0.857715 0.257328 0.998247 0.124106
C70   C     C_R   0.857920 0.742760 0.998210 0.128880
C71   C     C_R   0.361957 0.950220 0.447396 -0.088950
C72   C     C_R   0.362389 0.050158 0.447478 -0.084962
C73   C     C_R   0.861967 0.450217 0.447398 -0.088878
C74   C     C_R   0.862386 0.550156 0.447472 -0.084907
C75   C     C_R   0.388546 0.950215 0.373832 -0.224183
C76   C     C_R   0.189952 0.623310 0.091710 -0.116795
C77   C     C_R   0.388958 0.050006 0.374016 -0.223244
C78   C     C_R   0.888540 0.450214 0.373820 -0.224193
C79   C     C_R   0.888936 0.550005 0.373991 -0.223246
C80   C     C_R   0.411580 0.000067 0.346011 0.119444
C81   C     C_R   0.911558 0.500067 0.345984 0.119446
C82   C     C_R   0.485739 0.046077 0.256740 -0.116101
C83   C     C_R   0.485700 0.953940 0.256737 -0.118514
C84   C     C_R   0.985724 0.546077 0.256724 -0.116101
C85   C     C_R   0.985684 0.453941 0.256718 -0.118515
C86   C     C_R   0.369218 0.000180 0.501271 0.038426
C87   C     C_R   0.189973 0.376677 0.091692 -0.118477
C88   C     C_R   0.869225 0.500178 0.501272 0.038373
C89   C     C_R   0.231042 0.953592 0.752368 -0.099864
C90   C     C_R   0.231067 0.046463 0.752299 -0.026010
C91   C     C_R   0.731041 0.453592 0.752365 -0.099946
C92   C     C_R   0.731067 0.546463 0.752298 -0.025996
C93   C     C_R   0.381267 0.184607 0.998850 0.046392
C94   C     C_R   0.381142 0.815451 0.998905 0.047391
C95   C     C_R   0.881269 0.684608 0.998853 0.046394
C96   C     C_R   0.881144 0.315451 0.998904 0.047390
C97   C     C_R   0.457901 0.000019 0.287809 0.064658
C98   C     C_R   0.598919 0.876101 0.907445 -0.122714
C99   C     C_R   0.957879 0.500019 0.287782 0.064663
C100  C     C_R   0.174661 0.000051 0.727193 0.036802
C101  C     C_R   0.674661 0.500052 0.727190 0.036771
C102  C     C_R   0.443490 0.045435 0.692319 -0.120335
C103  C     C_R   0.443452 0.954677 0.692237 -0.114088
C104  C     C_R   0.943493 0.545435 0.692320 -0.120324
C105  C     C_R   0.943455 0.454677 0.692239 -0.114091
C106  C     C_R   0.753541 0.953942 0.305951 -0.148698
C107  C     C_R   0.753441 0.045918 0.306117 -0.154722
C108  C     C_R   0.253542 0.453942 0.305951 -0.148694
H1    H     H_    0.312366 0.165298 0.822270 0.083236
H2    H     H_    0.902708 0.090334 0.495177 0.146486
H3    H     H_    0.397261 0.409440 0.497167 0.144993
H4    H     H_    0.402744 0.590338 0.495137 0.146502
H5    H     H_    0.103529 0.967306 0.525471 0.191770
H6    H     H_    0.096671 0.041030 0.525758 0.189829
H7    H     H_    0.603540 0.467306 0.525478 0.191769
H8    H     H_    0.596653 0.541029 0.525740 0.189834
H9    H     H_    0.950645 0.961465 0.384312 0.165118
H10   H     H_    0.946656 0.035608 0.377372 0.165494
H11   H     H_    0.450649 0.461430 0.384349 0.165116
H12   H     H_    0.312265 0.834782 0.822302 0.082983
H13   H     H_    0.446647 0.535571 0.377334 0.165500
H14   H     H_    0.268139 0.748923 0.819166 0.114209
H15   H     H_    0.268410 0.251275 0.819135 0.112692
H16   H     H_    0.768136 0.248925 0.819163 0.114213
H17   H     H_    0.768430 0.751283 0.819144 0.112689
H18   H     H_    0.686388 0.168880 0.819356 0.115984
H19   H     H_    0.686556 0.831311 0.819355 0.115026
H20   H     H_    0.186396 0.668876 0.819360 0.115988
H21   H     H_    0.186539 0.331302 0.819346 0.115033
H22   H     H_    0.863915 0.167018 0.176801 0.112238
H23   H     H_    0.812367 0.665299 0.822272 0.083234
H24   H     H_    0.863987 0.832935 0.176797 0.110286
H25   H     H_    0.363915 0.667018 0.176804 0.112236
H26   H     H_    0.363992 0.332940 0.176788 0.110288
H27   H     H_    0.445670 0.747212 0.177010 0.114707
H28   H     H_    0.445850 0.252785 0.176971 0.114326
H29   H     H_    0.945676 0.247209 0.177007 0.114710
H30   H     H_    0.945843 0.752780 0.176981 0.114326
H31   H     H_    0.489895 0.832643 0.175164 0.090934
H32   H     H_    0.489990 0.167347 0.175104 0.090578
H33   H     H_    0.989897 0.332641 0.175162 0.090941
H34   H     H_    0.812266 0.334782 0.822301 0.082998
H35   H     H_    0.989993 0.667346 0.175106 0.090582
H36   H     H_    0.391479 0.911492 0.339266 0.153591
H37   H     H_    0.392194 0.088700 0.339598 0.160026
H38   H     H_    0.891474 0.411490 0.339256 0.153581
H39   H     H_    0.892161 0.588699 0.339564 0.160008
H40   H     H_    0.476892 0.089086 0.268228 0.099362
H41   H     H_    0.476796 0.910942 0.268245 0.098889
H42   H     H_    0.976874 0.589086 0.268209 0.099367
H43   H     H_    0.976772 0.410942 0.268217 0.098896
H44   H     H_    0.209578 0.910865 0.736332 0.125730
H45   H     H_    0.870049 0.950179 0.576436 0.196343
H46   H     H_    0.209593 0.089220 0.736717 0.097537
H47   H     H_    0.709574 0.410866 0.736326 0.125748
H48   H     H_    0.709596 0.589221 0.736718 0.097532
H49   H     H_    0.428241 0.088249 0.668685 0.112066
H50   H     H_    0.428135 0.911891 0.668426 0.109526
H51   H     H_    0.928243 0.588249 0.668687 0.112060
H52   H     H_    0.928141 0.411891 0.668431 0.109532
H53   H     H_    0.765482 0.911243 0.331804 0.092286
H54   H     H_    0.765370 0.088560 0.332357 0.096344
H55   H     H_    0.265488 0.411243 0.331803 0.092283
H56   H     H_    0.864244 0.052845 0.566766 0.203263
H57   H     H_    0.265363 0.588560 0.332359 0.096352
H58   H     H_    0.747640 0.128178 0.177175 0.094432
H59   H     H_    0.747685 0.871775 0.177137 0.092900
H60   H     H_    0.247641 0.628175 0.177176 0.094433
H61   H     H_    0.247686 0.371774 0.177135 0.092901
H62   H     H_    0.571738 0.871464 0.821353 0.097866
H63   H     H_    0.571742 0.128563 0.821357 0.098342
H64   H     H_    0.071734 0.371464 0.821351 0.097873
H65   H     H_    0.071744 0.628562 0.821357 0.098348
H66   H     H_    0.050997 0.911163 0.618525 0.120310
H67   H     H_    0.370062 0.450221 0.576493 0.196361
H68   H     H_    0.051928 0.090019 0.633733 0.086037
H69   H     H_    0.550975 0.411168 0.618500 0.120353
H70   H     H_    0.551943 0.590023 0.633735 0.086015
H71   H     H_    0.109602 0.880181 0.883973 0.333279
H72   H     H_    0.123554 0.074580 0.919328 0.335307
H73   H     H_    0.609597 0.380138 0.883930 0.333274
H74   H     H_    0.623535 0.574585 0.919312 0.335312
H75   H     H_    0.237128 0.866621 0.501635 0.315750
H76   H     H_    0.313454 0.184594 0.450472 0.322048
H77   H     H_    0.737187 0.366594 0.501668 0.315751
H78   H     H_    0.364243 0.552884 0.566725 0.203239
H79   H     H_    0.813512 0.684596 0.450548 0.322043
H80   H     H_    0.897304 0.909433 0.497121 0.144994
N1    N     N_R   0.392140 0.102630 0.941800 -0.038600
N2    N     N_R   0.525160 0.972040 0.206160 -0.040937
N3    N     N_R   0.025160 0.527960 0.206160 -0.040996
N4    N     N_R   0.025160 0.472040 0.206160 -0.040938
N5    N     N_R   0.317870 0.971120 0.792790 -0.043155
N6    N     N_R   0.317870 0.028880 0.792790 -0.047261
N7    N     N_R   0.817870 0.471120 0.792790 -0.043147
N8    N     N_R   0.817870 0.528880 0.792790 -0.047261
N9    N     N_R   0.473480 0.027920 0.793480 -0.048304
N10   N     N_R   0.473480 0.972080 0.793480 -0.047922
N11   N     N_R   0.973480 0.527920 0.793480 -0.048303
N12   N     N_R   0.392140 0.897370 0.941800 -0.042256
N13   N     N_R   0.973480 0.472080 0.793480 -0.047921
N14   N     N_R   0.681610 0.971120 0.207570 -0.036113
N15   N     N_R   0.681610 0.028880 0.207570 -0.035894
N16   N     N_R   0.181610 0.471120 0.207570 -0.036113
N17   N     N_R   0.181610 0.528880 0.207570 -0.035895
N18   N     N_R   0.605410 0.102620 0.056870 -0.043378
N19   N     N_R   0.605410 0.897380 0.056870 -0.042970
N20   N     N_R   0.105410 0.602620 0.056870 -0.043377
N21   N     N_R   0.105410 0.397380 0.056870 -0.042968
N22   N     N_R   0.549680 0.896430 0.944180 -0.045241
N23   N     N_R   0.892140 0.602630 0.941800 -0.038601
N24   N     N_R   0.549680 0.103570 0.944180 -0.045422
N25   N     N_R   0.049680 0.396430 0.944180 -0.045240
N26   N     N_R   0.049680 0.603570 0.944180 -0.045422
N27   N     N_R   0.892140 0.397370 0.941800 -0.042258
N28   N     N_R   0.450890 0.896450 0.057150 -0.040579
N29   N     N_R   0.450890 0.103550 0.057150 -0.039376
N30   N     N_R   0.950890 0.396450 0.057150 -0.040580
N31   N     N_R   0.950890 0.603550 0.057150 -0.039376
N32   N     N_R   0.525160 0.027960 0.206160 -0.040995
Ni1   Ni    Ni4+2 0.433410 0.064680 0.868830 0.234571
Ni2   Ni    Ni4+2 0.433410 0.935320 0.868830 0.229607
Ni3   Ni    Ni4+2 0.933410 0.564680 0.868830 0.234565
Ni4   Ni    Ni4+2 0.933410 0.435320 0.868830 0.229604
Ni5   Ni    Ni4+2 0.565650 0.934380 0.131170 0.215446
Ni6   Ni    Ni4+2 0.565650 0.065620 0.131170 0.218367
Ni7   Ni    Ni4+2 0.065650 0.434380 0.131170 0.215448
Ni8   Ni    Ni4+2 0.065650 0.565620 0.131170 0.218368
O1    O     O_2   0.994740 0.951419 0.781980 -0.610996
O2    O     O_R   0.260661 0.903883 0.495420 -0.813395
O3    O     O_2   0.268330 0.098578 0.489102 -0.658300
O4    O     O_R   0.345490 0.152897 0.438962 -0.815697
O5    O     O_2   0.838943 0.354064 0.440597 -0.657138
O6    O     O_R   0.760680 0.403862 0.495415 -0.813376
O7    O     O_2   0.768323 0.598578 0.489088 -0.658291
O8    O     O_R   0.845539 0.652898 0.439024 -0.815701
O9    O     O_R   0.103980 0.887785 0.812755 -0.821313
O10   O     O_2   0.964485 0.067215 0.759846 -0.608789
O11   O     O_R   0.123680 0.067945 0.851459 -0.817436
O12   O     O_2   0.494817 0.451430 0.782049 -0.610990
O13   O     O_R   0.603955 0.387748 0.812702 -0.821327
O14   O     O_2   0.464472 0.567219 0.759818 -0.608807
O15   O     O_R   0.623669 0.567951 0.851447 -0.817429
O16   O     O_2   0.338834 0.854072 0.440499 -0.657125

loop_
_geom_bond_atom_site_label_1
_geom_bond_atom_site_label_2
_ccdc_geom_bond_type
C27   H45   S    
N3    Ni8   S    
N22   Ni2   S    
C31   C42   S    
C55   C59   A    
C80   C97   S    
C2    C18   A    
N2    Ni5   S    
C83   N2    A    
C36   C42   S    
C9    C72   S    
C20   C56   S    
C69   C96   S    
C43   N27   A    
H74   O15   S    
C22   C57   S    
C47   H16   S    
C47   C49   A    
C23   H66   S    
C66   C70   A    
C85   N4    A    
C107  N15   A    
C49   H18   S    
C98   N22   A    
C3    H57   S    
C7    C26   S    
C62   C67   A    
C84   N3    A    
C9    O4    S    
C52   H21   S    
C30   H78   S    
N10   Ni2   S    
C40   C96   A    
C41   H35   S    
C21   H12   S    
N9    Ni1   S    
C59   C66   A    
N7    Ni4   S    
C33   C35   S    
N25   Ni4   S    
C25   H69   S    
C67   C94   S    
C14   C102  A    
C6    C25   S    
C21   C94   A    
C45   C51   A    
C87   H61   S    
C12   C22   A    
C44   H13   S    
C20   C76   A    
N17   Ni8   S    
C60   C62   A    
C51   C56   A    
C106  H53   S    
C61   C63   A    
C39   C93   A    
C18   C53   S    
C1    H1    S    
C48   H17   S    
C63   C68   A    
C8    O2    S    
N19   Ni5   S    
C89   H44   S    
C47   C69   A    
N1    N29   A    
C54   N18   A    
C90   N6    A    
C50   C55   A    
N18   Ni6   S    
N19   N22   A    
C34   C100  S    
C38   H31   S    
C6    O13   S    
C19   C65   A    
C23   C27   S    
C15   C104  A    
C90   H46   S    
C75   C80   A    
C91   C101  A    
C31   H6    S    
H79   O8    S    
C16   C107  A    
C16   C106  A    
C2    H63   S    
C64   H29   S    
C45   H14   S    
C48   C50   A    
H77   O6    S    
C89   N5    A    
C40   H33   S    
N27   Ni4   S    
C58   C64   A    
C87   N21   A    
N20   Ni8   S    
C12   N25   A    
C29   H67   S    
C102  H49   S    
C90   C100  A    
C105  H52   S    
C41   N31   A    
C19   C98   A    
H73   O13   S    
C61   H26   S    
N14   Ni5   S    
N24   Ni1   S    
C26   H70   S    
C72   C86   A    
C11   O7    D    
C108  H55   S    
C59   H24   S    
C33   H7    S    
C10   O6    S    
N14   N15   A    
C89   C100  A    
N3    N4    A    
C3    N17   A    
C83   H41   S    
N29   Ni6   S    
H76   O4    S    
C62   H27   S    
C12   H64   S    
C5    O10   D    
N27   N30   A    
C48   C70   A    
C79   C81   A    
C4    C23   S    
C78   H38   S    
C42   H10   S    
C79   H39   S    
C81   C99   S    
H72   O11   S    
C28   H2    S    
C64   C69   A    
C6    O12   D    
H71   O9    S    
C75   H36   S    
N21   N25   A    
C56   C60   A    
C30   C37   S    
C30   H4    S    
N4    Ni7   S    
C103  N10   A    
C13   N26   A    
C4    O9    S    
C13   H65   S    
C85   H43   S    
C73   C88   A    
C91   H47   S    
C72   C77   A    
C85   C99   A    
C106  N14   A    
C71   C86   A    
C91   N7    A    
C105  N13   A    
C10   C73   S    
C66   H30   S    
C107  H54   S    
C73   C78   A    
C23   C34   S    
N23   Ni3   S    
C38   C94   A    
C43   C96   A    
C31   C34   S    
N32   Ni6   S    
C92   H48   S    
C17   C37   S    
C22   C87   A    
C17   C108  A    
N16   Ni7   S    
H75   O2    S    
C14   C86   S    
C92   C101  A    
C25   C35   S    
N6    Ni1   S    
N5    Ni2   S    
C42   H9    S    
C26   C30   S    
C74   C79   A    
N31   Ni8   S    
C82   C97   A    
C46   H15   S    
C46   C68   A    
N11   Ni3   S    
C51   H20   S    
C102  N9    A    
C7    O15   S    
C52   C57   A    
C24   H68   S    
C77   H37   S    
N30   Ni7   S    
C21   N12   A    
C28   H56   S    
C54   H58   S    
C77   C80   A    
C19   C55   S    
C11   O8    S    
C32   N23   A    
C39   H32   S    
C10   O5    D    
N20   N26   A    
C104  N11   A    
C5    O11   S    
C13   C20   A    
C40   N30   A    
C84   C99   A    
C39   N29   A    
C3    C17   A    
C24   C28   S    
C38   N28   A    
C92   N8    A    
C35   C101  S    
C11   C74   S    
N2    N32   A    
C82   H40   S    
C53   C58   A    
C103  H50   S    
C57   C61   A    
C45   C67   A    
C65   N19   A    
N28   Ni5   S    
C27   C36   S    
N23   N31   A    
C65   H59   S    
C2    N24   A    
C68   C93   S    
C44   H11   S    
C9    O3    D    
N12   Ni2   S    
C63   H28   S    
C15   C105  A    
C37   C44   S    
C70   C95   S    
N21   Ni7   S    
C108  N16   A    
C4    O1    D    
C46   C52   A    
C71   C75   A    
C78   C81   A    
C25   C29   S    
C14   C103  A    
C41   C95   A    
C5    C24   S    
C58   H22   S    
C49   C53   A    
C7    O14   D    
N12   N28   A    
C76   H60   S    
N1    Ni1   S    
C27   H80   S    
C32   H23   S    
C29   H3    S    
N9    N10   A    
C33   C44   S    
C24   C34   S    
N8    Ni3   S    
N26   Ni3   S    
C18   C54   A    
N7    N8    A    
C98   H62   S    
N18   N24   A    
C26   C35   S    
C32   C95   A    
C82   N32   A    
N16   N17   A    
C28   C36   S    
C1    C93   A    
N5    N6    A    
C83   C97   A    
C29   C37   S    
N11   N13   A    
C8    O16   D    
C43   H34   S    
C50   H19   S    
C104  H51   S    
N13   Ni4   S    
C74   C88   A    
C33   H8    S    
C60   H25   S    
C31   H5    S    
N15   Ni6   S    
C16   C36   S    
C76   N20   A    
C84   H42   S    
C15   C88   S    
C8    C71   S    
C1    N1    A    
