data_mof_unit_16122.cif
_audit_creation_date              2012-12-11T14:23:12-0500
_audit_creation_method            fapswitch 2.2
_symmetry_space_group_name_H-M    P1
_symmetry_Int_Tables_number       1
_space_group_crystal_system       triclinic
_cell_length_a                    10.993005
_cell_length_b                    10.969729
_cell_length_c                    18.809951
_cell_angle_alpha                 90.331914
_cell_angle_beta                  90.168658
_cell_angle_gamma                 60.547471
_cell_volume                      1975.11713342

loop_
_atom_site_label
_atom_site_type_symbol
_atom_type_description
_atom_site_fract_x
_atom_site_fract_y
_atom_site_fract_z
_atom_type_partial_charge
C1    C     C_R   0.290439 0.621791 0.616076 0.589369
C2    C     C_R   0.581867 0.148069 0.711460 -0.165742
C3    C     C_R   0.580044 0.148006 0.783767 -0.147273
C4    C     C_R   0.658131 0.625562 0.598729 0.538479
C5    C     C_R   0.863742 0.223322 0.830369 -0.107093
C6    C     C_R   0.956069 0.254746 0.796604 -0.149973
C7    C     C_R   0.963647 0.251135 0.723055 -0.168124
C8    C     C_R   0.881207 0.213630 0.682511 -0.119459
C9    C     C_R   0.674239 0.176303 0.675426 -0.006490
C10   C     C_R   0.204946 0.658784 0.841180 -0.052166
C11   C     C_R   0.234016 0.532815 0.807793 0.008058
C12   C     C_3   0.651482 0.610715 0.801098 -0.220582
C13   C     C_R   0.247635 0.520986 0.732494 -0.019224
C14   C     C_R   0.260429 0.738437 0.732286 0.204131
C15   C     C_R   0.228976 0.755405 0.804391 -0.139636
C16   C     C_R   0.629551 0.229087 0.603064 0.547157
C17   C     C_R   0.246927 0.419385 0.848495 -0.070361
C18   C     C_R   0.250877 0.304549 0.816151 -0.140823
C19   C     C_R   0.250176 0.297010 0.742923 -0.162638
C20   C     C_R   0.249043 0.402042 0.701165 -0.099824
C21   C     C_R   0.260121 0.627621 0.693755 -0.010847
C22   C     C_R   0.660318 0.674820 0.170251 -0.001324
C23   C     C_3   0.731548 0.692791 0.806581 0.044749
C24   C     C_R   0.723958 0.539490 0.199314 0.023704
C25   C     C_R   0.755022 0.524745 0.272265 0.036533
C26   C     C_R   0.608887 0.776164 0.289188 -0.157646
C27   C     C_R   0.611787 0.791716 0.215918 -0.137583
C28   C     C_R   0.280175 0.626257 0.392383 0.548958
C29   C     C_R   0.778380 0.419071 0.155319 -0.079616
C30   C     C_R   0.890987 0.294527 0.177968 -0.115556
C31   C     C_R   0.937902 0.283152 0.247348 -0.158200
C32   C     C_R   0.870613 0.395624 0.294413 -0.095810
C33   C     C_R   0.674545 0.642725 0.318235 0.003036
C34   C     C_3   0.687733 0.657148 0.672214 0.059844
C35   C     C_R   0.644182 0.175802 0.171135 -0.001588
C36   C     C_R   0.505961 0.247314 0.196688 0.021623
C37   C     C_R   0.485068 0.259990 0.270593 0.018991
C38   C     C_R   0.735668 0.166515 0.288178 -0.138831
C39   C     C_R   0.757079 0.128384 0.218110 -0.147543
C40   C     C_R   0.645412 0.620678 0.392148 0.533473
C41   C     C_R   0.389356 0.291539 0.150936 -0.086025
C42   C     C_R   0.264314 0.307814 0.176833 -0.115692
C43   C     C_R   0.248838 0.298992 0.249328 -0.156737
C44   C     C_R   0.353089 0.285098 0.296041 -0.112521
C45   C     C_3   0.845883 0.603635 0.685290 -0.233645
C46   C     C_R   0.600495 0.237466 0.314770 0.009945
C47   C     C_R   0.167407 0.663174 0.177463 0.005939
C48   C     C_R   0.250417 0.720987 0.200802 0.021931
C49   C     C_R   0.261094 0.737186 0.273990 0.021100
C50   C     C_R   0.144155 0.601219 0.296705 -0.145064
C51   C     C_R   0.108310 0.611658 0.226062 -0.140643
C52   C     C_R   0.582649 0.285838 0.387618 0.547527
C53   C     C_R   0.300776 0.785158 0.152954 -0.081468
C54   C     C_R   0.313599 0.899057 0.175235 -0.109128
C55   C     C_R   0.302028 0.932442 0.247006 -0.151456
C56   C     C_3   0.638386 0.579247 0.723147 -0.210471
C57   C     C_R   0.288891 0.845357 0.296447 -0.098777
C58   C     C_R   0.228753 0.654493 0.320350 0.010576
C59   C     C_R   0.700380 0.104177 0.896908 0.522576
C60   C     C_R   0.756102 0.710743 0.883135 0.554005
C61   C     C_R   0.122649 0.704457 0.907411 0.526464
C62   C     C_R   0.674244 0.110227 0.102212 0.532367
C63   C     C_R   0.696434 0.690795 0.097623 0.536546
C64   C     C_3   0.644056 0.834920 0.769052 -0.241531
C65   C     C_R   0.098313 0.706760 0.110206 0.534427
C66   C     C_3   0.612409 0.814325 0.690986 -0.247064
C67   C     C_R   0.681481 0.158514 0.824368 -0.001154
C68   C     C_3   0.872471 0.614604 0.765442 -0.229394
C69   C     C_3   0.201895 0.955220 0.687825 0.010583
C70   C     C_3   0.238525 0.018129 0.623946 -0.351389
C71   C     C_R   0.775771 0.189533 0.790538 0.018575
C72   C     C_R   0.777984 0.191798 0.714838 0.011966
Cr1   Cr    Cr6+3 0.392940 0.397950 0.502230 0.976128
Cr2   Cr    Cr6+3 0.398400 0.708500 0.501260 0.982618
Cr3   Cr    Cr6+3 0.708640 0.393530 0.496460 0.982163
Cr4   Cr    Cr6+3 0.937880 0.938320 0.007620 0.989944
Cr5   Cr    Cr6+3 0.625560 0.937220 0.994510 0.987011
Cr6   Cr    Cr6+3 0.938080 0.625010 0.001190 0.985996
H1    H     H_    0.707461 0.887963 0.769561 0.128347
H2    H     H_    0.903430 0.199832 0.626488 0.151863
H3    H     H_    0.543804 0.899855 0.797514 0.139592
H4    H     H_    0.256877 0.417221 0.905761 0.126630
H5    H     H_    0.220945 0.846698 0.831257 0.145162
H6    H     H_    0.259845 0.218488 0.847911 0.099137
H7    H     H_    0.258836 0.204484 0.718519 0.095147
H8    H     H_    0.249166 0.383231 0.645354 0.165606
H9    H     H_    0.557398 0.867825 0.323111 0.125328
H10   H     H_    0.743403 0.424760 0.100914 0.118480
H11   H     H_    0.573581 0.896027 0.194846 0.151344
H12   H     H_    0.701253 0.466002 0.714139 0.151349
H13   H     H_    0.941686 0.206613 0.141708 0.123275
H14   H     H_    0.026229 0.186229 0.265063 0.110305
H15   H     H_    0.499657 0.859041 0.684604 0.197340
H16   H     H_    0.920123 0.381483 0.345564 0.141593
H17   H     H_    0.825975 0.135098 0.322100 0.147778
H18   H     H_    0.396553 0.305027 0.094445 0.123901
H19   H     H_    0.863746 0.060442 0.200953 0.154237
H20   H     H_    0.178386 0.330786 0.141078 0.124835
H21   H     H_    0.151156 0.315823 0.270501 0.108896
H22   H     H_    0.324851 0.290668 0.350909 0.160211
H23   H     H_    0.938403 0.508825 0.787556 0.158171
H24   H     H_    0.103751 0.553381 0.333016 0.133345
H25   H     H_    0.312588 0.759657 0.096767 0.120166
H26   H     H_    0.033091 0.580248 0.209536 0.147460
H27   H     H_    0.646042 0.871436 0.654393 0.103444
H28   H     H_    0.335228 0.959624 0.137180 0.124030
H29   H     H_    0.314345 0.019566 0.264957 0.115412
H30   H     H_    0.291619 0.874190 0.350750 0.161117
H31   H     H_    0.932124 0.671640 0.771829 0.116679
H32   H     H_    0.880097 0.667309 0.654043 0.120329
H33   H     H_    0.705491 0.511299 0.831226 0.142012
H34   H     H_    0.911060 0.494875 0.666699 0.143494
H35   H     H_    0.545378 0.673249 0.824636 0.141266
H36   H     H_    0.530424 0.604180 0.711597 0.161369
H37   H     H_    0.190279 0.018889 0.735853 0.137164
H38   H     H_    0.101535 0.957425 0.675494 0.154016
H39   H     H_    0.272442 0.947594 0.577257 0.202750
H40   H     H_    0.146811 0.117137 0.606976 0.065648
H41   H     H_    0.323650 0.040620 0.636759 0.099024
H42   H     H_    0.505585 0.130362 0.683600 0.136203
H43   H     H_    0.856632 0.234208 0.887549 0.132053
H44   H     H_    0.506261 0.122672 0.807159 0.154980
H45   H     H_    0.021000 0.282404 0.828046 0.123424
H46   H     H_    0.036487 0.273801 0.696728 0.110564
O1    O     O_R   0.507340 0.255690 0.581430 -0.533480
O2    O     O_R   0.837290 0.593240 0.915240 -0.530672
O3    O     O_R   0.065320 0.635310 0.931580 -0.523265
O4    O     O_R   0.280360 0.527380 0.578910 -0.528431
O5    O     O_R   0.068470 0.828620 0.091850 -0.525925
O6    O     O_R   0.799150 0.057200 0.079350 -0.512598
O7    O     O_R   0.585220 0.080180 0.076770 -0.530908
O8    O     O_R   0.627170 0.809480 0.067050 -0.504649
O9    O     O_R   0.816200 0.596410 0.076500 -0.519652
O10   O     O_R   0.045770 0.638240 0.081070 -0.511636
O11   O     O_3   0.833840 0.833520 0.001110 -0.252674
O12   O     O_R   0.524510 0.695820 0.424050 -0.527143
O13   O     O_R   0.260600 0.739610 0.584580 -0.480412
O14   O     O_R   0.532370 0.695050 0.573830 -0.499241
O15   O     O_R   0.744850 0.503430 0.576380 -0.532320
O16   O     O_R   0.699080 0.276500 0.571950 -0.511444
O17   O     O_R   0.498860 0.256520 0.419860 -0.542326
O18   O     O_R   0.272490 0.528150 0.429140 -0.518162
O19   O     O_R   0.252110 0.740440 0.423010 -0.534682
O20   O     O_3   0.310809 0.818695 0.700784 -0.581180
O21   O     O_R   0.736370 0.504260 0.414810 -0.539581
O22   O     O_R   0.691220 0.277270 0.422180 -0.499235
O23   O     O_3   0.499990 0.499990 0.499980 -0.288329
O24   O     O_R   0.089570 0.825450 0.930590 -0.525406
O25   O     O_R   0.818700 0.054260 0.929860 -0.507902
O26   O     O_R   0.606310 0.077010 0.915520 -0.543904
O27   O     O_R   0.646730 0.806540 0.917560 -0.509703

loop_
_geom_bond_atom_site_label_1
_geom_bond_atom_site_label_2
_ccdc_geom_bond_type
C32   H16   S    
Cr2   O19   S    
C69   H38   S    
C34   C56   S    
C46   C52   S    
C44   H22   S    
C41   C42   A    
C62   O6    A    
C19   C20   A    
C1    O4    A    
C7    H46   S    
Cr5   O27   S    
C45   H34   S    
C7    C8    A    
Cr1   O17   S    
C53   C54   A    
Cr3   O21   S    
C69   O20   S    
C1    C21   S    
Cr2   O14   S    
C12   C23   S    
C26   C27   A    
C40   O21   A    
Cr1   O23   S    
C63   O9    A    
C14   C21   A    
C36   C37   A    
C61   O24   A    
C43   H21   S    
C18   C19   A    
Cr3   O16   S    
C42   H20   S    
C30   C31   A    
Cr1   O1    S    
C39   H19   S    
C41   H18   S    
C70   H39   S    
C5    H43   S    
C49   C57   A    
C17   H4    S    
Cr5   O7    S    
C24   C29   A    
C29   H10   S    
C59   C67   S    
C22   C63   S    
Cr4   O6    S    
C11   C17   A    
C47   C48   A    
C26   H9    S    
C20   H8    S    
C38   H17   S    
C18   H6    S    
C9    C72   A    
Cr6   O11   S    
C65   O10   A    
C3    H44   S    
C25   C32   A    
C56   H12   S    
C34   C66   S    
C36   C41   A    
C23   C60   S    
C6    H45   S    
Cr6   O3    S    
Cr4   O11   S    
C50   C51   A    
C14   O20   S    
Cr1   O18   S    
C59   O25   A    
Cr3   O22   S    
C48   C53   A    
Cr2   O13   S    
C4    C34   S    
C8    C72   A    
C33   C40   S    
C54   H28   S    
C50   C58   A    
Cr2   O23   S    
C38   C39   A    
C68   H23   S    
C34   C45   S    
C2    H42   S    
C45   H32   S    
C15   H5    S    
Cr3   O23   S    
C51   H26   S    
C49   C58   A    
Cr2   O12   S    
C60   O27   A    
C64   C66   S    
C23   C68   S    
C35   C39   A    
C43   C44   A    
C29   C30   A    
C40   O12   A    
Cr4   O5    S    
C26   C33   A    
C65   O5    A    
C31   C32   A    
C70   H41   S    
C45   C68   S    
C17   C18   A    
C13   C21   A    
C61   O3    A    
C28   O19   A    
C63   O8    A    
C24   C25   A    
Cr6   O10   S    
C12   C56   S    
C66   H15   S    
C23   C64   S    
C50   H24   S    
C22   C27   A    
C55   C57   A    
C64   H1    S    
C22   C24   A    
C10   C61   S    
C28   O18   A    
C42   C43   A    
C66   H27   S    
Cr6   O2    S    
C16   O16   A    
C1    O13   A    
C12   H35   S    
C16   O1    A    
C59   O26   A    
C54   C55   A    
C69   H37   S    
C52   O22   A    
C13   C20   A    
C62   O7    A    
C9    C16   S    
C3    C67   A    
C30   H13   S    
C19   H7    S    
Cr5   O26   S    
C47   C51   A    
C6    C7    A    
C28   C58   S    
Cr1   O4    S    
C52   O17   A    
C10   C15   A    
C37   C44   A    
C60   O2    A    
C2    C3    A    
C71   C72   A    
C5    C71   A    
Cr3   O15   S    
C4    O15   A    
C11   C13   A    
C5    C6    A    
Cr4   O25   S    
C53   H25   S    
C48   C49   A    
C47   C65   S    
C27   H11   S    
C35   C62   S    
C67   C71   A    
C68   H31   S    
C69   C70   S    
Cr6   O9    S    
C64   H3    S    
C38   C46   A    
C10   C11   A    
C4    O14   A    
C70   H40   S    
C57   H30   S    
Cr4   O24   S    
C31   H14   S    
C55   H29   S    
C8    H2    S    
C56   H36   S    
C14   C15   A    
C35   C36   A    
Cr5   O11   S    
C37   C46   A    
C2    C9    A    
Cr5   O8    S    
C12   H33   S    
C25   C33   A    
