data_mof_unit_52890.cif
_audit_creation_date              2013-03-05T16:32:08-0500
_audit_creation_method            fapswitch 2.2
_symmetry_space_group_name_H-M    P1
_symmetry_Int_Tables_number       1
_space_group_crystal_system       triclinic
_cell_length_a                    10.755467
_cell_length_b                    10.837016
_cell_length_c                    9.547718
_cell_angle_alpha                 89.812708
_cell_angle_beta                  89.61188
_cell_angle_gamma                 89.883912
_cell_volume                      1112.82125793

loop_
_atom_site_label
_atom_site_type_symbol
_atom_site_description
_atom_site_fract_x
_atom_site_fract_y
_atom_site_fract_z
_atom_type_partial_charge
O1    O     O_R   0.500000 0.319640 0.618810 -0.579370
O2    O     O_R   0.500010 0.319680 0.381230 -0.577306
C1    C     C_R   0.502977 0.262555 0.500246 0.843232
O3    O     O_R   0.317690 0.499960 0.618790 -0.577625
O4    O     O_R   0.317700 0.500000 0.381210 -0.605882
C2    C     C_R   0.260006 0.498359 0.500506 0.922801
Cu1   Cu    Cu3+1 0.499990 0.499980 0.640670 1.023738
Cu2   Cu    Cu3+1 0.500010 0.500020 0.359330 1.030441
O5    O     O_R   0.499990 0.680320 0.618770 -0.574797
O6    O     O_R   0.500000 0.680360 0.381190 -0.589709
O7    O     O_R   0.682300 0.500000 0.618790 -0.567712
O8    O     O_R   0.682310 0.500040 0.381210 -0.515375
C3    C     C_R   0.500003 0.737834 0.500061 0.843833
C4    C     C_R   0.740213 0.497638 0.499934 0.853495
C5    C     C_3   0.070487 0.498453 0.653882 -0.351284
H1    H     H_    0.101088 0.584216 0.707279 0.227873
H2    H     H_    0.108096 0.420757 0.716948 0.241047
C6    C     C_3   0.928131 0.494589 0.653609 0.408803
H3    H     H_    0.892567 0.577097 0.710368 0.125424
H4    H     H_    0.893218 0.696422 0.478807 0.220095
C7    C     C_3   0.072113 0.611790 0.423483 0.437707
C8    C     C_3   0.073241 0.379533 0.422462 0.023601
C9    C     C_3   0.122185 0.495934 0.501324 -0.255398
H5    H     H_    0.104120 0.387736 0.311038 0.163016
C10   C     C_3   0.878395 0.495143 0.500458 -0.219287
C11   C     C_3   0.928754 0.612080 0.425376 -0.473577
C12   C     C_3   0.928670 0.378109 0.424374 0.426098
H6    H     H_    0.892989 0.294293 0.478793 0.183246
H7    H     H_    0.105218 0.611610 0.312705 0.133441
H8    H     H_    0.895336 0.615021 0.315855 0.281218
C13   C     C_R   0.497876 0.064415 0.626314 0.002837
C14   C     C_R   0.514628 0.129751 0.501614 -0.030816
C15   C     C_R   0.544349 0.064894 0.378809 -0.127298
H9    H     H_    0.564633 0.113088 0.281767 0.180515
C16   C     C_R   0.541688 0.936290 0.378834 -0.119234
H10   H     H_    0.561548 0.888575 0.282247 0.172462
C17   C     C_R   0.508345 0.871367 0.501091 -0.103869
C18   C     C_R   0.493195 0.937061 0.626131 -0.016207
C19   C     C_3   0.388911 0.938379 0.732035 0.811922
C20   C     C_3   0.397824 0.078186 0.734223 -0.475594
H11   H     H_    0.314649 0.127571 0.694002 0.231595
H12   H     H_    0.434704 0.115214 0.834106 0.213947
C21   C     C_R   0.598807 0.546656 0.072500 0.266162
N1    N     N_R   0.500800 0.500930 0.147930 -0.235013
C22   C     C_R   0.408382 0.443110 0.075304 -0.052185
H13   H     H_    0.333200 0.398601 0.131612 0.165201
C23   C     C_R   0.408214 0.443357 0.926457 -0.029626
H14   H     H_    0.332835 0.399225 0.871564 0.147519
N2    N     N_R   0.500800 0.500890 0.852020 -0.187162
C24   C     C_R   0.599718 0.544781 0.925009 0.209137
C25   C     C_3   0.650907 0.671762 0.914475 -0.494552
C26   C     C_3   0.644180 0.676764 0.072790 0.411985
H15   H     H_    0.747418 0.672266 0.872384 0.224425
H16   H     H_    0.587161 0.737259 0.862408 0.239410
H17   H     H_    0.574475 0.743421 0.113209 0.112479
F1    F     F_    0.885539 0.373744 0.287762 -0.631849
N3    N     N_R   0.270555 0.893107 0.677798 0.143172
O9    O     O_R   0.225259 0.937017 0.561686 -0.252506
O10   O     O_R   0.206937 0.812271 0.749130 -0.265200
F2    F     F_    0.420531 0.885368 0.859000 -0.671184
F3    F     F_    0.760360 0.687270 0.132050 -0.637478
F4    F     F_    0.887602 0.390392 0.725455 -0.610275
F5    F     F_    0.115733 0.718609 0.484897 -0.577743
N4    N     N_R   0.124979 0.263958 0.478406 0.118905
O11   O     O_R   0.202146 0.199703 0.402394 -0.325302
O12   O     O_R   0.089387 0.220456 0.599389 -0.310369

loop_
_geom_bond_atom_site_label_1
_geom_bond_atom_site_label_2
_geom_bond_distance
_ccdc_geom_bond_type
C7    H7    1.113711 S    
C5    C6    1.531790 S    
C25   H15   1.110581 S    
C21   N1    1.365607 A    
C26   H17   1.108379 S    
C21   C24   1.408380 A    
C5    H2    1.110742 S    
C17   C18   1.400400 A    
C10   C12   1.557755 S    
C3    C17   1.450131 S    
C13   C14   1.394072 A    
C13   C18   1.381163 A    
Cu2   O8    1.973225 S    
C25   H16   1.105143 S    
C14   C15   1.403698 A    
C5    C9    1.555882 S    
C24   C25   1.486030 S    
Cu1   Cu2   2.686151 S    
C23   N2    1.369484 A    
C22   H13   1.081455 S    
N4    O11   1.301237 A    
Cu1   O7    1.970520 S    
N3    O9    1.302191 A    
O4    C2    1.293464 A    
C6    C10   1.560405 S    
H4    C11   1.113893 S    
O3    Cu1   1.973226 S    
C2    C9    1.482578 S    
C20   H12   1.111796 S    
C20   H11   1.111556 S    
C16   C17   1.405752 A    
C7    C11   1.541877 S    
O8    C4    1.297211 A    
C11   H8    1.108363 S    
O2    C1    1.292789 A    
C26   F3    1.380255 S    
C7    C9    1.554137 S    
C4    C10   1.486443 S    
C1    C14   1.444417 S    
O7    C4    1.291108 A    
C8    H5    1.115650 S    
C21   C26   1.492992 S    
N3    O10   1.300631 A    
O4    Cu2   1.970519 S    
C7    F5    1.383593 S    
C19   F2    1.383988 S    
C19   C20   1.518531 S    
C8    N4    1.469875 S    
C5    H1    1.112957 S    
C19   N3    1.463716 S    
C23   H14   1.081521 S    
Cu2   N1    2.018341 S    
C8    C12   1.555022 S    
C15   H9    1.083223 S    
C13   C20   1.492346 S    
Cu1   N2    2.018045 S    
Cu2   O6    1.966138 S    
N2    C24   1.363102 A    
C22   C23   1.421157 A    
O2    Cu2   1.964820 S    
C12   H6    1.112606 S    
Cu1   O5    1.964822 S    
O5    C3    1.291683 A    
C12   F1    1.388312 S    
C6    H3    1.112863 S    
C15   C16   1.394034 A    
C10   C11   1.550725 S    
O1    Cu1   1.966138 S    
O3    C2    1.292397 A    
O6    C3    1.296403 A    
C8    C9    1.565105 S    
C6    F4    1.388701 S    
N1    C22   1.369732 A    
C25   C26   1.513928 S    
N4    O12   1.301634 A    
O1    C1    1.291974 A    
C16   H10   1.078633 S    
C18   C19   1.505096 S    
