data_mof_unit_42902.cif
_audit_creation_date              2012-12-10T17:47:46-0500
_audit_creation_method            fapswitch 2.2
_symmetry_space_group_name_H-M    P1
_symmetry_Int_Tables_number       1
_space_group_crystal_system       triclinic
_cell_length_a                    14.698599
_cell_length_b                    14.579002
_cell_length_c                    14.35084
_cell_angle_alpha                 77.50775
_cell_angle_beta                  102.176796
_cell_angle_gamma                 114.375422
_cell_volume                      2709.10188923

loop_
_atom_site_label
_atom_site_type_symbol
_atom_type_description
_atom_site_fract_x
_atom_site_fract_y
_atom_site_fract_z
_atom_type_partial_charge
C1    C     C_R   0.880669 0.311770 0.518144 0.800612
C2    C     C_R   0.119438 0.688488 0.485046 0.814410
C3    C     C_R   0.641959 0.074524 0.508303 0.097207
C4    C     C_R   0.362535 0.919913 0.474691 0.092522
C5    C     C_R   0.678122 0.999268 0.560254 0.059121
C6    C     C_R   0.327101 0.994738 0.419915 0.059412
C7    C     C_R   0.536857 0.046736 0.474675 0.065327
C8    C     C_R   0.468429 0.945375 0.501728 0.064223
C9    C     C_R   0.508436 0.872995 0.554163 -0.124707
C10   C     C_R   0.497856 0.117014 0.415464 -0.137229
C11   C     C_R   0.611267 0.899250 0.580600 -0.133469
C12   C     C_R   0.395068 0.091603 0.389858 -0.133627
C13   C     C_R   0.705972 0.648049 0.324045 0.314174
C14   C     C_R   0.293116 0.347361 0.670748 0.348470
C15   C     C_R   0.791510 0.625654 0.359446 0.022514
C16   C     C_R   0.209309 0.373484 0.639710 0.052140
C17   C     C_R   0.715436 0.513141 0.491730 0.030391
C18   C     C_R   0.282892 0.485644 0.505993 0.028342
C19   C     C_R   0.627064 0.534670 0.461894 -0.084260
C20   C     C_R   0.370130 0.461884 0.532247 -0.086028
C21   C     C_R   0.628033 0.613137 0.382787 -0.097799
C22   C     C_R   0.368850 0.381717 0.609629 -0.111547
C23   C     C_R   0.999913 0.499940 0.668896 0.801559
C24   C     C_R   0.000085 0.500062 0.331107 0.823543
C25   C     C_R   0.538853 0.481130 0.508461 0.033652
C26   C     C_R   0.457445 0.514412 0.483953 0.035997
C27   C     C_R   0.468549 0.603146 0.416659 -0.266076
C28   C     C_R   0.526643 0.390612 0.573258 -0.258305
C29   C     C_R   0.552732 0.653968 0.367973 0.447630
C30   C     C_R   0.441701 0.338615 0.620534 0.457832
C31   C     C_1   0.999803 0.499936 0.771206 -0.157749
C32   C     C_1   0.000190 0.500078 0.228794 -0.161575
C33   C     C_1   0.999831 0.499949 0.856615 0.035613
C34   C     C_1   0.000154 0.500078 0.143380 0.035147
C35   C     C_1   0.999937 0.499995 0.957286 0.048441
C36   C     C_1   0.000043 0.500041 0.042708 0.049302
C37   C     C_R   0.813949 0.202902 0.533416 -0.171088
C38   C     C_R   0.186868 0.797449 0.470749 -0.171830
C39   C     C_R   0.780696 0.025104 0.595140 -0.140857
C40   C     C_R   0.223556 0.972202 0.394856 -0.134368
C41   C     C_R   0.848346 0.126195 0.585388 0.418304
C42   C     C_R   0.153008 0.875428 0.421822 0.407548
C43   C     C_R   0.711826 0.175795 0.495470 -0.258700
C44   C     C_R   0.290450 0.821978 0.499561 -0.259377
Cu1   Cu    Cu3+1 0.081740 0.475690 0.523180 0.972039
Cu2   Cu    Cu3+1 0.918260 0.524310 0.476820 0.963779
H1    H     H_    0.638397 0.841066 0.620144 0.153746
H2    H     H_    0.368565 0.148593 0.345982 0.155610
H3    H     H_    0.414492 0.638111 0.404385 0.184163
H4    H     H_    0.579581 0.354528 0.582984 0.182159
H5    H     H_    0.312722 0.761950 0.540529 0.171564
H6    H     H_    0.688084 0.236348 0.458798 0.174795
H7    H     H_    0.807729 0.967063 0.635333 0.171723
H8    H     H_    0.196927 0.030502 0.354592 0.171951
H9    H     H_    0.463075 0.794260 0.575004 0.145954
H10   H     H_    0.544567 0.192729 0.386628 0.147167
H11   H     H_    0.274208 0.538921 0.443359 0.142284
H12   H     H_    0.723330 0.460557 0.555370 0.139828
H13   H     H_    0.149329 0.345421 0.683733 0.172232
H14   H     H_    0.853221 0.654609 0.317459 0.164187
N1    N     N_R   0.795420 0.560790 0.441960 -0.204887
N2    N     N_R   0.204580 0.439210 0.558040 -0.210192
O1    O     O_R   0.977910 0.338120 0.530560 -0.558947
O2    O     O_R   0.022090 0.661880 0.469440 -0.570498
O3    O     O_R   0.839850 0.379180 0.491410 -0.576980
O4    O     O_R   0.160150 0.620820 0.508590 -0.577668
O5    O     O_R   0.069040 0.479460 0.643530 -0.561902
O6    O     O_R   0.930960 0.520540 0.356470 -0.556016
O7    O     O_R   0.930990 0.520530 0.604380 -0.561683
O8    O     O_R   0.069010 0.479470 0.395620 -0.556062
O9    O     O_3   0.052644 0.859888 0.396621 -0.699055
H15   H     H_    0.019019 0.823373 0.454417 0.344920
O10   O     O_3   0.945581 0.146639 0.630869 -0.684854
H16   H     H_    0.966387 0.207555 0.662519 0.327018
S1    S     S_3+6 0.571551 0.780705 0.311924 0.052536
O11   O     O_2   0.681677 0.847821 0.326331 -0.252243
O12   O     O_2   0.532603 0.783213 0.206264 -0.182193
O13   O     O_3   0.507974 0.826609 0.361240 -0.570055
H17   H     H_    0.524320 0.897616 0.328572 0.382384
S2    S     S_3+6 0.417354 0.208553 0.666958 0.053833
O14   O     O_2   0.459052 0.197312 0.771867 -0.186864
O15   O     O_2   0.305898 0.146408 0.653346 -0.249298
O16   O     O_3   0.473913 0.164027 0.607479 -0.568202
H18   H     H_    0.455129 0.091258 0.635104 0.379511
S3    S     S_3+6 0.687160 0.685100 0.197555 0.085043
O17   O     O_2   0.577090 0.639918 0.159041 -0.197312
O18   O     O_2   0.726023 0.799041 0.172860 -0.196864
O19   O     O_3   0.749373 0.641411 0.143529 -0.512976
H19   H     H_    0.817049 0.696444 0.139731 0.353348
S4    S     S_3+6 0.312890 0.302803 0.795538 0.067013
O20   O     O_2   0.267724 0.188523 0.813841 -0.187293
O21   O     O_2   0.423703 0.341209 0.832479 -0.232775
O22   O     O_3   0.256292 0.346923 0.855558 -0.547596
H20   H     H_    0.270710 0.320259 0.924226 0.388781

loop_
_geom_bond_atom_site_label_1
_geom_bond_atom_site_label_2
_ccdc_geom_bond_type
C7    C10   A    
O22   H20   S    
C27   C29   A    
C15   H14   S    
C23   O7    A    
C11   H1    S    
C35   C36   T    
C4    C8    A    
C24   O8    A    
C7    C8    A    
C39   C41   A    
S3    O17   D    
C25   C28   A    
C38   C44   A    
C3    C43   A    
C26   C27   A    
C19   C21   A    
C5    C11   A    
C3    C7    A    
C6    C12   A    
C33   C35   S    
C43   H6    S    
Cu1   N2    S    
O10   H16   S    
C23   O5    A    
C14   S4    S    
Cu2   O7    S    
C17   N1    A    
C28   H4    S    
C8    C9    A    
Cu1   O5    S    
C1    O3    A    
C31   C33   T    
C9    H9    S    
C10   H10   S    
C18   C20   A    
C1    C37   S    
C17   H12   S    
C30   S2    S    
C40   C42   A    
C16   N2    A    
S2    O16   S    
C1    O1    A    
C2    O2    A    
S3    O18   D    
Cu2   N1    S    
C6    C40   A    
Cu2   O3    S    
C4    C6    A    
O13   H17   S    
C18   N2    A    
C4    C44   A    
C2    O4    A    
C25   C26   A    
Cu1   Cu2   S    
C21   C29   A    
Cu1   O1    S    
Cu2   O2    S    
C16   H13   S    
C23   C31   S    
C37   C43   A    
S1    O11   D    
C24   C32   S    
Cu2   O6    S    
S1    O12   D    
C2    C38   S    
C18   H11   S    
S4    O21   D    
O16   H18   S    
C15   N1    A    
C13   C21   A    
C9    C11   A    
C10   C12   A    
C44   H5    S    
S2    O15   D    
C20   C22   A    
C40   H8    S    
C13   C15   A    
C14   C16   A    
S4    O22   S    
S3    O19   S    
C22   C30   A    
Cu1   O8    S    
S2    O14   D    
C3    C5    A    
C38   C42   A    
C29   S1    S    
C14   C22   A    
C5    C39   A    
O9    H15   S    
S4    O20   D    
C39   H7    S    
C20   C26   A    
C28   C30   A    
C42   O9    S    
C17   C19   A    
C12   H2    S    
C34   C36   S    
C37   C41   A    
C19   C25   A    
S1    O13   S    
C24   O6    A    
C41   O10   S    
O19   H19   S    
C13   S3    S    
Cu1   O4    S    
C27   H3    S    
C32   C34   T    
