data_mof_unit_11612.cif
_audit_creation_date              2012-12-10T17:22:08-0500
_audit_creation_method            fapswitch 2.2
_symmetry_space_group_name_H-M    P1
_symmetry_Int_Tables_number       1
_space_group_crystal_system       triclinic
_cell_length_a                    10.122573
_cell_length_b                    10.828944
_cell_length_c                    15.738157
_cell_angle_alpha                 89.576985
_cell_angle_beta                  82.260794
_cell_angle_gamma                 95.346123
_cell_volume                      1701.66858589

loop_
_atom_site_label
_atom_site_type_symbol
_atom_type_description
_atom_site_fract_x
_atom_site_fract_y
_atom_site_fract_z
_atom_type_partial_charge
C1    C     C_R   0.556116 0.732533 0.492496 0.939178
C2    C     C_3   0.376918 0.548006 0.055434 0.034064
C3    C     C_3   0.512197 0.507583 0.081729 0.010723
C4    C     C_3   0.533399 0.374406 0.048649 -0.450852
C5    C     C_3   0.554174 0.372179 0.947873 0.625032
C6    C     C_1   0.503220 0.507931 0.174102 -0.074867
C7    C     C_1   0.508911 0.498095 0.824739 -0.062845
C8    C     C_1   0.504963 0.497886 0.749852 -0.214536
C9    C     C_2   0.587801 0.864537 0.481864 -0.382377
C10   C     C_2   0.487017 0.934239 0.478061 -0.153028
C11   C     C_2   0.411739 0.135593 0.499156 -0.383314
C12   C     C_R   0.501190 0.499074 0.661472 0.905730
C13   C     C_2   0.511858 0.066131 0.475783 -0.152077
C14   C     C_2   0.927804 0.510884 0.506518 -0.123230
C15   C     C_2   0.072470 0.490325 0.492606 -0.128892
C16   C     C_R   0.443786 0.267490 0.503659 0.943515
C17   C     C_R   0.499079 0.501185 0.338468 0.905863
C18   C     C_3   0.368676 0.518248 0.960674 -0.441457
C19   C     C_3   0.612048 0.611488 0.939168 0.271566
C20   C     C_3   0.634346 0.600108 0.036878 0.591118
C21   C     C_1   0.498423 0.505459 0.249760 -0.207497
C22   C     C_3   0.511585 0.499547 0.916232 0.041334
H1    H     H_    0.382490 0.650796 0.057540 0.141362
H2    H     H_    0.299566 0.434689 0.953132 0.208027
H3    H     H_    0.619446 0.339119 0.074050 0.165062
H4    H     H_    0.615049 0.105894 0.459511 0.188937
H5    H     H_    0.383541 0.894561 0.481719 0.189484
H6    H     H_    0.308865 0.095296 0.515528 0.149926
H7    H     H_    0.690991 0.904704 0.478317 0.149736
H8    H     H_    0.107860 0.422815 0.446398 0.163667
H9    H     H_    0.892597 0.579218 0.552134 0.161960
H10   H     H_    0.120622 0.614471 0.577953 0.161694
H11   H     H_    0.327350 0.596360 0.929744 0.199489
H12   H     H_    0.879130 0.384568 0.422716 0.156498
H13   H     H_    0.711817 0.605664 0.900092 0.142622
H14   H     H_    0.447966 0.310376 0.076675 0.192360
N1    N     N_2   0.842720 0.448890 0.465540 -0.199794
N2    N     N_2   0.157250 0.551040 0.534500 -0.195966
O1    O     O_R   0.431050 0.692470 0.506940 -0.613288
O2    O     O_R   0.651130 0.659650 0.484820 -0.613472
O3    O     O_R   0.389910 0.516410 0.633920 -0.604800
O4    O     O_R   0.609990 0.483590 0.611800 -0.606814
O5    O     O_R   0.348870 0.340350 0.515180 -0.612412
O6    O     O_R   0.568950 0.307530 0.493060 -0.611555
O7    O     O_R   0.390010 0.516410 0.388200 -0.611781
O8    O     O_R   0.610090 0.483590 0.366080 -0.619805
Zn1   Zn    Zn3+2 0.353060 0.521920 0.514770 0.938815
Zn2   Zn    Zn3+2 0.646940 0.478080 0.485230 0.928925
N3    N     N_2   0.254102 0.506230 0.112548 -0.282483
H15   H     H_    0.240650 0.557291 0.167588 0.227754
C23   C     C_3   0.209809 0.375890 0.127509 -0.780352
H16   H     H_    0.103283 0.366332 0.156844 0.220657
H17   H     H_    0.268351 0.334698 0.173375 0.236889
H18   H     H_    0.215462 0.324062 0.067172 0.242379
O9    O     O_3   0.562296 0.727424 0.923259 -0.664595
C24   C     C_3   0.593545 0.769235 0.836453 0.103136
H19   H     H_    0.499505 0.759659 0.806874 0.166616
H20   H     H_    0.668339 0.717113 0.796658 0.119813
C25   C     C_3   0.647822 0.905853 0.832837 -0.372405
H21   H     H_    0.579061 0.959553 0.875560 0.233285
H22   H     H_    0.747382 0.914942 0.855596 0.214957
C26   C     C_3   0.662485 0.959627 0.741710 -0.960473
H23   H     H_    0.731537 0.907502 0.697787 0.263233
H24   H     H_    0.704096 0.058230 0.740993 0.264106
H25   H     H_    0.563422 0.954952 0.718291 0.271471
N4    N     N_2   0.636373 0.722289 0.077115 -0.302259
H26   H     H_    0.548816 0.750943 0.108392 0.199135
C27   C     C_3   0.735364 0.822134 0.042822 -0.737012
H27   H     H_    0.686781 0.892008 0.009180 0.246028
H28   H     H_    0.817616 0.787426 0.998125 0.257098
H29   H     H_    0.778561 0.869574 0.096419 0.208228
O10   O     O_3   0.763559 0.553864 0.035608 -0.651831
C28   C     C_3   0.806482 0.522511 0.115046 0.125559
H30   H     H_    0.896592 0.471916 0.097873 0.163082
H31   H     H_    0.736481 0.454731 0.154888 0.127216
C29   C     C_3   0.849009 0.634183 0.168086 -0.351187
H32   H     H_    0.919148 0.701554 0.126656 0.234268
H33   H     H_    0.760052 0.679636 0.196262 0.238308
C30   C     C_3   0.918389 0.594250 0.242678 -0.961834
H34   H     H_    0.012315 0.553804 0.218494 0.260464
H35   H     H_    0.942984 0.675915 0.281879 0.268129
H36   H     H_    0.852229 0.524198 0.284089 0.286170
N5    N     N_2   0.472336 0.269808 0.912399 -0.320571
H37   H     H_    0.496494 0.257530 0.847391 0.235659
C31   C     C_3   0.425146 0.154789 0.959566 -0.905312
H38   H     H_    0.335574 0.167803 0.006095 0.252253
H39   H     H_    0.503819 0.119749 0.993186 0.234562
H40   H     H_    0.393380 0.082866 0.914601 0.253428
O11   O     O_3   0.693040 0.370120 0.915568 -0.650977
C32   C     C_3   0.743398 0.253267 0.922037 0.100344
H41   H     H_    0.708419 0.190684 0.872354 0.159484
H42   H     H_    0.713678 0.208931 0.986335 0.124934
C33   C     C_3   0.896292 0.271998 0.906432 -0.306633
H43   H     H_    0.929547 0.316214 0.842190 0.230928
H44   H     H_    0.932644 0.334835 0.955652 0.232525
C34   C     C_3   0.958055 0.149196 0.910880 -1.004980
H45   H     H_    0.925256 0.102562 0.974330 0.262597
H46   H     H_    0.068960 0.166791 0.901765 0.276891
H47   H     H_    0.928107 0.087154 0.859517 0.269292

loop_
_geom_bond_atom_site_label_1
_geom_bond_atom_site_label_2
_ccdc_geom_bond_type
C10   H5    S    
N4    C27   S    
O9    C24   S    
C4    H14   S    
C33   H43   S    
C2    C18   S    
H12   N1    S    
C28   H30   S    
C19   C20   S    
C29   C30   S    
C14   H9    S    
C3    C6    S    
C4    H3    S    
C7    C8    T    
C31   H38   S    
C26   H23   S    
C32   C33   S    
C18   H2    S    
C20   N4    S    
C29   H33   S    
C5    N5    S    
C34   H47   S    
C24   H19   S    
C12   O4    A    
C1    O2    A    
C5    C22   S    
C27   H27   S    
N3    C23   S    
C34   H46   S    
C26   H24   S    
H10   N2    S    
C9    C10   D    
C16   O6    A    
C9    H7    S    
C31   H39   S    
N4    H26   S    
C25   H21   S    
C33   H44   S    
C28   H31   S    
O7    Zn1   S    
O8    Zn2   S    
C25   H22   S    
C23   H16   S    
C19   C22   S    
C1    C9    S    
C17   O8    A    
C30   H35   S    
C4    C5    S    
C6    C21   T    
C17   C21   S    
C23   H17   S    
C15   N2    D    
C12   O3    A    
C2    N3    S    
C11   C16   S    
C32   H42   S    
N5    H37   S    
C8    C12   S    
C34   H45   S    
O3    Zn1   S    
C3    C20   S    
O4    Zn2   S    
C29   H32   S    
N1    Zn2   S    
C16   O5    A    
N2    Zn1   S    
N5    C31   S    
C33   C34   S    
C28   C29   S    
C13   H4    S    
C3    C4    S    
C15   H8    S    
O1    Zn1   S    
C31   H40   S    
C19   O9    S    
O2    Zn2   S    
C25   C26   S    
C26   H25   S    
C18   C22   S    
C17   O7    A    
O10   C28   S    
C10   C13   S    
C30   H36   S    
C7    C22   S    
C24   C25   S    
C23   H18   S    
C2    C3    S    
C19   H13   S    
C14   N1    D    
C11   C13   D    
C32   H41   S    
C11   H6    S    
C27   H29   S    
C24   H20   S    
C18   H11   S    
C1    O1    A    
C30   H34   S    
C27   H28   S    
N3    H15   S    
C2    H1    S    
C14   C15   S    
C20   O10   S    
O11   C32   S    
O5    Zn1   S    
C5    O11   S    
O6    Zn2   S    
