data_mof_unit_28411.cif
_audit_creation_date              2012-12-10T19:11:30-0500
_audit_creation_method            fapswitch 2.2
_symmetry_space_group_name_H-M    P1
_symmetry_Int_Tables_number       1
_space_group_crystal_system       triclinic
_cell_length_a                    7.784125
_cell_length_b                    9.091058
_cell_length_c                    17.370506
_cell_angle_alpha                 89.995654
_cell_angle_beta                  86.656222
_cell_angle_gamma                 89.998451
_cell_volume                      1227.14731077

loop_
_atom_site_label
_atom_site_type_symbol
_atom_type_description
_atom_site_fract_x
_atom_site_fract_y
_atom_site_fract_z
_atom_type_partial_charge
C1    C     C_R   0.500001 0.779968 0.499978 0.850207
C2    C     C_R   0.500004 0.220033 0.499984 0.845708
C3    C     C_1   0.500003 0.934625 0.499967 -0.177523
C4    C     C_1   0.500008 0.065381 0.499968 -0.178097
C5    C     C_R   0.478725 0.500963 0.650268 0.814903
C6    C     C_R   0.521060 0.496986 0.349772 0.811031
C7    C     C_R   0.468184 0.502391 0.734486 -0.098738
C8    C     C_R   0.529110 0.480547 0.266008 -0.094761
C9    C     C_R   0.618759 0.499779 0.774856 -0.199945
C10   C     C_R   0.377161 0.487402 0.226784 -0.203859
C11   C     C_R   0.608639 0.500463 0.854861 -0.210047
C12   C     C_R   0.381606 0.465916 0.147808 -0.238393
C13   C     C_R   0.447817 0.501426 0.895688 0.066256
C14   C     C_R   0.538280 0.436847 0.106389 0.084634
C15   C     C_R   0.295886 0.503750 0.855380 0.489586
C16   C     C_R   0.689492 0.419096 0.146357 0.490847
C17   C     C_R   0.307463 0.507389 0.775068 -0.268489
C18   C     C_R   0.685174 0.447264 0.225497 -0.269187
C19   C     C_2   0.438037 0.506548 0.980053 -0.209906
C20   C     C_2   0.545499 0.428279 0.021727 -0.214449
Cu1   Cu    Cu3+1 0.330920 0.500000 0.500000 0.997431
Cu2   Cu    Cu3+1 0.669080 0.500000 0.500000 0.997614
N1    N     N_1   0.923170 0.500000 0.500010 -0.054286
N2    N     N_1   0.076830 0.500000 0.499990 -0.054278
O1    O     O_R   0.357240 0.711600 0.500000 -0.576937
O2    O     O_R   0.642760 0.288400 0.500000 -0.578940
O3    O     O_R   0.642760 0.711600 0.500000 -0.576173
O4    O     O_R   0.357240 0.288400 0.500000 -0.577908
O5    O     O_R   0.340660 0.500000 0.613590 -0.590325
O6    O     O_R   0.659340 0.500000 0.386410 -0.589934
O7    O     O_R   0.626230 0.500000 0.613600 -0.588969
O8    O     O_R   0.373770 0.500000 0.386400 -0.590347
O9    O     O_3   0.134853 0.511840 0.893239 -0.624566
C21   C     C_3   0.081251 0.370248 0.918601 0.025062
H1    H     H_    0.968014 0.386751 0.959341 0.204208
H2    H     H_    0.180582 0.313161 0.951307 0.144684
C22   C     C_3   0.026703 0.273178 0.851767 -0.396161
H3    H     H_    0.941129 0.336355 0.815017 0.228768
H4    H     H_    0.142295 0.238913 0.815659 0.218230
C23   C     C_3   0.932561 0.135295 0.881329 -0.891029
H5    H     H_    0.015965 0.070161 0.918345 0.255888
H6    H     H_    0.898790 0.066192 0.831721 0.268060
H7    H     H_    0.812007 0.165549 0.914943 0.243628
O10   O     O_3   0.844186 0.382839 0.107834 -0.638622
C24   C     C_3   0.864354 0.227794 0.107277 -0.003889
H8    H     H_    0.934671 0.197402 0.052243 0.166719
H9    H     H_    0.739919 0.166229 0.108463 0.133687
C25   C     C_3   0.971837 0.177611 0.173651 -0.346719
H10   H     H_    0.091277 0.244434 0.174033 0.231476
H11   H     H_    0.897403 0.193398 0.229506 0.210772
C26   C     C_3   0.020509 0.015450 0.165724 -0.882829
H12   H     H_    0.902902 0.946181 0.165814 0.260020
H13   H     H_    0.096534 0.982110 0.214984 0.257172
H14   H     H_    0.099776 0.996661 0.111333 0.253855
H15   H     H_    0.261439 0.471067 0.119581 0.172244
H16   H     H_    0.726645 0.503686 0.884792 0.180508
H17   H     H_    0.744462 0.498898 0.744661 0.166898
H18   H     H_    0.254239 0.509538 0.257047 0.172765
H19   H     H_    0.803233 0.440123 0.255327 0.163105
H20   H     H_    0.189894 0.512202 0.744702 0.170600
H21   H     H_    0.644880 0.361081 0.992872 0.161890
H22   H     H_    0.338356 0.574972 0.007752 0.186848

loop_
_geom_bond_atom_site_label_1
_geom_bond_atom_site_label_2
_ccdc_geom_bond_type
C6    O8    A    
N1    N2    T    
C5    C7    S    
C22   H3    S    
C21   C22   S    
C11   C13   A    
C16   O10   S    
C2    C4    S    
C19   C20   D    
C26   H14   S    
C1    O3    A    
C25   H11   S    
O9    C21   S    
C26   H13   S    
C2    O2    A    
Cu1   Cu2   S    
C15   O9    S    
C1    O1    A    
C9    C11   A    
C19   H22   S    
C10   C12   A    
C24   C25   S    
C16   C18   A    
C23   H5    S    
C10   H18   S    
Cu1   O4    S    
C12   C14   A    
C22   C23   S    
C21   H2    S    
Cu2   O3    S    
C13   C15   A    
C22   H4    S    
Cu1   O8    S    
C14   C16   A    
Cu1   N2    S    
C25   C26   S    
C12   H15   S    
C2    O4    A    
Cu2   O7    S    
C13   C19   S    
C17   H20   S    
C3    C4    T    
C5    O5    A    
C14   C20   S    
C18   H19   S    
O10   C24   S    
C9    H17   S    
C7    C9    A    
C21   H1    S    
Cu2   O2    S    
C24   H9    S    
C20   H21   S    
C15   C17   A    
Cu1   O1    S    
Cu2   N1    S    
C25   H10   S    
C6    C8    S    
Cu2   O6    S    
C5    O7    A    
C24   H8    S    
Cu1   O5    S    
C6    O6    A    
C23   H7    S    
C8    C18   A    
C11   H16   S    
C26   H12   S    
C8    C10   A    
C23   H6    S    
C1    C3    S    
C7    C17   A    
