data_mof_unit_51548.cif
_audit_creation_date              2012-12-10T17:59:18-0500
_audit_creation_method            fapswitch 2.2
_symmetry_space_group_name_H-M    P1
_symmetry_Int_Tables_number       1
_space_group_crystal_system       triclinic
_cell_length_a                    10.839576
_cell_length_b                    9.582287
_cell_length_c                    10.774324
_cell_angle_alpha                 89.289077
_cell_angle_beta                  93.134205
_cell_angle_gamma                 89.965559
_cell_volume                      1117.34582577

loop_
_atom_site_label
_atom_site_type_symbol
_atom_type_description
_atom_site_fract_x
_atom_site_fract_y
_atom_site_fract_z
_atom_type_partial_charge
C1    C     C_R   0.262172 0.499384 0.499328 0.970056
C2    C     C_3   0.619388 0.573737 0.932527 -0.593422
C3    C     C_R   0.069287 0.412066 0.587011 0.373597
C4    C     C_R   0.057127 0.574220 0.410721 0.415602
C5    C     C_R   0.940466 0.417693 0.592219 0.132998
C6    C     C_R   0.929900 0.584624 0.418742 0.142654
C7    C     C_R   0.871045 0.501596 0.505872 -0.275609
C8    C     C_R   0.127747 0.496303 0.499789 -0.338006
C9    C     C_R   0.420652 0.075680 0.420880 0.304988
C10   C     C_R   0.422239 0.927705 0.419700 0.348296
C11   C     C_R   0.578356 0.924610 0.579425 -0.080608
C12   C     C_R   0.579044 0.072956 0.578677 -0.087218
C13   C     C_R   0.502412 0.500254 0.259780 0.838081
C14   C     C_R   0.737455 0.500260 0.503818 0.911824
C15   C     C_R   0.502335 0.498970 0.739972 0.833775
C16   C     C_3   0.383334 0.562719 0.063060 -0.421453
C17   C     C_3   0.514478 0.347083 0.073972 -0.412770
C18   C     C_3   0.387178 0.575569 0.920409 0.379017
C19   C     C_3   0.506337 0.343509 0.930746 0.374873
C20   C     C_3   0.616078 0.582079 0.075588 -0.371067
C21   C     C_3   0.504459 0.499007 0.121312 0.000840
C22   C     C_3   0.502728 0.496679 0.877786 0.018772
Cu1   Cu    Cu3+1 0.500020 0.640660 0.500000 1.016040
Cu2   Cu    Cu3+1 0.500020 0.359340 0.500000 1.021013
H1    H     H_    0.366474 0.667392 0.101089 0.189661
H2    H     H_    0.603370 0.299410 0.109747 0.156328
H3    H     H_    0.641191 0.868199 0.643406 0.152008
H4    H     H_    0.642376 0.127457 0.642081 0.179541
H5    H     H_    0.306239 0.493289 0.086598 0.204189
H6    H     H_    0.438998 0.282729 0.110152 0.243215
H7    H     H_    0.399614 0.688413 0.895568 0.066242
H8    H     H_    0.592218 0.293244 0.899120 0.090397
H9    H     H_    0.609421 0.693188 0.103376 0.228018
H10   H     H_    0.703451 0.538430 0.118969 0.209051
H11   H     H_    0.624685 0.681271 0.892908 0.202499
H12   H     H_    0.704329 0.517702 0.907574 0.223729
N1    N     N_R   0.500030 0.852070 0.500030 -0.202558
N2    N     N_R   0.500030 0.147930 0.500030 -0.201009
O1    O     O_R   0.319660 0.618740 0.499990 -0.544763
O2    O     O_R   0.319660 0.381260 0.499990 -0.543855
O3    O     O_R   0.499990 0.618790 0.317690 -0.539327
O4    O     O_R   0.499990 0.381210 0.317690 -0.567568
O5    O     O_R   0.680370 0.618830 0.500010 -0.553339
O6    O     O_R   0.680370 0.381170 0.500010 -0.563694
O7    O     O_R   0.500030 0.618780 0.682310 -0.624486
O8    O     O_R   0.500030 0.381220 0.682310 -0.550006
O9    O     O_3   0.277437 0.519641 0.862590 -0.500516
C23   C     C_3   0.188835 0.625929 0.838253 -0.258341
H13   H     H_    0.215369 0.692295 0.758660 0.151347
H14   H     H_    0.176244 0.691383 0.921222 0.140864
H15   H     H_    0.098501 0.577017 0.812624 0.224067
O10   O     O_3   0.398793 0.269543 0.888252 -0.488551
C24   C     C_3   0.422088 0.124425 0.888239 -0.247272
H16   H     H_    0.461680 0.085663 0.979687 0.154295
H17   H     H_    0.484577 0.097740 0.813874 0.140674
H18   H     H_    0.333497 0.068929 0.869180 0.186136
O11   O     O_3   0.139458 0.331815 0.672141 -0.499322
C25   C     C_3   0.139023 0.191960 0.631926 -0.098364
H19   H     H_    0.220171 0.137591 0.676947 0.168013
H20   H     H_    0.146381 0.182433 0.529693 0.162097
H21   H     H_    0.054947 0.136941 0.660447 0.178764
O12   O     O_3   0.111635 0.635634 0.311429 -0.505489
C26   C     C_3   0.097366 0.545151 0.209291 -0.194152
H22   H     H_    0.156318 0.450951 0.224993 0.160630
H23   H     H_    0.125517 0.601899 0.125394 0.191644
H24   H     H_    0.999820 0.512474 0.189324 0.170140
Br1   Br    Br    0.862745 0.323806 0.726746 -0.575635
Br2   Br    Br    0.841156 0.712361 0.305712 -0.487419
Br3   Br    Br    0.303293 0.172147 0.309331 -0.513806
Br4   Br    Br    0.314728 0.837310 0.300021 -0.416353

loop_
_geom_bond_atom_site_label_1
_geom_bond_atom_site_label_2
_ccdc_geom_bond_type
C2    H11   S    
C2    C22   S    
Cu2   N2    S    
Cu1   Cu2   S    
C26   H23   S    
O12   C26   S    
Cu1   O7    S    
C7    C14   S    
C1    C8    S    
Cu2   O4    S    
C9    C10   A    
C24   H17   S    
O9    C23   S    
Cu1   O3    S    
C11   H3    S    
C5    Br1   S    
C20   H10   S    
C18   O9    S    
C14   O5    A    
C25   H21   S    
C6    Br2   S    
C25   H19   S    
C26   H24   S    
C13   C21   S    
C16   C18   S    
Cu1   N1    S    
C24   H16   S    
O10   C24   S    
C17   H6    S    
O11   C25   S    
C16   C21   S    
C12   H4    S    
C10   N1    A    
Cu1   O1    S    
C17   H2    S    
C3    O11   S    
C20   H9    S    
C23   H14   S    
C13   O4    A    
C17   C19   S    
C9    Br3   S    
C19   O10   S    
C6    C7    A    
C5    C7    A    
C23   H15   S    
C12   N2    A    
Cu2   O6    S    
C4    C6    A    
C1    O1    A    
C2    C20   S    
C26   H22   S    
C4    O12   S    
C16   H1    S    
C19   C22   S    
Cu1   O5    S    
C20   C21   S    
C10   Br4   S    
C14   O6    A    
C3    C8    A    
C24   H18   S    
C2    H12   S    
C4    C8    A    
C11   N1    A    
C15   O7    A    
C13   O3    A    
C23   H13   S    
C9    N2    A    
C18   H7    S    
C1    O2    A    
Cu2   O2    S    
C16   H5    S    
C18   C22   S    
C15   O8    A    
C25   H20   S    
C19   H8    S    
C15   C22   S    
C17   C21   S    
C11   C12   A    
Cu2   O8    S    
C3    C5    A    
