data_mof_unit_47218.cif
_audit_creation_date              2012-12-11T18:39:57-0500
_audit_creation_method            fapswitch 2.2
_symmetry_space_group_name_H-M    P1
_symmetry_Int_Tables_number       1
_space_group_crystal_system       triclinic
_cell_length_a                    8.221639
_cell_length_b                    14.242748
_cell_length_c                    19.11679
_cell_angle_alpha                 96.995611
_cell_angle_beta                  92.010199
_cell_angle_gamma                 91.465881
_cell_volume                      2219.51370438

loop_
_atom_site_label
_atom_site_type_symbol
_atom_type_description
_atom_site_fract_x
_atom_site_fract_y
_atom_site_fract_z
_atom_type_partial_charge
Ba1   Ba    Ba6+2 0.843770 0.541130 0.463760 1.673773
Ba2   Ba    Ba6+2 0.346040 0.458940 0.536250 1.681097
C1    C     C_3   0.620715 0.891044 0.279378 -0.279180
C2    C     C_3   0.578307 0.793143 0.298937 0.301084
C3    C     C_3   0.510051 0.303646 0.322430 0.344779
C4    C     C_3   0.469716 0.266777 0.245011 0.372672
C5    C     C_3   0.112115 0.252885 0.739117 0.340207
C6    C     C_3   0.161511 0.229173 0.812246 -0.329556
C7    C     C_3   0.592547 0.202664 0.693856 0.379793
C8    C     C_3   0.567213 0.106244 0.718771 -0.339483
C9    C     C_R   0.044872 0.550464 0.798866 -0.147764
C10   C     C_R   0.011820 0.533654 0.724949 0.040655
C11   C     C_R   0.874575 0.414265 0.812865 -0.164492
C12   C     C_3   0.054124 0.733171 0.263230 0.358913
C13   C     C_R   0.804329 0.420396 0.745980 -0.003296
C14   C     C_R   0.319855 0.578970 0.185374 -0.161357
C15   C     C_R   0.392276 0.571723 0.251759 0.010028
C16   C     C_R   0.145819 0.444888 0.200346 -0.144272
C17   C     C_R   0.180641 0.462059 0.274050 0.037882
C18   C     C_R   0.987194 0.485186 0.844823 0.001092
C19   C     C_R   0.884554 0.471683 0.700019 -0.245988
C20   C     C_R   0.204775 0.508964 0.153882 0.000457
C21   C     C_R   0.312222 0.520965 0.298047 -0.245373
C22   C     C_R   0.770008 0.436313 0.960323 -0.094537
C23   C     C_3   0.032208 0.761446 0.189336 -0.328467
C24   C     C_R   0.671912 0.400008 0.008847 -0.066076
C25   C     C_R   0.718066 0.414790 0.079324 -0.005891
C26   C     C_R   0.866822 0.459450 0.099646 -0.081017
C27   C     C_R   0.985874 0.475262 0.050676 0.010416
C28   C     C_R   0.934005 0.466601 0.977282 0.045194
C29   C     C_R   0.149117 0.503501 0.074543 -0.006516
C30   C     C_R   0.257492 0.526701 0.021348 0.044353
C31   C     C_R   0.205381 0.518599 0.948054 0.007576
C32   C     C_R   0.042213 0.490339 0.924156 -0.004879
C33   C     C_R   0.422052 0.555857 0.038196 -0.096849
C34   C     C_3   0.183554 0.753087 0.612668 0.352592
C35   C     C_R   0.520566 0.592106 0.989892 -0.063675
C36   C     C_R   0.473871 0.578375 0.919584 0.024787
C37   C     C_R   0.324282 0.534773 0.899128 -0.067176
C38   C     C_R   0.694622 0.939050 0.540277 -0.032178
C39   C     C_R   0.507822 0.801821 0.499466 0.039155
C40   C     C_R   0.365040 0.766875 0.462590 -0.307951
C41   C     C_R   0.261116 0.827249 0.432021 0.014693
C42   C     C_R   0.306326 0.922049 0.432171 -0.148316
C43   C     C_R   0.453354 0.957820 0.466050 -0.011245
C44   C     C_R   0.553296 0.898931 0.502542 -0.021703
C45   C     C_3   0.160313 0.859108 0.621797 -0.345382
C46   C     C_R   0.641244 0.091860 0.500896 -0.023453
C47   C     C_R   0.741006 0.034206 0.538514 -0.003151
C48   C     C_R   0.686509 0.187819 0.500947 0.016784
C49   C     C_R   0.827097 0.225397 0.537992 -0.288856
C50   C     C_R   0.931202 0.167791 0.571170 0.008188
C51   C     C_R   0.887693 0.072306 0.572494 -0.141938
C52   C     C_R   0.498958 0.052414 0.464715 -0.033928
C53   C     C_3   0.024098 0.246751 0.391206 0.338508
C54   C     C_3   0.054752 0.141244 0.381533 -0.358077
C55   C     C_3   0.684156 0.674536 0.672758 0.343749
C56   C     C_3   0.720584 0.707853 0.751063 0.305366
H1    H     H_    0.613073 0.791995 0.355554 0.056176
H2    H     H_    0.232937 0.893632 0.668763 0.174144
H3    H     H_    0.200218 0.890015 0.574506 0.049263
H4    H     H_    0.028959 0.873130 0.628752 0.100953
H5    H     H_    0.895240 0.257818 0.404329 -0.009993
H6    H     H_    0.105341 0.279473 0.435521 0.067839
H7    H     H_    0.962418 0.103779 0.343648 0.161078
H8    H     H_    0.048004 0.111460 0.432416 0.061043
H9    H     H_    0.178508 0.129376 0.360625 0.114722
H10   H     H_    0.794811 0.642730 0.649891 -0.104704
H11   H     H_    0.584204 0.619979 0.667308 0.070009
H12   H     H_    0.749686 0.911219 0.295040 0.156313
H13   H     H_    0.827609 0.757916 0.757052 0.028115
H14   H     H_    0.749798 0.646025 0.778888 -0.079203
H15   H     H_    0.444635 0.780908 0.290472 -0.053229
H16   H     H_    0.540748 0.944124 0.307169 0.084296
H17   H     H_    0.399531 0.336768 0.344630 -0.120250
H18   H     H_    0.610478 0.357739 0.325576 0.062258
H19   H     H_    0.361622 0.217206 0.241541 0.021724
H20   H     H_    0.438990 0.327206 0.215364 -0.094604
H21   H     H_    0.601852 0.891791 0.221553 0.146883
H22   H     H_    0.128445 0.814555 0.180461 0.117784
H23   H     H_    0.143219 0.328922 0.736507 0.056442
H24   H     H_    0.979029 0.239725 0.731280 -0.052394
H25   H     H_    0.288050 0.255758 0.827183 0.150621
H26   H     H_    0.078286 0.263174 0.851864 0.067144
H27   H     H_    0.153923 0.151064 0.813251 0.136904
H28   H     H_    0.724824 0.215306 0.689804 -0.097163
H29   H     H_    0.532524 0.201440 0.640872 0.078957
H30   H     H_    0.629049 0.051862 0.683322 0.062992
H31   H     H_    0.435260 0.086570 0.717898 0.158641
H32   H     H_    0.974988 0.669948 0.267278 0.098864
H33   H     H_    0.619662 0.107261 0.773385 0.122157
H34   H     H_    0.120732 0.611457 0.819124 0.123910
H35   H     H_    0.834361 0.355983 0.839767 0.071479
H36   H     H_    0.359444 0.637453 0.158484 0.076842
H37   H     H_    0.068063 0.384638 0.180679 0.091329
H38   H     H_    0.841185 0.467865 0.645633 0.068504
H39   H     H_    0.356863 0.524036 0.352206 0.070956
H40   H     H_    0.707816 0.445727 0.911693 0.072377
H41   H     H_    0.550573 0.372348 0.992972 0.088780
H42   H     H_    0.633025 0.398837 0.118531 0.131834
H43   H     H_    0.182861 0.715795 0.271737 -0.069932
H44   H     H_    0.885715 0.482975 0.154178 0.138178
H45   H     H_    0.484335 0.545534 0.086568 0.073701
H46   H     H_    0.642444 0.618883 0.005752 0.091800
H47   H     H_    0.559302 0.594143 0.880615 0.132275
H48   H     H_    0.304805 0.512066 0.844488 0.134881
H49   H     H_    0.329434 0.693050 0.461504 0.068308
H50   H     H_    0.226068 0.967844 0.406882 0.078190
H51   H     H_    0.968811 0.028131 0.598831 0.070753
H52   H     H_    0.861116 0.299151 0.537121 0.059472
H53   H     H_    0.770308 0.897561 0.571246 0.096353
H54   H     H_    0.041769 0.698296 0.149576 0.070454
H55   H     H_    0.420927 0.094452 0.435222 0.097828
H56   H     H_    0.910997 0.792548 0.182319 0.162545
H57   H     H_    0.314548 0.739406 0.606994 0.018973
H58   H     H_    0.112355 0.722508 0.564324 0.034752
O1    O     O_2   0.890230 0.433890 0.328780 -0.435353
O2    O     O_3   0.641200 0.752398 0.638613 -0.618232
O3    O     O_3   0.011514 0.808463 0.312482 -0.596599
O4    O     O_2   0.299470 0.566150 0.671260 -0.439725
O5    O     O_3   0.053110 0.557700 0.582890 -0.505994
O6    O     O_3   0.553300 0.392440 0.634370 -0.471007
O7    O     O_3   0.130399 0.716603 0.672955 -0.595028
O8    O     O_3   0.638180 0.384440 0.468210 -0.483508
O9    O     O_3   0.143740 0.341320 0.600540 -0.485618
O10   O     O_2   0.262698 0.173306 0.557046 -0.488860
O11   O     O_3   0.195013 0.194670 0.688550 -0.586032
O12   O     O_3   0.136580 0.442380 0.417110 -0.504905
O13   O     O_3   0.551510 0.615640 0.531790 -0.497252
O14   O     O_2   0.394780 0.268760 0.474430 -0.465848
O15   O     O_3   0.555201 0.227835 0.358918 -0.619186
O16   O     O_2   0.477596 0.455185 0.759946 -0.496605
O17   O     O_3   0.524908 0.272243 0.741801 -0.587573
O18   O     O_3   0.636390 0.607640 0.365630 -0.472861
O19   O     O_2   0.722325 0.543058 0.241657 -0.500379
O20   O     O_3   0.053805 0.283236 0.327640 -0.605607
O21   O     O_3   0.663239 0.724859 0.256469 -0.594394
O22   O     O_2   0.794910 0.731270 0.525620 -0.465411
O23   O     O_3   0.045950 0.658760 0.399470 -0.495761
O24   O     O_2   0.927072 0.827828 0.442579 -0.482043
P1    P     P_3+3 0.064140 0.407250 0.340900 1.013601
P2    P     P_3+3 0.622060 0.719380 0.547490 0.981854
P3    P     P_3+3 0.061161 0.780979 0.397117 0.951135
P4    P     P_3+3 0.125560 0.592830 0.659110 1.028943
P5    P     P_3+3 0.131068 0.218841 0.604553 0.945566
P6    P     P_3+3 0.601494 0.613261 0.276645 0.935632
P7    P     P_3+3 0.573745 0.266082 0.449269 0.951380
P8    P     P_3+3 0.592143 0.383252 0.722484 0.942950
S1    S     S_3+6 0.550540 0.765209 0.791811 -0.054554
O25   O     O_2   0.411410 0.694488 0.791426 -0.290536
O26   O     O_2   0.597707 0.803905 0.867156 -0.287382
O27   O     O_3   0.490003 0.854824 0.747602 -0.499911
H59   H     H_    0.566566 0.908589 0.763863 0.334449
S2    S     S_3+6 0.636683 0.206405 0.204120 -0.059776
O28   O     O_2   0.692967 0.130038 0.246918 -0.284718
O29   O     O_2   0.583149 0.161452 0.130847 -0.279181
O30   O     O_3   0.791130 0.285315 0.198552 -0.542185
H60   H     H_    0.875278 0.248697 0.172165 0.356420

loop_
_geom_bond_atom_site_label_1
_geom_bond_atom_site_label_2
_ccdc_geom_bond_type
C48   P7    S    
C37   H48   S    
C53   C54   S    
O30   H60   S    
C6    H25   S    
O3    P3    S    
C39   C40   A    
O1    P1    D    
O4    P4    D    
O24   P3    D    
C1    H21   S    
C45   H4    S    
C5    C6    S    
C43   C44   A    
C42   C43   A    
C38   C44   A    
C8    H30   S    
C24   C25   A    
C31   C37   A    
C22   H40   S    
C26   C27   A    
C33   C35   A    
C22   C24   A    
C6    H27   S    
Ba1   O13   S    
S1    O26   D    
C3    C4    S    
C54   H8    S    
C56   H13   S    
C4    H20   S    
C38   C47   A    
C23   H22   S    
C52   H55   S    
Ba2   O13   S    
Ba2   P4    S    
C34   C45   S    
Ba1   Ba2   S    
C1    H16   S    
C12   H32   S    
Ba1   P2    S    
C23   H54   S    
C45   H2    S    
O23   P3    S    
C9    H34   S    
C8    H31   S    
C14   C15   A    
C53   H5    S    
O7    P4    S    
C39   C44   A    
Ba1   O12   S    
O15   P7    S    
O6    P8    S    
C27   C28   A    
C7    C8    S    
S2    O29   D    
Ba1   O23   S    
C56   S1    S    
C24   H41   S    
C18   C32   S    
Ba2   O6    S    
C2    O21   S    
C17   P1    S    
C16   C20   A    
C16   H37   S    
O5    P4    S    
O10   P5    D    
C48   C49   A    
C38   H53   S    
C22   C28   A    
C42   H50   S    
O18   P6    S    
O8    P7    S    
C25   H42   S    
C20   C29   S    
C28   C32   A    
C49   C50   A    
O16   P8    D    
C30   C33   A    
O21   P6    S    
C1    H12   S    
S2    O30   S    
O22   P2    D    
S1    O27   S    
C46   C52   A    
C50   P5    S    
Ba2   O4    S    
C16   C17   A    
C4    H19   S    
O13   P2    S    
O2    P2    S    
C9    C18   A    
C10   P4    S    
C11   H35   S    
C3    H17   S    
C17   C21   A    
C41   C42   A    
C45   H3    S    
C35   C36   A    
O12   P1    S    
C7    H28   S    
C54   H7    S    
C29   C30   A    
C15   C21   A    
C13   C19   A    
O19   P6    D    
C53   H6    S    
C34   O7    S    
C31   C32   A    
S2    O28   D    
O17   P8    S    
Ba1   O1    S    
C2    H15   S    
C4    S2    S    
O11   P5    S    
C46   C47   A    
C21   H39   S    
C8    H33   S    
C49   H52   S    
C11   C13   A    
C40   C41   A    
C55   H10   S    
C1    C2    S    
C34   H58   S    
Ba1   O18   S    
C50   C51   A    
C41   P3    S    
C40   H49   S    
Ba2   O5    S    
C51   H51   S    
C14   C20   A    
C11   C18   A    
C5    H23   S    
O14   P7    D    
C6    H26   S    
C14   H36   S    
C12   H43   S    
C43   C52   A    
C35   H46   S    
C9    C10   A    
C13   P8    S    
C19   H38   S    
Ba2   O8    S    
C54   H9    S    
C33   H45   S    
C5    O11   S    
C30   C31   A    
C36   H47   S    
C15   P6    S    
Ba1   O8    S    
C39   P2    S    
C27   C29   A    
O9    P5    S    
C23   H56   S    
C7    H29   S    
C56   H14   S    
C55   C56   S    
C36   C37   A    
C3    H18   S    
C47   C51   A    
C10   C19   A    
C2    H1    S    
C46   C48   A    
Ba2   O14   S    
O20   P1    S    
C12   C23   S    
Ba1   O5    S    
Ba1   P1    S    
Ba2   O9    S    
C26   H44   S    
C3    O15   S    
C5    H24   S    
O27   H59   S    
C12   O3    S    
C25   C26   A    
C55   H11   S    
S1    O25   D    
C34   H57   S    
Ba1   O22   S    
C53   O20   S    
Ba2   O12   S    
C55   O2    S    
C7    O17   S    
