data_mof_unit_35174.cif
_audit_creation_date              2012-12-10T19:24:57-0500
_audit_creation_method            fapswitch 2.2
_symmetry_space_group_name_H-M    P1
_symmetry_Int_Tables_number       1
_space_group_crystal_system       triclinic
_cell_length_a                    15.710706
_cell_length_b                    10.461142
_cell_length_c                    9.767356
_cell_angle_alpha                 89.596371
_cell_angle_beta                  89.97801
_cell_angle_gamma                 89.667545
_cell_volume                      1605.21682444

loop_
_atom_site_label
_atom_site_type_symbol
_atom_type_description
_atom_site_fract_x
_atom_site_fract_y
_atom_site_fract_z
_atom_type_partial_charge
C1    C     C_R   0.500100 0.257583 0.500559 0.852856
C2    C     C_R   0.500001 0.742427 0.499446 0.854070
C3    C     C_3   0.570695 0.956283 0.563006 -0.174217
C4    C     C_3   0.429544 0.043741 0.437000 -0.167617
C5    C     C_3   0.500067 0.877514 0.498242 0.033264
C6    C     C_3   0.500152 0.122513 0.501794 0.037493
C7    C     C_3   0.430542 0.957591 0.565976 -0.187576
C8    C     C_3   0.569683 0.042476 0.434077 -0.185520
C9    C     C_3   0.445168 0.422348 0.047959 0.641209
C10   C     C_3   0.554763 0.577795 0.952131 0.642515
C11   C     C_3   0.518239 0.386892 0.952082 -0.248189
C12   C     C_3   0.481686 0.613222 0.048056 -0.258536
C13   C     C_3   0.425748 0.534053 0.950979 -0.260640
C14   C     C_3   0.574194 0.466066 0.048889 -0.248620
C15   C     C_R   0.338101 0.499775 0.499927 0.882811
C16   C     C_R   0.661861 0.499691 0.500009 0.882856
C17   C     C_3   0.972885 0.408133 0.587037 0.444865
C18   C     C_3   0.026799 0.583867 0.409350 0.429888
C19   C     C_3   0.028429 0.376918 0.460515 -0.510263
C20   C     C_3   0.971516 0.614951 0.536051 -0.506962
C21   C     C_1   0.249212 0.498185 0.499436 -0.182170
C22   C     C_1   0.750696 0.498327 0.499953 -0.173989
C23   C     C_3   0.027722 0.523658 0.623021 0.508542
C24   C     C_3   0.972046 0.468018 0.373426 0.494117
C25   C     C_3   0.083087 0.494908 0.497207 -0.059591
C26   C     C_3   0.916743 0.497131 0.499365 -0.062984
C27   C     C_1   0.173934 0.496606 0.498263 0.076588
C28   C     C_1   0.825953 0.497300 0.499757 0.081507
C29   C     C_3   0.501177 0.039096 0.630951 -0.144613
C30   C     C_3   0.499069 0.960934 0.369100 -0.136874
H1    H     H_    0.054969 0.282667 0.430489 0.171550
H2    H     H_    0.945476 0.709452 0.566264 0.166128
H3    H     H_    0.628098 0.915444 0.613565 0.138864
H4    H     H_    0.372259 0.084500 0.385958 0.144321
H5    H     H_    0.502082 0.074977 0.737681 0.135135
H6    H     H_    0.498110 0.924904 0.262460 0.145123
H7    H     H_    0.374017 0.917983 0.619349 0.138356
H8    H     H_    0.626179 0.082501 0.381010 0.142640
H9    H     H_    0.532225 0.291932 0.906984 0.144039
H10   H     H_    0.466580 0.707400 0.093939 0.141581
H11   H     H_    0.364142 0.562600 0.904046 0.156444
H12   H     H_    0.636462 0.439264 0.094842 0.159043
N1    N     N_3   0.499940 0.500030 0.863290 -0.105973
N2    N     N_3   0.500060 0.499970 0.136710 -0.106660
O1    O     O_R   0.500000 0.313960 0.616610 -0.640595
O2    O     O_R   0.500000 0.686040 0.383390 -0.638983
O3    O     O_R   0.500040 0.313950 0.383350 -0.584126
O4    O     O_R   0.499960 0.686050 0.616650 -0.586977
O5    O     O_R   0.376760 0.499990 0.616610 -0.624424
O6    O     O_R   0.623240 0.500010 0.383390 -0.626964
O7    O     O_R   0.376790 0.499980 0.383350 -0.576404
O8    O     O_R   0.623210 0.500020 0.616650 -0.571112
Zn1   Zn    Zn3+2 0.499980 0.500010 0.655740 0.981438
Zn2   Zn    Zn3+2 0.500020 0.499990 0.344260 0.979798
O9    O     O_3   0.937156 0.321917 0.682740 -0.638104
C31   C     C_3   0.997335 0.227431 0.721725 0.109160
H13   H     H_    0.992595 0.213693 0.834359 0.153050
H14   H     H_    0.064646 0.254448 0.700204 0.147677
C32   C     C_3   0.976189 0.100692 0.652327 -0.357744
H15   H     H_    0.913006 0.067049 0.688447 0.228607
H16   H     H_    0.972688 0.114836 0.539664 0.226728
C33   C     C_3   0.043157 0.998432 0.684087 -0.966162
H17   H     H_    0.106573 0.029220 0.646324 0.266636
H18   H     H_    0.025984 0.908046 0.632347 0.272925
H19   H     H_    0.046715 0.980222 0.796035 0.267219
O10   O     O_3   0.062653 0.672452 0.316445 -0.638039
C34   C     C_3   0.997448 0.747916 0.257260 0.092025
H20   H     H_    0.959250 0.797068 0.337484 0.140543
H21   H     H_    0.954848 0.687841 0.193744 0.172529
C35   C     C_3   0.037507 0.850213 0.165656 -0.333681
H22   H     H_    0.080273 0.910763 0.228170 0.230537
H23   H     H_    0.076173 0.803702 0.084506 0.226191
C36   C     C_3   0.969705 0.935048 0.098677 -0.999739
H24   H     H_    0.928692 0.877499 0.030264 0.263192
H25   H     H_    0.000890 0.011008 0.036963 0.263288
H26   H     H_    0.929560 0.981445 0.177955 0.272540
O11   O     O_3   0.935105 0.442903 0.244852 -0.609007
C37   C     C_3   0.997734 0.393421 0.156428 -0.331949
H27   H     H_    0.017356 0.295543 0.188806 0.175133
H28   H     H_    0.054112 0.457096 0.149499 0.186571
H29   H     H_    0.970069 0.385864 0.052405 0.194479
O12   O     O_3   0.064523 0.547023 0.752109 -0.606062
C38   C     C_3   0.002606 0.599424 0.839917 -0.317472
H30   H     H_    0.944754 0.538736 0.845980 0.190074
H31   H     H_    0.985518 0.698383 0.807650 0.173213
H32   H     H_    0.029904 0.605098 0.944303 0.189646
O13   O     O_3   0.387916 0.335955 0.109807 -0.627039
C39   C     C_3   0.331279 0.285902 0.011622 0.026383
H33   H     H_    0.325003 0.181756 0.031960 0.160387
H34   H     H_    0.354013 0.295296 0.903651 0.134568
C40   C     C_3   0.243594 0.348579 0.027679 -0.315482
H35   H     H_    0.217599 0.325595 0.130795 0.220809
H36   H     H_    0.249265 0.454065 0.018945 0.228537
C41   C     C_3   0.181901 0.302032 0.918672 -0.964727
H37   H     H_    0.206100 0.326108 0.814784 0.280228
H38   H     H_    0.119276 0.349611 0.932547 0.277295
H39   H     H_    0.173146 0.196987 0.927431 0.250680
O14   O     O_3   0.614532 0.660367 0.890497 -0.625586
C42   C     C_3   0.657078 0.733495 0.990437 0.046490
H40   H     H_    0.726203 0.730646 0.966450 0.167645
H41   H     H_    0.650300 0.696310 0.097325 0.133719
C43   C     C_3   0.626352 0.872460 0.982884 -0.345572
H42   H     H_    0.636876 0.910748 0.877857 0.229214
H43   H     H_    0.557092 0.877130 0.005116 0.206593
C44   C     C_3   0.673650 0.955725 0.085149 -0.966429
H44   H     H_    0.664780 0.918291 0.190848 0.263420
H45   H     H_    0.648352 0.054997 0.080023 0.268731
H46   H     H_    0.742717 0.957377 0.060774 0.269668

loop_
_geom_bond_atom_site_label_1
_geom_bond_atom_site_label_2
_ccdc_geom_bond_type
O9    C31   S    
C7    C29   S    
C23   O12   S    
C36   H24   S    
O13   C39   S    
C19   H1    S    
C13   H11   S    
O11   C37   S    
C2    O2    A    
C44   H45   S    
C17   C23   S    
C18   C24   S    
C17   C26   S    
C24   C26   S    
C11   C14   S    
C37   H28   S    
C3    H3    S    
C31   H13   S    
C43   C44   S    
C10   O14   S    
C3    C29   S    
C9    C13   S    
C41   H38   S    
C33   H18   S    
N1    Zn1   S    
C38   H30   S    
C9    N2    S    
C42   C43   S    
C20   C23   S    
C11   N1    S    
C35   H22   S    
C15   O7    A    
C17   O9    S    
C14   H12   S    
C23   C25   S    
O10   C34   S    
C21   C27   T    
O1    Zn1   S    
C32   H15   S    
C22   C28   T    
C36   H25   S    
C43   H42   S    
C18   C25   S    
C8    H8    S    
C4    C7    S    
O4    Zn1   S    
C44   H46   S    
C4    H4    S    
C32   H16   S    
C1    C6    S    
C4    C6    S    
C3    C8    S    
C10   C14   S    
C40   H35   S    
C5    C7    S    
C37   H27   S    
C1    O3    A    
C6    C8    S    
C41   H39   S    
C2    O4    A    
C34   H20   S    
C34   H21   S    
C12   H10   S    
C43   H43   S    
C33   H17   S    
C40   H36   S    
C42   H40   S    
C39   C40   S    
O2    Zn2   S    
C35   C36   S    
C7    H7    S    
O6    Zn2   S    
C12   C13   S    
C11   H9    S    
C9    C11   S    
C10   C12   S    
O3    Zn2   S    
C42   H41   S    
C39   H34   S    
O14   C42   S    
C36   H26   S    
C2    C5    S    
C18   O10   S    
C13   N1    S    
O8    Zn1   S    
C14   N2    S    
C5    C30   S    
C20   H2    S    
C32   C33   S    
C16   C22   S    
C33   H19   S    
C38   H31   S    
C10   N1    S    
C16   O8    A    
C16   O6    A    
C3    C5    S    
C6    C29   S    
C25   C27   S    
C44   H44   S    
C29   H5    S    
C26   C28   S    
C31   C32   S    
C30   H6    S    
O7    Zn2   S    
C8    C30   S    
C34   C35   S    
C19   C24   S    
C12   N2    S    
C9    O13   S    
C40   C41   S    
C37   H29   S    
C1    O1    A    
C20   C26   S    
O5    Zn1   S    
C17   C19   S    
C31   H14   S    
C18   C20   S    
C15   O5    A    
C41   H37   S    
C19   C25   S    
N2    Zn2   S    
C24   O11   S    
C15   C21   S    
C38   H32   S    
C39   H33   S    
O12   C38   S    
C35   H23   S    
C4    C30   S    
