data_mof_unit_63496.cif
_audit_creation_date              2012-12-10T19:07:17-0500
_audit_creation_method            fapswitch 2.2
_symmetry_space_group_name_H-M    P1
_symmetry_Int_Tables_number       1
_space_group_crystal_system       triclinic
_cell_length_a                    13.032674
_cell_length_b                    13.625161
_cell_length_c                    19.203652
_cell_angle_alpha                 90.10342
_cell_angle_beta                  92.711833
_cell_angle_gamma                 85.760074
_cell_volume                      3396.89044212

loop_
_atom_site_label
_atom_site_type_symbol
_atom_type_description
_atom_site_fract_x
_atom_site_fract_y
_atom_site_fract_z
_atom_type_partial_charge
C1    C     C_R   0.481213 0.685198 0.499126 0.876356
C2    C     C_2   0.967974 0.530613 0.518742 0.366710
C3    C     C_1   0.854649 0.520894 0.513929 0.081344
C4    C     C_1   0.145300 0.479458 0.485912 0.089196
C5    C     C_R   0.499571 0.498910 0.634833 0.954521
C6    C     C_R   0.500330 0.502075 0.365343 0.940322
C7    C     C_R   0.405165 0.520154 0.741991 -0.253191
C8    C     C_R   0.589825 0.476916 0.256472 -0.252506
C9    C     C_R   0.398170 0.514532 0.813542 0.413285
C10   C     C_R   0.592890 0.480976 0.184565 0.411386
C11   C     C_R   0.486632 0.481992 0.854908 -0.158144
C12   C     C_R   0.518782 0.314794 0.500752 0.898272
C13   C     C_R   0.502907 0.514866 0.145060 -0.165806
C14   C     C_R   0.579564 0.451525 0.824196 0.338803
C15   C     C_R   0.413371 0.550520 0.177934 0.346322
C16   C     C_R   0.586740 0.461959 0.751661 0.403569
C17   C     C_R   0.413538 0.550828 0.251161 0.405192
C18   C     C_R   0.498051 0.494367 0.710658 -0.295385
C19   C     C_R   0.500710 0.509518 0.289846 -0.292978
C20   C     C_R   0.498453 0.506246 0.069703 0.352587
C21   C     C_R   0.486416 0.488632 0.930257 0.344730
C22   C     C_3   0.742346 0.514330 0.726585 -0.257591
C23   C     C_1   0.533687 0.211637 0.501261 -0.157927
C24   C     C_3   0.337163 0.687829 0.299265 -0.269110
C25   C     C_3   0.940385 0.665038 0.593649 -0.272934
C26   C     C_3   0.058748 0.343368 0.399442 -0.252095
C27   C     C_1   0.466280 0.788329 0.497802 -0.178108
C28   C     C_2   0.544580 0.020476 0.501392 -0.153280
C29   C     C_2   0.455353 0.979466 0.496230 -0.157356
C30   C     C_1   0.457388 0.875732 0.496816 0.014771
C31   C     C_1   0.542541 0.124219 0.501490 0.023627
C32   C     C_2   0.031899 0.470205 0.480738 0.366174
H1    H     H_    0.336904 0.545198 0.710653 0.219018
H2    H     H_    0.813982 0.494108 0.699291 0.191158
H3    H     H_    0.764801 0.529489 0.781924 0.173435
H4    H     H_    0.405663 0.698179 0.334644 0.145680
H5    H     H_    0.268127 0.717330 0.326290 0.200124
H6    H     H_    0.341235 0.731247 0.250548 0.165789
H7    H     H_    0.893818 0.625247 0.629858 0.149264
H8    H     H_    0.890130 0.706825 0.553786 0.160335
H9    H     H_    0.982210 0.719237 0.624936 0.205531
H10   H     H_    0.114292 0.299195 0.434793 0.158296
H11   H     H_    0.099526 0.390145 0.363993 0.177099
H12   H     H_    0.657826 0.447712 0.286438 0.217492
H13   H     H_    0.016799 0.291034 0.366516 0.203220
H14   H     H_    0.381967 0.023018 0.491933 0.162352
H15   H     H_    0.617956 0.976916 0.505787 0.162688
H16   H     H_    0.301765 0.513752 0.888215 0.349289
H17   H     H_    0.685403 0.477869 0.107655 0.348969
H18   H     H_    0.716376 0.383344 0.837725 0.374135
H19   H     H_    0.268211 0.599191 0.166958 0.376501
H20   H     H_    0.705115 0.582414 0.701588 0.159250
N1    N     N_R   0.521185 0.410560 0.970521 -0.092753
N2    N     N_R   0.463234 0.584150 0.029435 -0.099407
N3    N     N_R   0.526666 0.419149 0.039394 -0.145609
N4    N     N_R   0.457700 0.575546 0.960586 -0.152184
N5    N     N_1   0.234540 0.484780 0.488910 -0.084450
N6    N     N_1   0.765460 0.515220 0.511090 -0.088350
O1    O     O_R   0.402510 0.634760 0.495940 -0.600886
O2    O     O_3   0.684764 0.450653 0.155352 -0.720999
O3    O     O_3   0.662594 0.415361 0.866599 -0.737730
O4    O     O_3   0.326650 0.581650 0.137126 -0.733406
O5    O     O_3   0.678324 0.435218 0.720540 -0.592262
O6    O     O_3   0.327053 0.587427 0.284602 -0.595801
O7    O     O_3   0.013292 0.599729 0.562058 -0.625694
O8    O     O_3   0.986585 0.400724 0.437725 -0.627134
O9    O     O_R   0.597490 0.365240 0.504060 -0.590899
O10   O     O_R   0.572960 0.644530 0.503060 -0.617821
O11   O     O_R   0.427040 0.355470 0.496940 -0.616236
O12   O     O_R   0.414750 0.495120 0.598300 -0.620941
O13   O     O_R   0.585250 0.504880 0.401700 -0.623051
O14   O     O_R   0.585190 0.504900 0.605420 -0.573717
O15   O     O_R   0.414810 0.495100 0.394580 -0.559376
O16   O     O_3   0.303447 0.540388 0.840424 -0.724144
Zn1   Zn    Zn3+2 0.386190 0.493480 0.495250 1.009438
Zn2   Zn    Zn3+2 0.613810 0.506520 0.504750 1.003032

loop_
_geom_bond_atom_site_label_1
_geom_bond_atom_site_label_2
_ccdc_geom_bond_type
C4    N5    T    
C21   N4    A    
C10   O2    S    
C12   O11   A    
C28   C31   S    
C28   H15   S    
C15   C17   A    
C5    O12   A    
C6    C19   S    
C16   O5    S    
O1    Zn1   S    
O10   Zn2   S    
C9    C11   A    
C32   O8    S    
C24   H6    S    
C24   H4    S    
C29   H14   S    
O14   Zn2   S    
C2    O7    S    
C25   H8    S    
N5    Zn1   S    
C13   C15   A    
C2    C3    S    
N6    Zn2   S    
C24   O6    S    
C4    C32   S    
C7    C18   A    
C25   H7    S    
C27   C30   T    
C21   N1    A    
C22   H3    S    
C7    H1    S    
C20   N2    A    
C1    O1    A    
C29   C30   S    
H19   O4    S    
C5    C18   S    
C20   N3    A    
H17   O2    S    
C2    C32   D    
C28   C29   D    
C17   C19   A    
C15   O4    S    
C26   H11   S    
O11   Zn1   S    
C5    O14   A    
C7    C9    A    
N1    N3    A    
C17   O6    S    
C6    O13   A    
C22   H2    S    
C12   O9    A    
C14   C16   A    
C8    C19   A    
C9    O16   S    
O15   Zn1   S    
C26   O8    S    
C3    N6    T    
H16   O16   S    
O13   Zn2   S    
O12   Zn1   S    
C1    O10   A    
C25   O7    S    
C26   H10   S    
C6    O15   A    
C16   C18   A    
C25   H9    S    
C11   C14   A    
C1    C27   S    
C24   H5    S    
C12   C23   S    
O9    Zn2   S    
C13   C20   S    
C22   H20   S    
C22   O5    S    
C14   O3    S    
H18   O3    S    
C11   C21   S    
C8    C10   A    
C8    H12   S    
N2    N4    A    
C26   H13   S    
C10   C13   A    
C23   C31   T    
