data_mof_unit_34831.cif
_audit_creation_date              2012-12-10T18:54:23-0500
_audit_creation_method            fapswitch 2.2
_symmetry_space_group_name_H-M    P1
_symmetry_Int_Tables_number       1
_space_group_crystal_system       triclinic
_cell_length_a                    10.73699
_cell_length_b                    9.79609
_cell_length_c                    23.43806
_cell_angle_alpha                 90.043556
_cell_angle_beta                  89.84566
_cell_angle_gamma                 90.00851
_cell_volume                      2465.21766434

loop_
_atom_site_label
_atom_site_type_symbol
_atom_type_description
_atom_site_fract_x
_atom_site_fract_y
_atom_site_fract_z
_atom_type_partial_charge
C1    C     C_R   0.259705 0.499984 0.500034 0.864786
C2    C     C_R   0.740296 0.499992 0.499974 0.865256
C3    C     C_R   0.530937 0.385224 0.235833 -0.301125
C4    C     C_R   0.471211 0.388194 0.764583 -0.292951
C5    C     C_R   0.528330 0.379210 0.295334 0.458406
C6    C     C_R   0.473437 0.380797 0.705083 0.453510
C7    C     C_R   0.509228 0.500782 0.326710 -0.206637
C8    C     C_R   0.491173 0.501847 0.673288 -0.211015
C9    C     C_R   0.500088 0.626366 0.298064 -0.398085
C10   C     C_R   0.499133 0.628186 0.701531 -0.386502
C11   C     C_R   0.507910 0.631978 0.238806 0.524820
C12   C     C_R   0.491626 0.635073 0.760689 0.526846
C13   C     C_R   0.520105 0.510427 0.208036 0.174792
C14   C     C_R   0.480845 0.514201 0.791981 0.162918
C15   C     C_R   0.063765 0.376840 0.507799 -0.194809
C16   C     C_R   0.936249 0.623062 0.492252 -0.193787
C17   C     C_R   0.936112 0.376828 0.507728 -0.189709
C18   C     C_R   0.063887 0.623060 0.492278 -0.189511
C19   C     C_R   0.872676 0.499954 0.499972 -0.009950
C20   C     C_R   0.127328 0.499957 0.500049 -0.009246
C21   C     C_R   0.580286 0.072187 0.534055 -0.071125
C22   C     C_R   0.419886 0.927831 0.465865 -0.083375
C23   C     C_R   0.419775 0.072036 0.465917 -0.067757
C24   C     C_R   0.580146 0.927982 0.534120 -0.080706
C25   C     C_R   0.501758 0.499875 0.389114 0.934907
C26   C     C_R   0.498289 0.500049 0.610885 0.935105
C27   C     C_R   0.599422 0.532536 0.878090 0.595300
C28   C     C_R   0.400541 0.505610 0.122028 0.595880
C29   C     C_R   0.377988 0.508603 0.882973 0.530769
C30   C     C_R   0.622057 0.525741 0.117078 0.549019
C31   C     C_R   0.381225 0.511271 0.942455 -0.050419
C32   C     C_R   0.618109 0.531613 0.057629 -0.052912
C33   C     C_R   0.497090 0.524107 0.970052 -0.078756
C34   C     C_R   0.502040 0.522340 0.030030 -0.087611
C35   C     C_R   0.607969 0.537316 0.937777 -0.146267
C36   C     C_R   0.391192 0.510306 0.062330 -0.130502
C37   C     C_R   0.271466 0.501665 0.974614 -0.289286
C38   C     C_R   0.727240 0.547386 0.025537 -0.266402
C39   C     C_R   0.275179 0.504910 0.034200 0.507695
C40   C     C_R   0.723066 0.554388 0.966149 0.489008
H1    H     H_    0.181946 0.491817 0.953831 0.207099
H2    H     H_    0.816608 0.555516 0.046310 0.194570
H3    H     H_    0.538607 0.292318 0.210997 0.161623
H4    H     H_    0.464607 0.295763 0.789729 0.163620
H5    H     H_    0.484743 0.720399 0.321404 0.194654
H6    H     H_    0.512586 0.722189 0.677972 0.197170
H7    H     H_    0.112249 0.281048 0.514142 0.154915
H8    H     H_    0.887786 0.718876 0.485953 0.156580
H9    H     H_    0.887526 0.281013 0.514001 0.153624
H10   H     H_    0.112458 0.718870 0.485974 0.154477
H11   H     H_    0.644122 0.127220 0.561307 0.151665
H12   H     H_    0.356093 0.872820 0.438581 0.133091
H13   H     H_    0.355971 0.126948 0.438652 0.153325
H14   H     H_    0.643942 0.873092 0.561400 0.135982
N1    N     N_R   0.485985 0.518626 0.852540 -0.332372
N2    N     N_R   0.514396 0.513314 0.147501 -0.331033
N3    N     N_R   0.500000 0.857200 0.500000 -0.080502
N4    N     N_R   0.500000 0.142800 0.500000 -0.093994
O1    O     O_R   0.316770 0.614620 0.500000 -0.629477
O2    O     O_R   0.683230 0.385380 0.500000 -0.636825
O3    O     O_R   0.683230 0.614620 0.500000 -0.629777
O4    O     O_R   0.316770 0.385380 0.500000 -0.636161
O5    O     O_R   0.499970 0.614690 0.416160 -0.632818
O6    O     O_R   0.500030 0.385310 0.583840 -0.565987
O7    O     O_R   0.500030 0.614690 0.583840 -0.631193
O8    O     O_R   0.499970 0.385310 0.416160 -0.564124
O9    O     O_2   0.702957 0.539829 0.845461 -0.493143
O10   O     O_2   0.297655 0.492738 0.154780 -0.494221
O11   O     O_2   0.268154 0.496165 0.855542 -0.582431
O12   O     O_2   0.732163 0.532312 0.144518 -0.610657
Zn1   Zn    Zn3+2 0.500000 0.653120 0.500000 0.941554
Zn2   Zn    Zn3+2 0.500000 0.346880 0.500000 0.971383
O13   O     O_3   0.165390 0.498081 0.065042 -0.555674
C41   C     C_3   0.098153 0.621155 0.058404 0.069472
H15   H     H_    0.031899 0.609477 0.022506 0.159239
H16   H     H_    0.158590 0.711894 0.049955 0.126886
C42   C     C_3   0.025438 0.649796 0.112874 -0.694990
H17   H     H_    0.090596 0.676135 0.147914 0.271259
H18   H     H_    0.960616 0.736580 0.106073 0.188812
H19   H     H_    0.971339 0.558123 0.125464 0.297383
O14   O     O_3   0.833233 0.572190 0.936388 -0.565714
C43   C     C_3   0.857900 0.713597 0.932653 0.106297
H20   H     H_    0.873099 0.758395 0.975783 0.104998
H21   H     H_    0.779742 0.768447 0.911411 0.167528
C44   C     C_3   0.975149 0.735939 0.897273 -0.731074
H22   H     H_    0.994487 0.846935 0.893541 0.195453
H23   H     H_    0.055949 0.685825 0.917947 0.237673
H24   H     H_    0.962639 0.692616 0.853860 0.288132
O15   O     O_3   0.534032 0.254023 0.322593 -0.586802
C45   C     C_3   0.655713 0.200503 0.317484 0.114871
H25   H     H_    0.727901 0.278409 0.328114 0.134804
H26   H     H_    0.671994 0.161856 0.273484 0.139894
C46   C     C_3   0.670439 0.081956 0.358811 -0.803949
H27   H     H_    0.596637 0.004556 0.351362 0.250583
H28   H     H_    0.762939 0.033379 0.352656 0.197932
H29   H     H_    0.663509 0.119568 0.403395 0.264889
O16   O     O_3   0.468571 0.254895 0.678306 -0.588113
C47   C     C_3   0.346742 0.201586 0.683075 0.118359
H30   H     H_    0.275588 0.277463 0.669116 0.135465
H31   H     H_    0.326901 0.170106 0.727764 0.142002
C48   C     C_3   0.335274 0.076367 0.645027 -0.805665
H32   H     H_    0.408469 0.000679 0.655907 0.253803
H33   H     H_    0.242385 0.028598 0.651070 0.198647
H34   H     H_    0.345566 0.106415 0.599610 0.262778
O17   O     O_3   0.490551 0.753846 0.210189 -0.599156
C49   C     C_3   0.599531 0.833549 0.215161 0.086486
H35   H     H_    0.683071 0.776143 0.200152 0.172881
H36   H     H_    0.613990 0.866598 0.260085 0.140137
C50   C     C_3   0.586279 0.960410 0.178315 -0.797158
H37   H     H_    0.672322 0.022943 0.181026 0.199530
H38   H     H_    0.571126 0.930605 0.133125 0.258629
H39   H     H_    0.506023 0.022497 0.193285 0.265763
O18   O     O_3   0.506648 0.758446 0.788430 -0.596774
C51   C     C_3   0.391563 0.827982 0.788438 0.078445
H40   H     H_    0.318229 0.766608 0.810315 0.168547
H41   H     H_    0.361095 0.851346 0.744119 0.140601
C52   C     C_3   0.406027 0.962097 0.820456 -0.802358
H42   H     H_    0.477412 0.026608 0.799181 0.265288
H43   H     H_    0.315944 0.017767 0.820932 0.205718
H44   H     H_    0.435092 0.942121 0.865124 0.257052

loop_
_geom_bond_atom_site_label_1
_geom_bond_atom_site_label_2
_ccdc_geom_bond_type
C23   N4    A    
C38   C40   A    
C9    H5    S    
C46   H27   S    
C8    C26   S    
O13   C41   S    
C15   H7    S    
O6    Zn2   S    
C1    O4    A    
C16   H8    S    
C22   N3    A    
O14   C43   S    
C28   N2    A    
C44   H22   S    
C3    H3    S    
C48   H32   S    
C41   H16   S    
C28   O10   S    
O18   C51   S    
C50   H38   S    
C2    O2    A    
C42   H19   S    
C49   H35   S    
O2    Zn2   S    
C24   H14   S    
C15   C17   A    
C25   O5    A    
C26   O6    A    
C33   C35   A    
O8    Zn2   S    
C24   N3    A    
C41   C42   S    
C10   H6    S    
C31   C33   A    
C23   H13   S    
C32   C38   A    
C18   C20   A    
C3    C13   A    
C2    O3    A    
C42   H17   S    
C13   N2    S    
O3    Zn1   S    
C44   H23   S    
C14   N1    S    
C48   H33   S    
C4    C14   A    
C30   O12   S    
O16   C47   S    
C29   O11   S    
C42   H18   S    
C15   C20   A    
C41   H15   S    
C6    O16   S    
C4    C6    A    
C52   H44   S    
C17   H9    S    
C5    C7    A    
C52   H43   S    
C6    C8    A    
C29   N1    A    
C27   C35   A    
O7    Zn1   S    
C30   N2    A    
C31   C37   A    
C32   C34   A    
C11   O17   S    
C45   H26   S    
C29   C31   A    
C33   C34   A    
O4    Zn2   S    
N3    Zn1   S    
C9    C11   A    
C10   C12   A    
C8    C10   A    
C12   C14   A    
C47   H30   S    
C46   H29   S    
C47   H31   S    
C50   H39   S    
C47   C48   S    
C21   H11   S    
C18   H10   S    
C45   C46   S    
C22   H12   S    
C12   O18   S    
C44   H24   S    
C7    C9    A    
C1    C20   S    
C2    C19   S    
C26   O7    A    
C40   O14   S    
C36   C39   A    
C25   O8    A    
O5    Zn1   S    
C3    C5    A    
C51   H41   S    
C51   H40   S    
C48   H34   S    
C43   C44   S    
C4    H4    S    
O17   C49   S    
C27   N1    A    
C43   H21   S    
C7    C25   S    
C1    O1    A    
C35   C40   A    
C21   N4    A    
C37   C39   A    
C50   H37   S    
C30   C32   A    
C11   C13   A    
N4    Zn2   S    
C45   H25   S    
C46   H28   S    
C49   H36   S    
C16   C19   A    
C17   C19   A    
C34   C36   A    
C39   O13   S    
C37   H1    S    
C51   C52   S    
C27   O9    S    
C38   H2    S    
C28   C36   A    
C16   C18   A    
C43   H20   S    
C21   C24   A    
C22   C23   A    
O15   C45   S    
C52   H42   S    
C5    O15   S    
O1    Zn1   S    
C49   C50   S    
