data_mof_unit_65213.cif
_audit_creation_date              2012-10-26T19:38:21-0400
_audit_creation_method            fapswitch 2.2
_symmetry_space_group_name_H-M    P1
_symmetry_Int_Tables_number       1
_space_group_crystal_system       triclinic
_cell_length_a                    15.809757
_cell_length_b                    17.040862
_cell_length_c                    23.579478
_cell_angle_alpha                 90.481774
_cell_angle_beta                  92.531991
_cell_angle_gamma                 95.495915
_cell_volume                      6316.70523885

loop_
_atom_site_label
_atom_site_type_symbol
_atom_type_description
_atom_site_fract_x
_atom_site_fract_y
_atom_site_fract_z
_atom_type_partial_charge
C1    C     C_R   0.490388 0.348526 0.499360 0.622303
C2    C     C_R   0.427207 0.515880 0.698638 -0.114160
C3    C     C_R   0.423183 0.478148 0.237536 0.267514
C4    C     C_R   0.424203 0.517174 0.757593 0.271945
C5    C     C_R   0.498107 0.501198 0.208757 0.159204
C6    C     C_R   0.496618 0.500135 0.791039 0.157266
C7    C     C_R   0.488299 0.262253 0.500790 0.076486
C8    C     C_R   0.511479 0.737626 0.501638 0.039484
C9    C     C_R   0.551655 0.224950 0.473504 0.173893
C10   C     C_R   0.449269 0.774681 0.530989 0.175227
C11   C     C_R   0.559646 0.143913 0.482319 0.020683
C12   C     C_R   0.509602 0.651396 0.501324 0.572452
C13   C     C_R   0.438857 0.854582 0.521513 0.060123
C14   C     C_R   0.496678 0.099934 0.513047 0.167929
C15   C     C_R   0.495365 0.898495 0.486095 0.154890
C16   C     C_R   0.500330 0.502377 0.390893 0.548943
C17   C     C_R   0.499836 0.497775 0.609110 0.530023
C18   C     C_R   0.432099 0.136892 0.537614 -0.120048
C19   C     C_R   0.558636 0.862257 0.459404 -0.120598
C20   C     C_R   0.427544 0.218110 0.532302 0.172347
C21   C     C_R   0.567318 0.781904 0.466643 0.186126
C22   C     C_R   0.750907 0.467748 0.467810 0.060644
C23   C     C_R   0.574297 0.527255 0.240177 0.328083
C24   C     C_R   0.249640 0.538150 0.528586 0.026002
C25   C     C_R   0.839680 0.475528 0.463946 0.187825
C26   C     C_R   0.160760 0.536788 0.528883 0.175512
C27   C     C_R   0.890748 0.522563 0.505028 0.213817
C28   C     C_R   0.109165 0.484231 0.491694 0.229574
C29   C     C_R   0.849595 0.563560 0.546080 0.204298
C30   C     C_R   0.149908 0.436110 0.454823 0.191216
C31   C     C_R   0.758859 0.558835 0.544876 0.371444
C32   C     C_R   0.240616 0.438707 0.457051 0.365284
C33   C     C_R   0.503907 0.571135 0.880610 0.427333
C34   C     C_R   0.570282 0.479814 0.764375 0.323854
C35   C     C_R   0.497254 0.430594 0.119341 0.428309
C36   C     C_R   0.487298 0.430590 0.879598 0.406204
C37   C     C_R   0.497041 0.570483 0.119914 0.404795
C38   C     C_R   0.495179 0.428720 0.939377 0.001715
C39   C     C_R   0.504469 0.572957 0.060547 0.001577
C40   C     C_R   0.500280 0.500952 0.969988 -0.128158
C41   C     C_R   0.500706 0.500780 0.029968 -0.128157
C42   C     C_R   0.504305 0.573291 0.940511 0.034589
C43   C     C_R   0.496713 0.428441 0.059441 0.034144
C44   C     C_R   0.496616 0.356859 0.969173 0.241411
C45   C     C_R   0.574331 0.533154 0.299381 0.270756
C46   C     C_R   0.513885 0.645245 0.031037 0.241504
C47   C     C_R   0.493818 0.356358 0.028845 0.304586
C48   C     C_R   0.510244 0.645492 0.971190 0.304562
C49   C     C_3   0.364966 0.890567 0.547445 -0.188971
C50   C     C_3   0.383598 0.910348 0.610692 -0.279990
C51   C     C_3   0.308549 0.945244 0.636618 -0.431104
C52   C     C_3   0.637541 0.106209 0.463142 -0.220856
C53   C     C_3   0.694277 0.084097 0.513985 -0.288678
C54   C     C_3   0.771578 0.045817 0.494415 -0.430492
C55   C     C_R   0.569927 0.473398 0.705203 0.279129
C56   C     C_R   0.500631 0.505730 0.328280 -0.099428
C57   C     C_R   0.499234 0.494812 0.671706 -0.095857
C58   C     C_R   0.425995 0.479166 0.296658 -0.110087
Cu1   Cu    Cu3+1 0.415220 0.496180 0.497250 1.056321
Cu2   Cu    Cu3+1 0.584780 0.503820 0.502750 1.086518
H1    H     H_    0.288672 0.577688 0.557358 0.182844
H2    H     H_    0.660634 0.784301 0.415216 0.333595
H3    H     H_    0.099333 0.624515 0.544693 0.359181
H4    H     H_    0.924234 0.471743 0.407477 0.371399
H5    H     H_    0.867239 0.609689 0.621761 0.348119
H6    H     H_    0.131891 0.380356 0.382491 0.339547
H7    H     H_    0.752264 0.653681 0.589896 0.319619
H8    H     H_    0.246227 0.339306 0.417420 0.326392
H9    H     H_    0.481428 0.240539 0.031734 0.383905
H10   H     H_    0.511253 0.760860 0.967999 0.383543
H11   H     H_    0.644872 0.534302 0.173994 0.334131
H12   H     H_    0.712168 0.431115 0.437051 0.209160
H13   H     H_    0.640143 0.479118 0.834901 0.334004
H14   H     H_    0.630722 0.600510 0.358461 0.351877
H15   H     H_    0.619125 0.410004 0.649544 0.332388
H16   H     H_    0.350225 0.462193 0.168540 0.358855
H17   H     H_    0.352587 0.528271 0.822070 0.358962
H18   H     H_    0.426043 0.690629 0.585073 0.330725
H19   H     H_    0.609264 0.239012 0.403576 0.331735
H20   H     H_    0.294699 0.000143 0.614478 0.151453
H21   H     H_    0.251123 0.902176 0.633380 0.182205
H22   H     H_    0.324051 0.959565 0.682145 0.177123
H23   H     H_    0.368726 0.458924 0.317967 0.204759
H24   H     H_    0.396526 0.856354 0.634335 0.221147
H25   H     H_    0.440760 0.953441 0.616121 0.186676
H26   H     H_    0.349623 0.944436 0.524518 0.162020
H27   H     H_    0.306798 0.848500 0.542202 0.185771
H28   H     H_    0.750960 0.990886 0.469822 0.159711
H29   H     H_    0.810624 0.087012 0.467555 0.179863
H30   H     H_    0.811394 0.030664 0.531973 0.168063
H31   H     H_    0.716450 0.138112 0.539282 0.187815
H32   H     H_    0.658560 0.042188 0.542045 0.199073
H33   H     H_    0.617549 0.053633 0.436028 0.169862
H34   H     H_    0.372211 0.531566 0.673718 0.186052
H35   H     H_    0.677964 0.146267 0.436579 0.166177
H36   H     H_    0.385848 0.101995 0.561805 0.115592
H37   H     H_    0.601004 0.897096 0.432405 0.118550
H38   H     H_    0.552302 0.295783 0.915969 0.366375
H39   H     H_    0.577678 0.710990 0.087482 0.366397
H40   H     H_    0.329071 0.216168 0.579281 0.333193
N1    N     N_R   0.494937 0.500744 0.851963 -0.446254
N2    N     N_R   0.496688 0.500597 0.147736 -0.446604
N3    N     N_2   0.498798 0.018509 0.522055 -0.263365
N4    N     N_2   0.491041 0.979728 0.476864 -0.239956
N5    N     N_R   0.712130 0.509560 0.506880 -0.261512
N6    N     N_R   0.287870 0.490440 0.493120 -0.249811
N7    N     N_2   0.982195 0.532826 0.506181 -0.172153
N8    N     N_2   0.017614 0.473949 0.491257 -0.137191
O1    O     O_R   0.420530 0.382500 0.497430 -0.407868
O2    O     O_2   0.498198 0.363665 0.149433 -0.373977
O3    O     O_2   0.470667 0.363286 0.848882 -0.422341
O4    O     O_2   0.488585 0.636803 0.149948 -0.421706
O5    O     O_3   0.504086 0.286545 0.941367 -0.644680
O6    O     O_3   0.530016 0.716488 0.059469 -0.643722
O7    O     O_3   0.366113 0.255673 0.558827 -0.665063
O8    O     O_3   0.627310 0.744950 0.438163 -0.678328
O9    O     O_3   0.126943 0.584554 0.567355 -0.623153
O10   O     O_3   0.872610 0.439053 0.418620 -0.630669
O11   O     O_3   0.899810 0.606475 0.587043 -0.650354
O12   O     O_R   0.579470 0.617500 0.502570 -0.415911
O13   O     O_3   0.099297 0.388692 0.416564 -0.658015
O14   O     O_3   0.715903 0.604407 0.580237 -0.624269
O15   O     O_3   0.282994 0.389111 0.424395 -0.649108
O16   O     O_3   0.490490 0.286171 0.058255 -0.597900
O17   O     O_3   0.514652 0.715720 0.941808 -0.599696
O18   O     O_3   0.649673 0.549922 0.214581 -0.597614
O19   O     O_3   0.643231 0.463250 0.794666 -0.599466
O20   O     O_3   0.647586 0.566700 0.327337 -0.598928
O21   O     O_3   0.639767 0.445319 0.681838 -0.588032
O22   O     O_3   0.346099 0.454112 0.209839 -0.637738
O23   O     O_R   0.563720 0.388950 0.502070 -0.487131
O24   O     O_3   0.349464 0.535463 0.780489 -0.630927
O25   O     O_3   0.396307 0.733983 0.568137 -0.706635
O26   O     O_3   0.605483 0.269500 0.439186 -0.686725
O27   O     O_R   0.436280 0.611050 0.497930 -0.520151
O28   O     O_R   0.428390 0.496750 0.415560 -0.463396
O29   O     O_R   0.571610 0.503250 0.584440 -0.440906
O30   O     O_R   0.571580 0.503200 0.420200 -0.497037
O31   O     O_R   0.428420 0.496800 0.579800 -0.523056
O32   O     O_2   0.512351 0.638424 0.850767 -0.377771

loop_
_geom_bond_atom_site_label_1
_geom_bond_atom_site_label_2
_ccdc_geom_bond_type
C54   H28   S    
C24   H1    S    
C23   C45   A    
C27   C29   A    
C3    O22   S    
C18   H36   S    
C14   C18   A    
C47   O16   S    
C26   O9    S    
C35   N2    A    
C25   O10   S    
H39   O6    S    
C19   H37   S    
C2    C57   A    
C50   H24   S    
C39   C41   A    
C53   C54   S    
C15   C19   A    
C29   O11   S    
C33   N1    A    
C33   C42   A    
C19   C21   A    
C24   C26   A    
C54   H30   S    
C37   N2    A    
H3    O9    S    
C11   C14   A    
C33   O32   S    
Cu1   O28   S    
H4    O10   S    
H8    O15   S    
C52   H35   S    
C6    N1    S    
Cu1   O27   S    
C49   H27   S    
C51   H20   S    
C37   O4    S    
C11   C52   S    
C50   H25   S    
C1    O1    A    
C48   O17   S    
C12   O12   A    
H16   O22   S    
H14   O20   S    
C45   C56   A    
C34   O19   S    
C55   O21   S    
C12   O27   A    
C53   H31   S    
N7    N8    D    
C10   O25   S    
H11   O18   S    
C27   N7    S    
C15   N4    S    
C35   C43   A    
C51   H21   S    
C39   C46   A    
C44   C47   A    
Cu2   O29   S    
C9    O26   S    
C40   C42   A    
C34   C55   A    
C38   C40   A    
C32   N6    A    
C31   N5    A    
C32   O15   S    
H40   O7    S    
C53   H32   S    
C21   O8    S    
Cu2   O23   S    
C22   H12   S    
C8    C21   A    
C46   C48   A    
Cu1   N6    S    
C46   O6    S    
C2    H34   S    
C54   H29   S    
C4    C6    A    
H38   O5    S    
H9    O16   S    
C3    C5    A    
H13   O19   S    
C22   C25   A    
C6    C34   A    
C36   N1    A    
H17   O24   S    
C2    C4    A    
C16   C56   S    
C38   C44   A    
C5    C23   A    
C30   O13   S    
Cu1   O31   S    
C8    C12   S    
C36   O3    S    
C50   C51   S    
H5    O11   S    
H6    O13   S    
C52   H33   S    
C17   O31   A    
C42   C48   A    
C9    C11   A    
C51   H22   S    
C35   O2    S    
C23   O18   S    
C13   C49   S    
H10   O17   S    
C8    C10   A    
C40   C41   A    
C44   O5    S    
C7    C20   A    
C55   C57   A    
C13   C15   A    
C24   N6    A    
C16   O28   A    
H7    O14   S    
C52   C53   S    
C7    C9    A    
H19   O26   S    
C5    N2    S    
C1    C7    S    
C49   H26   S    
C16   O30   A    
C41   C43   A    
C31   O14   S    
C1    O23   A    
C10   C13   A    
C20   O7    S    
C25   C27   A    
C22   N5    A    
C26   C28   A    
C36   C38   A    
C29   C31   A    
C58   H23   S    
C30   C32   A    
C4    O24   S    
C14   N3    S    
C28   N8    S    
C28   C30   A    
Cu1   O1    S    
C56   C58   A    
Cu2   O12   S    
C18   C20   A    
H18   O25   S    
H2    O8    S    
C3    C58   A    
Cu1   Cu2   S    
C37   C39   A    
C49   C50   S    
C17   C57   S    
N3    N4    D    
C17   O29   A    
C45   O20   S    
C43   C47   A    
Cu2   N5    S    
H15   O21   S    
Cu2   O30   S    
