data_mof_unit_68119.cif
_audit_creation_date              2012-12-11T16:06:28-0500
_audit_creation_method            fapswitch 2.2
_symmetry_space_group_name_H-M    P1
_symmetry_Int_Tables_number       1
_space_group_crystal_system       triclinic
_cell_length_a                    7.182569
_cell_length_b                    15.227166
_cell_length_c                    15.280899
_cell_angle_alpha                 90.000133
_cell_angle_beta                  89.999438
_cell_angle_gamma                 90.000248
_cell_volume                      1671.27452846

loop_
_atom_site_label
_atom_site_type_symbol
_atom_type_description
_atom_site_fract_x
_atom_site_fract_y
_atom_site_fract_z
_atom_type_partial_charge
O1    O     O_R   0.388780 0.834790 0.412340 -0.526316
O2    O     O_R   0.111220 0.165210 0.912340 -0.526341
O3    O     O_R   0.888780 0.665210 0.587660 -0.526336
O4    O     O_R   0.611220 0.334790 0.087660 -0.526349
O5    O     O_R   0.059040 0.845930 0.587040 -0.508559
O6    O     O_R   0.440960 0.154070 0.087040 -0.508558
O7    O     O_R   0.559040 0.654070 0.412960 -0.508547
O8    O     O_R   0.940960 0.345930 0.912960 -0.508557
C1    C     C_R   0.228095 0.865592 0.617938 0.725499
C2    C     C_R   0.271903 0.134410 0.117940 0.725509
C3    C     C_R   0.728098 0.634405 0.382064 0.725540
C4    C     C_R   0.771905 0.365591 0.882061 0.725513
O9    O     O_R   0.059070 0.845930 0.412970 -0.545038
O10   O     O_R   0.440930 0.154070 0.912970 -0.545026
O11   O     O_R   0.559070 0.654070 0.587030 -0.545032
O12   O     O_R   0.940930 0.345930 0.087030 -0.545042
O13   O     O_R   0.888760 0.665210 0.412340 -0.524864
O14   O     O_R   0.611240 0.334790 0.912340 -0.524845
O15   O     O_R   0.388760 0.834790 0.587660 -0.524851
O16   O     O_R   0.111240 0.165210 0.087660 -0.524849
C5    C     C_R   0.227487 0.866202 0.383097 0.723203
C6    C     C_R   0.272514 0.133798 0.883097 0.723206
C7    C     C_R   0.727486 0.633798 0.616903 0.723184
C8    C     C_R   0.772513 0.366201 0.116903 0.723204
O17   O     O_3   0.222280 0.690700 0.500000 -0.360904
O18   O     O_3   0.277720 0.309300 0.000000 -0.360906
O19   O     O_3   0.722280 0.809300 0.500000 -0.360895
O20   O     O_3   0.777720 0.190700 0.000000 -0.360893
V1    V     V_3+5 0.947430 0.761000 0.500000 1.604821
V2    V     V_3+5 0.552570 0.239000 0.000000 1.604784
V3    V     V_3+5 0.447430 0.739000 0.500000 1.604858
V4    V     V_3+5 0.052570 0.261000 0.000000 1.604762
C9    C     C_3   0.895617 0.580074 0.753887 -0.230794
C10   C     C_3   0.604417 0.419909 0.253907 -0.230798
C11   C     C_3   0.395610 0.919929 0.246107 -0.230741
C12   C     C_3   0.104387 0.080076 0.746110 -0.230803
H1    H     H_    0.031292 0.588541 0.719806 0.180883
H2    H     H_    0.468733 0.411416 0.219839 0.180798
H3    H     H_    0.531286 0.911450 0.280184 0.180902
H4    H     H_    0.968711 0.088547 0.780191 0.180863
H5    H     H_    0.864514 0.641423 0.789944 0.237550
H6    H     H_    0.635579 0.358571 0.289971 0.237592
H7    H     H_    0.364480 0.858589 0.210040 0.237586
H8    H     H_    0.135497 0.141425 0.710053 0.237555
C13   C     C_3   0.913251 0.505486 0.821969 -0.283970
C14   C     C_3   0.586756 0.494509 0.321974 -0.284021
C15   C     C_3   0.413253 0.994521 0.178032 -0.284007
C16   C     C_3   0.086748 0.005487 0.678031 -0.283969
H9    H     H_    0.907474 0.533130 0.889121 0.183363
H10   H     H_    0.592513 0.466877 0.389132 0.183353
H11   H     H_    0.407491 0.966881 0.110877 0.183362
H12   H     H_    0.092519 0.033129 0.610877 0.183363
H13   H     H_    0.053937 0.476004 0.818138 0.234210
H14   H     H_    0.446071 0.523989 0.318132 0.234216
H15   H     H_    0.553938 0.024004 0.181869 0.234217
H16   H     H_    0.946062 0.976004 0.681865 0.234205
H17   H     H_    0.896784 0.477602 0.601898 0.207315
H18   H     H_    0.603059 0.522381 0.101955 0.207211
H19   H     H_    0.396785 0.022401 0.398099 0.207316
H20   H     H_    0.103194 0.977603 0.898094 0.207311
C17   C     C_3   0.769652 0.472524 0.642835 -0.349128
C18   C     C_3   0.730266 0.527468 0.142841 -0.349208
C19   C     C_3   0.269649 0.027478 0.357164 -0.349115
C20   C     C_3   0.230336 0.972525 0.857163 -0.349129
C21   C     C_3   0.551429 0.555253 0.738645 -0.381435
C22   C     C_3   0.948594 0.444766 0.238624 -0.381368
C23   C     C_3   0.051426 0.944746 0.261357 -0.381436
C24   C     C_3   0.448575 0.055250 0.761358 -0.381419
C25   C     C_3   0.736644 0.562250 0.686997 -0.047964
C26   C     C_3   0.763353 0.437748 0.186998 -0.047995
C27   C     C_3   0.236642 0.937752 0.313003 -0.047996
C28   C     C_3   0.263356 0.062250 0.813003 -0.047981
H21   H     H_    0.436494 0.537502 0.693218 0.176257
H22   H     H_    0.063479 0.462559 0.193183 0.176216
H23   H     H_    0.936492 0.962501 0.306785 0.176255
H24   H     H_    0.563500 0.037490 0.806787 0.176246
H25   H     H_    0.512861 0.619983 0.765940 0.189752
H26   H     H_    0.987251 0.380035 0.265890 0.189716
H27   H     H_    0.012857 0.880013 0.234067 0.189747
H28   H     H_    0.487162 0.119980 0.734070 0.189751
C29   C     C_3   0.759061 0.434904 0.808475 -0.136195
C30   C     C_3   0.740947 0.565091 0.308480 -0.136195
C31   C     C_3   0.259056 0.065098 0.191525 -0.136190
C32   C     C_3   0.240940 0.934906 0.691523 -0.136190
C33   C     C_3   0.783873 0.395022 0.711232 0.336191
C34   C     C_3   0.716144 0.604975 0.211237 0.336070
C35   C     C_3   0.283862 0.104981 0.288768 0.336157
C36   C     C_3   0.216130 0.895023 0.788766 0.336180
C37   C     C_3   0.564942 0.484918 0.811969 -0.209791
C38   C     C_3   0.935062 0.515075 0.311973 -0.209813
C39   C     C_3   0.064941 0.015079 0.188029 -0.209799
C40   C     C_3   0.435058 0.984921 0.688028 -0.209809
H29   H     H_    0.452104 0.437272 0.798948 0.195260
H30   H     H_    0.047911 0.562722 0.298980 0.195384
H31   H     H_    0.952097 0.062723 0.201045 0.195276
H32   H     H_    0.547900 0.937277 0.701041 0.195277
H33   H     H_    0.654995 0.461473 0.594985 0.138815
H34   H     H_    0.844839 0.538518 0.094945 0.138915
H35   H     H_    0.154993 0.038528 0.405018 0.138828
H36   H     H_    0.344981 0.961474 0.905020 0.138840
C41   C     C_2   0.635510 0.326331 0.688141 0.740548
O21   O     O_2   0.622731 0.299647 0.612766 -0.465235
O22   O     O_R   0.513061 0.293415 0.750882 -0.677226
H37   H     H_    0.407795 0.258615 0.723840 0.328774
C42   C     C_2   0.864565 0.673637 0.188134 0.740902
O23   O     O_2   0.877373 0.700304 0.112755 -0.465278
O24   O     O_R   0.987007 0.706560 0.250875 -0.677158
H38   H     H_    0.092278 0.741359 0.223834 0.328860
C43   C     C_2   0.135493 0.173669 0.311860 0.740587
O25   O     O_2   0.122719 0.200356 0.387234 -0.465223
O26   O     O_R   0.013037 0.206580 0.249119 -0.677212
H39   H     H_    0.907793 0.241398 0.276159 0.328784
C44   C     C_2   0.364501 0.826337 0.811858 0.740591
O27   O     O_2   0.377281 0.799653 0.887232 -0.465253
O28   O     O_R   0.486953 0.793423 0.749117 -0.677215
H40   H     H_    0.592221 0.758624 0.776159 0.328786
S1    S     S_3+6 0.008731 0.342294 0.693612 -0.040044
O29   O     O_2   0.057150 0.283103 0.768297 -0.378705
O30   O     O_2   0.002277 0.288296 0.611182 -0.273886
O31   O     O_3   0.177664 0.417955 0.682253 -0.559740
H41   H     H_    0.264975 0.393427 0.638489 0.358296
S2    S     S_3+6 0.491338 0.657755 0.193635 -0.040024
O32   O     O_2   0.443070 0.716994 0.268304 -0.378650
O33   O     O_2   0.497810 0.711721 0.111184 -0.273969
O34   O     O_3   0.322275 0.582145 0.182345 -0.559665
H42   H     H_    0.235392 0.606513 0.138284 0.358230
S3    S     S_3+6 0.508716 0.157715 0.306387 -0.040031
O35   O     O_2   0.557128 0.216910 0.231702 -0.378698
O36   O     O_2   0.502253 0.211713 0.388817 -0.273884
O37   O     O_3   0.677660 0.082059 0.317744 -0.559738
H43   H     H_    0.764914 0.106570 0.361539 0.358310
S4    S     S_3+6 0.991279 0.842287 0.806384 -0.040044
O38   O     O_2   0.942879 0.783091 0.731700 -0.378702
O39   O     O_2   0.997738 0.788291 0.888815 -0.273899
O40   O     O_3   0.822329 0.917940 0.817738 -0.559736
H44   H     H_    0.735081 0.893435 0.861542 0.358296
C45   C     C_2   0.515762 0.524525 0.900300 0.799165
O41   O     O_2   0.602587 0.587118 0.929433 -0.512647
O42   O     O_R   0.362833 0.491492 0.946323 -0.653677
H45   H     H_    0.337452 0.524867 0.002403 0.305939
C46   C     C_2   0.984205 0.475437 0.400294 0.799121
O43   O     O_2   0.897386 0.412826 0.429393 -0.512586
O44   O     O_R   0.137100 0.508462 0.446348 -0.653693
H46   H     H_    0.162476 0.475059 0.502412 0.306202
C47   C     C_2   0.015780 0.975464 0.099700 0.799161
O45   O     O_2   0.102612 0.912870 0.070575 -0.512630
O46   O     O_R   0.862862 0.008492 0.053666 -0.653675
H47   H     H_    0.837493 0.975112 0.997588 0.306143
C48   C     C_2   0.484223 0.024538 0.599700 0.799155
O47   O     O_2   0.397399 0.087136 0.570578 -0.512617
O48   O     O_R   0.637140 0.991509 0.553664 -0.653681
H48   H     H_    0.662517 0.024893 0.497589 0.306151

loop_
_geom_bond_atom_site_label_1
_geom_bond_atom_site_label_2
_ccdc_geom_bond_type
C24   H28   S    
C31   C35   S    
H18   C18   S    
C41   O21   D    
O19   V1    S    
S1    O29   D    
C9    C13   S    
C7    C25   S    
C42   O23   D    
O3    C7    A    
O46   H47   S    
C10   H6    S    
C40   H32   S    
O15   V3    S    
C35   S3    S    
C47   O45   D    
C8    C26   S    
O40   H44   S    
C22   C38   S    
O1    C5    A    
C18   C34   S    
H17   C17   S    
C5    C27   S    
O9    V1    S    
O44   H46   S    
C48   O48   S    
C11   H3    S    
O4    C8    A    
C20   H36   S    
O28   H40   S    
C22   H22   S    
C2    C31   S    
O1    V3    S    
O13   V1    S    
C18   C26   S    
O2    V4    S    
C36   C44   S    
O3    V1    S    
C19   H35   S    
O22   H37   S    
C43   O26   S    
C14   C30   S    
C1    O15   A    
O26   H39   S    
C2    O16   A    
S4    O38   D    
O2    C6    A    
O24   H38   S    
C10   C14   S    
C15   C31   S    
C11   H7    S    
C10   C26   S    
C9    C25   S    
C29   C37   S    
O11   C7    A    
O48   H48   S    
C11   C15   S    
O12   C8    A    
C18   H34   S    
O10   V2    S    
C6    C28   S    
C47   O46   S    
C38   H30   S    
O5    V1    S    
C3    C30   S    
C22   H26   S    
C13   C29   S    
C21   H25   S    
O8    V4    S    
C12   H4    S    
O7    V3    S    
C21   H21   S    
O18   V4    S    
C15   H11   S    
C30   C34   S    
C39   H31   S    
C9    H1    S    
C16   C32   S    
C24   C28   S    
C46   O44   S    
C4    O14   A    
O7    C3    A    
S3    O36   D    
O5    C1    A    
C42   O24   S    
C13   H9    S    
O8    C4    A    
C14   H14   S    
C23   C39   S    
O9    C5    A    
C24   H24   S    
C33   S1    S    
C45   O42   S    
C17   C33   S    
O14   V2    S    
S4    O39   D    
O6    V2    S    
C19   C27   S    
C37   C45   S    
O34   H42   S    
S1    O31   S    
C34   C42   S    
C23   H23   S    
C36   S4    S    
S2    O33   D    
S3    O35   D    
C39   C47   S    
C33   C41   S    
O31   H41   S    
C15   H15   S    
C44   O27   D    
O16   V4    S    
C17   C25   S    
C16   H16   S    
C3    O13   A    
C19   C35   S    
C10   H2    S    
O17   V3    S    
C17   H33   S    
C32   C36   S    
O6    C2    A    
O42   H45   S    
O11   V3    S    
C35   C43   S    
C21   C37   S    
O12   V4    S    
C31   C39   S    
C45   O41   D    
C14   H10   S    
H19   C19   S    
C30   C38   S    
H20   C20   S    
C9    H5    S    
O10   C6    A    
S2    O34   S    
S1    O30   D    
O37   H43   S    
S3    O37   S    
C11   C27   S    
C48   O47   D    
C22   C26   S    
S4    O40   S    
C21   C25   S    
O20   V2    S    
C24   C40   S    
C4    C29   S    
C12   C16   S    
C23   C27   S    
C20   C28   S    
C37   H29   S    
C34   S2    S    
O4    V2    S    
C38   C46   S    
C12   H8    S    
C1    C32   S    
C13   H13   S    
C16   H12   S    
C41   O22   S    
C43   O25   D    
C40   C48   S    
C32   C40   S    
S2    O32   D    
C46   O43   D    
C20   C36   S    
C23   H27   S    
C29   C33   S    
C12   C28   S    
C44   O28   S    
