data_mof_unit_26153.cif
_audit_creation_date              2013-03-05T15:45:31-0500
_audit_creation_method            fapswitch 2.2
_symmetry_space_group_name_H-M    P1
_symmetry_Int_Tables_number       1
_space_group_crystal_system       triclinic
_cell_length_a                    10.972792
_cell_length_b                    10.942986
_cell_length_c                    18.741371
_cell_angle_alpha                 89.616443
_cell_angle_beta                  89.466661
_cell_angle_gamma                 59.442332
_cell_volume                      1937.74674739

loop_
_atom_site_label
_atom_site_type_symbol
_atom_site_description
_atom_site_fract_x
_atom_site_fract_y
_atom_site_fract_z
_atom_type_partial_charge
O1    O     O_R   0.507430 0.255570 0.581420 -0.484977
O2    O     O_R   0.280190 0.527390 0.578910 -0.498697
C1    C     C_R   0.234295 0.647715 0.609112 0.560589
O3    O     O_R   0.260310 0.739740 0.584580 -0.528071
O4    O     O_R   0.532250 0.695150 0.573830 -0.467786
C2    C     C_R   0.629532 0.589321 0.609202 0.538275
O5    O     O_R   0.744930 0.503430 0.576380 -0.495944
O6    O     O_R   0.699250 0.276390 0.571950 -0.544704
C3    C     C_R   0.627366 0.228939 0.603512 0.550103
O7    O     O_R   0.499020 0.256400 0.419850 -0.520542
O8    O     O_R   0.272400 0.528160 0.429140 -0.459660
C4    C     C_R   0.291473 0.618466 0.392994 0.566400
O9    O     O_R   0.251910 0.740570 0.423020 -0.492934
O10   O     O_R   0.524460 0.695920 0.424060 -0.525753
C5    C     C_R   0.646809 0.628015 0.394534 0.577385
O11   O     O_R   0.736530 0.504260 0.414810 -0.446755
O12   O     O_R   0.691460 0.277160 0.422180 -0.503038
C6    C     C_R   0.617799 0.229256 0.394911 0.549591
Cr1   Cr    Cr6+3 0.392930 0.397900 0.502230 1.087931
Cr2   Cr    Cr6+3 0.398240 0.708600 0.501260 1.058526
Cr3   Cr    Cr6+3 0.708800 0.393470 0.496460 1.079537
O13   O     O_3   0.499990 0.499990 0.499980 -0.325303
C7    C     C_3   0.548528 0.788140 0.787522 0.354130
C8    C     C_3   0.517050 0.751416 0.713293 -0.169587
H1    H     H_    0.431427 0.726001 0.717069 0.121567
H2    H     H_    0.475206 0.844871 0.677265 0.215204
H3    H     H_    0.869796 0.692393 0.780362 0.170609
C9    C     C_3   0.829982 0.620628 0.766360 0.079126
C10   C     C_3   0.674726 0.526482 0.811720 -0.178343
C11   C     C_3   0.694221 0.656917 0.815665 0.003588
H4    H     H_    0.758939 0.433827 0.841170 0.210415
H5    H     H_    0.573723 0.548659 0.837403 0.125334
C12   C     C_3   0.650860 0.619695 0.683139 -0.047805
C13   C     C_3   0.780630 0.643937 0.687328 0.110994
C14   C     C_3   0.675061 0.490485 0.731860 0.045893
H6    H     H_    0.587844 0.468513 0.723344 0.090581
H7    H     H_    0.866752 0.566837 0.652579 0.219603
C15   C     C_R   0.791274 0.115727 0.706867 -0.037295
H8    H     H_    0.883322 0.069851 0.672122 0.139209
C16   C     C_R   0.808265 0.104394 0.780854 -0.033716
H9    H     H_    0.913133 0.042128 0.802477 0.129698
C17   C     C_R   0.689098 0.164220 0.826283 0.043468
C18   C     C_R   0.554082 0.243027 0.797597 -0.088857
H10   H     H_    0.460843 0.287712 0.831540 0.134891
C19   C     C_R   0.537514 0.251082 0.724671 -0.070912
H11   H     H_    0.432059 0.307529 0.704026 0.139855
C20   C     C_R   0.654822 0.189593 0.678583 0.064900
C21   C     C_R   0.193817 0.554437 0.721821 -0.121983
H12   H     H_    0.208211 0.461588 0.694488 0.187499
C22   C     C_R   0.187639 0.559010 0.796011 -0.138466
H13   H     H_    0.194021 0.470663 0.825361 0.192892
C23   C     C_R   0.168957 0.679261 0.831729 0.014940
C24   C     C_R   0.164001 0.791168 0.792564 -0.101595
H14   H     H_    0.151813 0.884991 0.818380 0.178661
C25   C     C_R   0.166162 0.788141 0.719125 -0.122524
H15   H     H_    0.160739 0.877537 0.690945 0.152925
C26   C     C_R   0.186326 0.667409 0.683059 0.042481
C27   C     C_R   0.813943 0.599483 0.295474 0.209545
C28   C     C_R   0.827787 0.615064 0.222731 -0.118534
H16   H     H_    0.928632 0.547421 0.197049 0.155781
C29   C     C_R   0.713212 0.714983 0.182588 -0.022097
C30   C     C_R   0.586337 0.809781 0.217302 -0.121940
H17   H     H_    0.499102 0.893025 0.187849 0.199735
C31   C     C_R   0.569205 0.792155 0.289894 -0.179389
H18   H     H_    0.468079 0.861564 0.315081 0.149885
C32   C     C_R   0.678899 0.679614 0.328093 0.010059
C33   C     C_R   0.549146 0.153403 0.288555 -0.131880
H19   H     H_    0.469891 0.142559 0.318247 0.158244
C34   C     C_R   0.546293 0.149488 0.215574 -0.136959
H20   H     H_    0.468984 0.129641 0.191113 0.153432
C35   C     C_R   0.648081 0.160843 0.175375 0.029792
C36   C     C_R   0.747243 0.185706 0.208731 -0.114123
H21   H     H_    0.827612 0.193276 0.178270 0.165127
C37   C     C_R   0.746685 0.195181 0.282185 -0.120890
H22   H     H_    0.820961 0.218912 0.307140 0.174031
C38   C     C_R   0.646709 0.180063 0.322300 0.027636
C39   C     C_R   0.280669 0.717922 0.274334 -0.120953
H23   H     H_    0.313449 0.786396 0.297711 0.150728
C40   C     C_R   0.250757 0.728942 0.202154 0.218472
C41   C     C_R   0.192052 0.650353 0.173421 0.007332
C42   C     C_R   0.197034 0.539531 0.213346 -0.174283
H24   H     H_    0.163342 0.470889 0.190810 0.154396
C43   C     C_R   0.236089 0.523626 0.284733 -0.106934
H25   H     H_    0.234885 0.440396 0.315644 0.208175
C44   C     C_R   0.266922 0.620770 0.316603 -0.025477
O14   O     O_R   0.089490 0.825610 0.930610 -0.501025
O15   O     O_R   0.818370 0.054540 0.929880 -0.512491
C45   C     C_R   0.700873 0.105789 0.897359 0.557065
O16   O     O_R   0.605870 0.077310 0.915530 -0.466590
O17   O     O_R   0.646440 0.806700 0.917570 -0.467118
C46   C     C_R   0.721611 0.684409 0.889427 0.573935
O18   O     O_R   0.837200 0.593290 0.915250 -0.468400
O19   O     O_R   0.065330 0.635370 0.931590 -0.492599
C47   C     C_R   0.117030 0.707395 0.905041 0.552983
O20   O     O_R   0.068300 0.828790 0.091860 -0.445965
O21   O     O_R   0.798730 0.057480 0.079370 -0.504354
C48   C     C_R   0.673525 0.108357 0.103461 0.530798
O22   O     O_R   0.584680 0.080480 0.076790 -0.534809
O23   O     O_R   0.626790 0.809640 0.067050 -0.466800
C49   C     C_R   0.733469 0.718994 0.105383 0.569580
O24   O     O_R   0.816010 0.596460 0.076500 -0.506278
O25   O     O_R   0.045680 0.638310 0.081070 -0.543184
C50   C     C_R   0.102561 0.704202 0.109889 0.554685
Cr4   Cr    Cr6+3 0.937620 0.938540 0.007640 1.085150
Cr5   Cr    Cr6+3 0.625150 0.937450 0.994520 1.091886
Cr6   Cr    Cr6+3 0.937990 0.625080 0.001190 1.069005
O26   O     O_3   0.833590 0.833690 0.001120 -0.301835
N1    N     N_R   0.550068 0.921768 0.781555 0.102822
O27   O     O_R   0.665687 0.924858 0.789541 -0.350169
O28   O     O_R   0.433759 0.039222 0.766410 -0.314425
O29   O     O_3   0.804965 0.367444 0.717158 -0.652160
H26   H     H_    0.803141 0.337571 0.668048 0.356569
N2    N     N_R   0.953661 0.471974 0.775142 0.084399
O30   O     O_R   0.999883 0.413977 0.837132 -0.308047
O31   O     O_R   0.029349 0.398274 0.720680 -0.327674
O32   O     O_3   0.436224 0.808544 0.833294 -0.724906
H27   H     H_    0.414345 0.885550 0.867753 0.374736
N3    N     N_R   0.936882 0.500030 0.334852 0.079789
O33   O     O_R   0.965026 0.536556 0.395716 -0.296315
O34   O     O_R   0.028371 0.378554 0.306784 -0.370374
N4    N     N_R   0.274785 0.824409 0.159569 0.084230
O35   O     O_R   0.338357 0.783918 0.097951 -0.317846
O36   O     O_R   0.239561 0.949407 0.183783 -0.361695
N5    N     N_R   0.753042 0.781952 0.659338 0.076923
O37   O     O_R   0.849347 0.816307 0.668094 -0.347896
O38   O     O_R   0.663833 0.843992 0.607615 -0.292068

loop_
_geom_bond_atom_site_label_1
_geom_bond_atom_site_label_2
_geom_bond_distance
_ccdc_geom_bond_type
O15   C45   1.273993 A    
O19   C47   1.278561 A    
C13   H7    1.101896 S    
O29   H26   0.982559 S    
C25   H15   1.083472 S    
O14   Cr4   2.067226 S    
C42   H24   1.081098 S    
C21   C26   1.395919 A    
O4    Cr2   1.961678 S    
C39   H23   1.078964 S    
O32   H27   0.991718 S    
Cr5   O26   1.974450 S    
O8    Cr1   1.935990 S    
C10   C11   1.549427 S    
O22   Cr5   2.082575 S    
C37   C38   1.401273 A    
C4    C44   1.456939 S    
C8    H2    1.109799 S    
C10   H5    1.112214 S    
C15   H8    1.082931 S    
Cr6   O26   1.965830 S    
C5    O11   1.261759 A    
C27   N3    1.436598 S    
N1    O27   1.296256 A    
O12   C6    1.277253 A    
C19   C20   1.400750 A    
C34   C35   1.398098 A    
N3    O33   1.301719 A    
C30   C31   1.397152 A    
O14   C47   1.265913 A    
O25   C50   1.292395 A    
C7    O32   1.416819 S    
C27   C32   1.416861 A    
C14   H6    1.111981 S    
N1    O28   1.302025 A    
O6    C3    1.282709 A    
C22   C23   1.398807 A    
C7    C8    1.540685 S    
C23   C47   1.456000 S    
C11   C46   1.482267 S    
C21   C22   1.391444 A    
C9    C13   1.556150 S    
C28   H16   1.079832 S    
Cr3   O13   1.973669 S    
C34   H20   1.082989 S    
C42   C43   1.391275 A    
O20   C50   1.260669 A    
C48   O22   1.267597 A    
C24   C25   1.376672 A    
O23   Cr5   1.937424 S    
O1    Cr1   2.054514 S    
C28   C29   1.396773 A    
C37   H22   1.083682 S    
C41   C50   1.467385 S    
C33   H19   1.084005 S    
C7    C11   1.602261 S    
O10   Cr2   1.949548 S    
Cr1   O13   1.990672 S    
O1    C3    1.267615 A    
C8    H1    1.108722 S    
C35   C48   1.436886 S    
C36   C37   1.380935 A    
C46   O18   1.247456 A    
C36   H21   1.083850 S    
C22   H13   1.080227 S    
C27   C28   1.389278 A    
C19   H11   1.071723 S    
C5    C32   1.475779 S    
O12   Cr3   1.966983 S    
O15   Cr4   1.941429 S    
C33   C34   1.369867 A    
C31   C32   1.405322 A    
C18   H10   1.083445 S    
C30   H17   1.080380 S    
O19   Cr6   1.946947 S    
C40   N4    1.436280 S    
C16   C17   1.406969 A    
C43   H25   1.081826 S    
O7    Cr1   2.074165 S    
O21   C48   1.270958 A    
O6    Cr3   1.939995 S    
C15   C20   1.398059 A    
C39   C40   1.384923 A    
C4    O9    1.306226 A    
C18   C19   1.376765 A    
N4    O35   1.301551 A    
C1    C26   1.455731 S    
O18   Cr6   2.090490 S    
C21   H12   1.077958 S    
C43   C44   1.406853 A    
Cr2   O13   1.966476 S    
C3    C20   1.457223 S    
C25   C26   1.401168 A    
C29   C49   1.465623 S    
C17   C45   1.451819 S    
C17   C18   1.391803 A    
C1    O3    1.261201 A    
C14   O29   1.402418 S    
C23   C24   1.400839 A    
N5    O38   1.300717 A    
N2    O30   1.297524 A    
O24   Cr6   2.065622 S    
C16   H9    1.077199 S    
C13   N5    1.474890 S    
O9    Cr2   2.077592 S    
O2    Cr1   1.953263 S    
O17   Cr5   1.965457 S    
C41   C42   1.398128 A    
O8    C4    1.295362 A    
O11   Cr3   2.060494 S    
C24   H14   1.082558 S    
C2    O5    1.283843 A    
C10   C14   1.549702 S    
C8    C12   1.548023 S    
C2    C12   1.475341 S    
C31   H18   1.081243 S    
O21   Cr4   1.947358 S    
O2    C1    1.279915 A    
C35   C36   1.401691 A    
C10   H4    1.111693 S    
O5    Cr3   2.090159 S    
O23   C49   1.302208 A    
O20   Cr4   2.062895 S    
C15   C16   1.397083 A    
O17   C46   1.276080 A    
O4    C2    1.290740 A    
O7    C6    1.265803 A    
C7    N1    1.474446 S    
C9    C11   1.615067 S    
C49   O24   1.294993 A    
C12   C14   1.583969 S    
C12   C13   1.578151 S    
O25   Cr6   1.966788 S    
C29   C30   1.400441 A    
N3    O34   1.301604 A    
N4    O36   1.301464 A    
C9    N2    1.506945 S    
C39   C44   1.389288 A    
C40   C41   1.421438 A    
O3    Cr2   2.069743 S    
C45   O16   1.273610 A    
O16   Cr5   2.055467 S    
H3    C9    1.109135 S    
O10   C5    1.279852 A    
C33   C38   1.401347 A    
Cr4   O26   1.992642 S    
C6    C38   1.438879 S    
N5    O37   1.301136 A    
N2    O31   1.302368 A    
