data_mof_unit_58946.cif
_audit_creation_date              2012-12-10T19:12:31-0500
_audit_creation_method            fapswitch 2.2
_symmetry_space_group_name_H-M    P1
_symmetry_Int_Tables_number       1
_space_group_crystal_system       triclinic
_cell_length_a                    15.714728
_cell_length_b                    10.636746
_cell_length_c                    9.70047
_cell_angle_alpha                 89.847314
_cell_angle_beta                  89.995204
_cell_angle_gamma                 89.972519
_cell_volume                      1621.46224359

loop_
_atom_site_label
_atom_site_type_symbol
_atom_type_description
_atom_site_fract_x
_atom_site_fract_y
_atom_site_fract_z
_atom_type_partial_charge
C1    C     C_R   0.500634 0.257565 0.500451 0.851994
C2    C     C_3   0.082857 0.497531 0.499066 0.190804
C3    C     C_3   0.972423 0.585734 0.588558 -0.192887
C4    C     C_3   0.917411 0.499379 0.498972 0.175513
C5    C     C_3   0.029052 0.612929 0.461192 -0.198750
C6    C     C_3   0.972845 0.525905 0.372962 0.153235
C7    C     C_1   0.173655 0.496963 0.499426 -0.091541
C8    C     C_1   0.826488 0.499963 0.499619 -0.099015
C9    C     C_3   0.506602 0.071363 0.651457 -0.402813
C10   C     C_3   0.508150 0.928827 0.651063 -0.401492
C11   C     C_3   0.415642 0.074531 0.437553 -0.423760
C12   C     C_R   0.337812 0.499212 0.499952 0.922205
C13   C     C_3   0.577061 0.071714 0.417012 -0.416020
C14   C     C_3   0.500167 0.121394 0.501426 0.162125
C15   C     C_3   0.499352 0.878600 0.500714 0.182457
C16   C     C_3   0.417575 0.930046 0.426463 -0.042056
C17   C     C_3   0.578161 0.927245 0.419932 -0.463164
C18   C     C_3   0.565937 0.416430 0.082580 -0.258699
C19   C     C_3   0.567912 0.417355 0.920244 -0.267821
C20   C     C_3   0.416056 0.453127 0.082446 -0.307808
C21   C     C_3   0.512572 0.627079 0.079503 -0.258774
C22   C     C_3   0.415922 0.452559 0.919162 0.422618
C23   C     C_R   0.500222 0.742404 0.500086 0.837221
C24   C     C_3   0.512568 0.625502 0.917042 -0.341949
C25   C     C_R   0.662226 0.500189 0.500026 0.908914
C26   C     C_3   0.971516 0.384372 0.536912 -0.191282
C27   C     C_3   0.028156 0.410849 0.409363 -0.187762
C28   C     C_1   0.248946 0.497695 0.499760 -0.197789
C29   C     C_1   0.751167 0.500174 0.499953 -0.213962
C30   C     C_3   0.028172 0.470697 0.626537 -0.149077
H1    H     H_    0.052972 0.339791 0.335980 0.125855
H2    H     H_    0.458189 0.892837 0.721056 0.160905
H3    H     H_    0.361177 0.107268 0.501306 0.174186
H4    H     H_    0.572809 0.104516 0.308135 0.172924
H5    H     H_    0.637660 0.108411 0.460635 0.159757
H6    H     H_    0.637962 0.893613 0.469424 0.167416
H7    H     H_    0.578222 0.891205 0.312248 0.169269
H8    H     H_    0.406441 0.115602 0.332832 0.150349
H9    H     H_    0.426244 0.909297 0.314625 0.128723
H10   H     H_    0.556206 0.318578 0.120094 0.142918
H11   H     H_    0.945926 0.291315 0.568212 0.133356
H12   H     H_    0.629006 0.446630 0.122381 0.163342
H13   H     H_    0.630794 0.453042 0.884940 0.158649
H14   H     H_    0.563637 0.319930 0.880041 0.147437
H15   H     H_    0.402569 0.357912 0.124824 0.157974
H16   H     H_    0.462341 0.692513 0.116602 0.146458
H17   H     H_    0.574202 0.665016 0.117498 0.157648
H18   H     H_    0.573833 0.663953 0.877847 0.169741
H19   H     H_    0.462000 0.689803 0.878469 0.138057
H20   H     H_    0.363272 0.514136 0.119239 0.135953
H21   H     H_    0.365151 0.518681 0.885029 0.110603
H22   H     H_    0.054533 0.706042 0.429817 0.127459
H23   H     H_    0.947587 0.656881 0.661802 0.142590
H24   H     H_    0.053343 0.447673 0.730505 0.140375
H25   H     H_    0.451280 0.104062 0.713575 0.191635
H26   H     H_    0.565521 0.107018 0.701857 0.165176
H27   H     H_    0.569628 0.896378 0.696078 0.166892
N1    N     N_3   0.498170 0.499750 0.138610 -0.040361
N2    N     N_3   0.498850 0.496730 0.861320 -0.048068
O1    O     O_R   0.499980 0.314910 0.616040 -0.592746
O2    O     O_R   0.500040 0.314680 0.383960 -0.638743
O3    O     O_R   0.376750 0.500100 0.616020 -0.584460
O4    O     O_R   0.376810 0.499870 0.383940 -0.630378
O5    O     O_R   0.499960 0.685320 0.616040 -0.645695
O6    O     O_R   0.500020 0.685090 0.383960 -0.641096
O7    O     O_R   0.623190 0.500130 0.616060 -0.624800
O8    O     O_R   0.623250 0.499900 0.383980 -0.622850
Zn1   Zn    Zn3+2 0.499960 0.500150 0.654960 0.936503
Zn2   Zn    Zn3+2 0.500040 0.499850 0.345040 0.897311
C31   C     C_3   0.330361 0.868142 0.460859 -0.435206
C32   C     C_3   0.304016 0.868414 0.613458 -0.320648
C33   C     C_3   0.208876 0.843629 0.629823 -0.909908
H28   H     H_    0.171417 0.920436 0.581207 0.258850
H29   H     H_    0.191466 0.752949 0.581351 0.269806
H30   H     H_    0.192429 0.839119 0.741056 0.248514
H31   H     H_    0.338569 0.792436 0.668718 0.218276
H32   H     H_    0.318667 0.960104 0.662232 0.227472
H33   H     H_    0.280949 0.917903 0.399211 0.207467
H34   H     H_    0.330493 0.769413 0.423696 0.190630
O9    O     O_3   0.393555 0.334328 0.865289 -0.761511
H35   H     H_    0.426193 0.268712 0.915194 0.306557
C34   C     C_3   0.938615 0.557060 0.229421 -0.438160
C35   C     C_3   0.011304 0.579793 0.127028 -0.333470
C36   C     C_3   0.977173 0.610509 0.983579 -0.908110
H36   H     H_    0.939349 0.530485 0.943107 0.262239
H37   H     H_    0.936555 0.695941 0.986919 0.259582
H38   H     H_    0.031216 0.628416 0.912445 0.248133
H39   H     H_    0.051240 0.659493 0.162906 0.217621
H40   H     H_    0.052032 0.494537 0.120467 0.219216
H41   H     H_    0.898559 0.477509 0.193589 0.200919
H42   H     H_    0.898168 0.642537 0.236463 0.200804

loop_
_geom_bond_atom_site_label_1
_geom_bond_atom_site_label_2
_ccdc_geom_bond_type
O7    Zn1   S    
C6    C34   S    
C31   H33   S    
C2    C7    S    
C25   O8    A    
C36   H38   S    
C4    C8    S    
C21   N1    S    
C30   H24   S    
C26   C27   S    
C12   C28   S    
C8    C29   T    
O5    Zn1   S    
C36   H37   S    
C13   H5    S    
C10   C15   S    
C18   H12   S    
C32   H31   S    
C11   C14   S    
C15   C16   S    
C18   C19   S    
C18   H10   S    
C20   H20   S    
C18   N1    S    
C35   C36   S    
C5    H22   S    
C31   C32   S    
C9    H25   S    
C17   H6    S    
C9    C10   S    
C20   H15   S    
C15   C23   S    
C35   H39   S    
C13   C14   S    
C33   H30   S    
C19   H13   S    
C25   C29   S    
C35   H40   S    
C27   H1    S    
C24   H18   S    
O4    Zn2   S    
C11   H3    S    
C10   H27   S    
C16   C31   S    
C36   H36   S    
C4    C6    S    
C1    O1    A    
C22   N2    S    
C12   O4    A    
C33   H28   S    
C19   N2    S    
C34   H42   S    
O8    Zn2   S    
C3    C30   S    
C9    C14   S    
N2    Zn1   S    
C12   O3    A    
C11   C16   S    
C6    C27   S    
C9    H26   S    
C17   H7    S    
C2    C27   S    
C33   H29   S    
C23   O5    A    
C20   C22   S    
C26   C30   S    
C2    C5    S    
C20   N1    S    
C3    C4    S    
C32   H32   S    
C19   H14   S    
C21   H16   S    
O2    Zn2   S    
C24   H19   S    
C15   C17   S    
C31   H34   S    
C25   O7    A    
O9    H35   S    
C3    C5    S    
C1    O2    A    
C4    C26   S    
N1    Zn2   S    
O3    Zn1   S    
C34   H41   S    
C13   C17   S    
C2    C30   S    
C23   O6    A    
C22   O9    S    
C13   H4    S    
C3    H23   S    
C5    C6    S    
C24   N2    S    
O6    Zn2   S    
C7    C28   T    
C16   H9    S    
C10   H2    S    
C32   C33   S    
O1    Zn1   S    
C34   C35   S    
C21   C24   S    
C11   H8    S    
C1    C14   S    
C26   H11   S    
C22   H21   S    
C21   H17   S    
