data_mof_unit_37406.cif
_audit_creation_date              2012-12-10T19:43:18-0500
_audit_creation_method            fapswitch 2.2
_symmetry_space_group_name_H-M    P1
_symmetry_Int_Tables_number       1
_space_group_crystal_system       triclinic
_cell_length_a                    18.377047
_cell_length_b                    18.405163
_cell_length_c                    18.341462
_cell_angle_alpha                 120.113011
_cell_angle_beta                  89.876746
_cell_angle_gamma                 60.183968
_cell_volume                      4386.60898793

loop_
_atom_site_label
_atom_site_type_symbol
_atom_type_description
_atom_site_fract_x
_atom_site_fract_y
_atom_site_fract_z
_atom_type_partial_charge
C1    C     C_R   0.859678 0.779718 0.636439 0.522497
C2    C     C_R   0.295289 0.278330 0.749939 0.105384
C3    C     C_3   0.333821 0.206565 0.834796 -0.324996
C4    C     C_2   0.062911 0.473939 0.777742 0.265608
C5    C     C_2   0.096814 0.112909 0.199836 0.262622
C6    C     C_R   0.206979 0.321271 0.749625 -0.019514
C7    C     C_R   0.137381 0.220293 0.359846 0.500270
C8    C     C_R   0.162346 0.409847 0.749357 0.029124
C9    C     C_R   0.243313 0.054561 0.333240 0.020919
C10   C     C_R   0.184637 0.109086 0.304171 -0.029547
C11   C     C_R   0.171209 0.054326 0.223254 -0.048213
C12   C     C_R   0.226068 0.944320 0.169172 -0.008956
C13   C     C_R   0.294140 0.891717 0.196501 -0.008799
C14   C     C_R   0.295962 0.949594 0.281670 -0.012887
C15   C     C_R   0.326612 0.605199 0.765593 0.150953
C16   C     C_3   0.367155 0.943737 0.324012 0.079408
C17   C     C_3   0.309954 0.063387 0.377916 0.268669
C18   C     C_R   0.232920 0.552407 0.338791 0.006293
C19   C     C_R   0.860069 0.501393 0.641111 0.585024
C20   C     C_R   0.189635 0.505271 0.304430 0.020270
C21   C     C_R   0.193236 0.466250 0.215065 -0.153631
C22   C     C_R   0.245301 0.467848 0.160136 0.103391
C23   C     C_R   0.296377 0.507186 0.195261 0.055451
C24   C     C_R   0.284376 0.553016 0.286160 -0.001423
C25   C     C_3   0.334834 0.573313 0.349878 0.147092
C26   C     C_R   0.285875 0.556385 0.764640 0.012000
C27   C     C_3   0.277748 0.568484 0.408614 0.118199
C28   C     C_R   0.838327 0.946554 0.707039 0.057256
C29   C     C_R   0.801401 0.891246 0.685557 0.016309
C30   C     C_R   0.707432 0.945895 0.720860 0.105274
C31   C     C_R   0.139217 0.500455 0.360032 0.544874
C32   C     C_R   0.654907 0.053305 0.786367 0.099487
C33   C     C_R   0.694141 0.107912 0.806003 0.005209
C34   C     C_R   0.785834 0.051984 0.765976 0.036180
C35   C     C_3   0.843374 0.064389 0.721234 0.139715
C36   C     C_3   0.901399 0.945239 0.651524 0.143121
C37   C     C_R   0.207610 0.582861 0.742655 -0.055569
C38   C     C_R   0.715510 0.559952 0.339792 0.029930
C39   C     C_R   0.806914 0.505737 0.302592 0.042766
C40   C     C_R   0.845834 0.451817 0.209343 0.107309
C41   C     C_R   0.792750 0.445026 0.154044 0.090303
C42   C     C_R   0.699298 0.500141 0.193445 0.021747
C43   C     C_R   0.860694 0.502302 0.359817 0.577612
C44   C     C_R   0.662952 0.557983 0.286207 0.040670
C45   C     C_3   0.590578 0.670701 0.353223 0.084431
C46   C     C_3   0.646794 0.671424 0.416377 0.016109
C47   C     C_R   0.757780 0.574894 0.782247 -0.052414
C48   C     C_R   0.320733 0.482332 0.784344 0.021469
C49   C     C_R   0.804072 0.496816 0.691917 0.012621
C50   C     C_R   0.796951 0.412272 0.653334 0.008083
C51   C     C_R   0.740089 0.412976 0.707999 -0.040468
C52   C     C_R   0.696740 0.494600 0.800867 -0.014266
C53   C     C_R   0.710353 0.571180 0.834886 -0.019961
C54   C     C_3   0.681874 0.672732 0.918318 0.296736
C55   C     C_R   0.133964 0.506258 0.646589 0.542593
C56   C     C_3   0.738673 0.676045 0.857419 0.312356
C57   C     C_R   0.358658 0.501207 0.139899 0.561557
C58   C     C_R   0.639911 0.499532 0.860072 0.484616
C59   C     C_R   0.290684 0.417847 0.758679 -0.033869
C60   C     C_R   0.358465 0.780015 0.140177 0.512196
C61   C     C_R   0.639737 0.219929 0.860829 0.529952
C62   C     C_R   0.640603 0.500864 0.139712 0.534098
C63   C     C_R   0.366999 0.492777 0.852494 0.561378
C64   C     C_R   0.154834 0.679584 0.757419 -0.068519
C65   C     C_R   0.184441 0.743334 0.783615 -0.009146
C66   C     C_R   0.274394 0.701854 0.778993 -0.009045
C67   C     C_2   0.165147 0.267875 0.743789 0.196396
C68   C     C_2   0.209187 0.885330 0.087848 0.288700
C69   C     C_2   0.370720 0.904193 0.380038 0.247620
C70   C     C_R   0.210528 0.447536 0.739549 -0.029775
C71   C     C_2   0.458217 0.884875 0.259714 0.167179
C72   C     C_3   0.336772 0.123607 0.522731 -0.294476
C73   C     C_3   0.363998 0.087123 0.268326 -0.253991
C74   C     C_3   0.191827 0.502305 0.053570 -0.278986
C75   C     C_2   0.433632 0.489236 0.312662 0.313825
C76   C     C_3   0.238052 0.756765 0.396640 -0.226568
C77   C     C_2   0.328455 0.477549 0.415024 0.252739
C78   C     C_3   0.249849 0.688548 0.569615 -0.269231
C79   C     C_3   0.640795 0.863337 0.730235 -0.262300
C80   C     C_3   0.541878 0.130862 0.919665 -0.257655
C81   C     C_R   0.179746 0.516968 0.714902 0.037484
C82   C     C_3   0.728983 0.122206 0.648622 -0.275731
C83   C     C_2   0.887557 0.107239 0.782348 0.234717
C84   C     C_3   0.928074 0.809844 0.494911 -0.289717
C85   C     C_2   0.996816 0.890362 0.649206 0.280012
C86   C     C_3   0.948925 0.488033 0.183265 -0.286696
C87   C     C_3   0.871303 0.283282 0.007947 -0.216814
C88   C     C_3   0.652875 0.718703 0.272999 -0.277334
C89   C     C_2   0.119975 0.853232 0.818995 0.288259
C90   C     C_2   0.503246 0.691059 0.387888 0.272796
C91   C     C_2   0.670125 0.748037 0.445661 0.226320
C92   C     C_R   0.338465 0.324238 0.750931 0.168235
C93   C     C_2   0.609644 0.682248 0.497900 0.224088
C94   C     C_2   0.850352 0.322587 0.558380 0.303465
C95   C     C_2   0.721177 0.333591 0.669591 0.178903
C96   C     C_3   0.529370 0.784731 0.030976 -0.284981
C97   C     C_3   0.732227 0.592734 0.003121 -0.282409
C98   C     C_3   0.635252 0.862994 0.918589 -0.300963
C99   C     C_3   0.819028 0.751083 0.939158 -0.231720
C100  C     C_2   0.314037 0.758207 0.788877 0.183873
C101  C     C_3   0.469811 0.467873 0.648334 -0.288896
C102  C     C_3   0.483552 0.212791 0.639992 -0.320883
H1    H     H_    0.156833 0.433199 0.187303 0.128205
H2    H     H_    0.407336 0.060413 0.479338 0.167006
H3    H     H_    0.322913 0.182410 0.406855 0.259608
H4    H     H_    0.305832 0.148599 0.267842 0.145791
H5    H     H_    0.377719 0.012045 0.214871 0.133808
H6    H     H_    0.422452 0.086993 0.252734 0.178219
H7    H     H_    0.239718 0.367639 0.042207 0.234688
H8    H     H_    0.120673 0.542762 0.089627 0.123379
H9    H     H_    0.202659 0.463831 0.980760 0.149166
H10   H     H_    0.208017 0.559245 0.076002 0.167135
H11   H     H_    0.471703 0.491777 0.357937 0.124941
H12   H     H_    0.087568 0.709129 0.755800 0.209951
H13   H     H_    0.336357 0.698751 0.447866 0.265649
H14   H     H_    0.233897 0.828975 0.436553 0.187654
H15   H     H_    0.177427 0.770473 0.429332 0.131923
H16   H     H_    0.240020 0.737781 0.328571 0.179168
H17   H     H_    0.373566 0.475121 0.453228 0.081466
H18   H     H_    0.152986 0.686663 0.511922 0.296556
H19   H     H_    0.206218 0.772207 0.623317 0.197917
H20   H     H_    0.318716 0.665836 0.549213 0.145423
H21   H     H_    0.249267 0.646440 0.596377 0.164854
H22   H     H_    0.617090 0.927647 0.658885 0.229319
H23   H     H_    0.179717 0.229813 0.776973 0.142080
H24   H     H_    0.576549 0.928269 0.785640 0.110807
H25   H     H_    0.693595 0.833105 0.756830 0.192751
H26   H     H_    0.633365 0.801213 0.683635 0.168695
H27   H     H_    0.529675 0.078715 0.793240 0.237593
H28   H     H_    0.468636 0.176959 0.950874 0.146863
H29   H     H_    0.565951 0.176626 0.962714 0.182707
H30   H     H_    0.573246 0.059537 0.916501 0.118699
H31   H     H_    0.839564 0.129638 0.652356 0.237372
H32   H     H_    0.663715 0.194469 0.698007 0.142357
H33   H     H_    0.728298 0.055832 0.632238 0.167693
H34   H     H_    0.200709 0.902668 0.038856 0.155324
H35   H     H_    0.738119 0.117996 0.586410 0.171894
H36   H     H_    0.898154 0.159463 0.780714 0.095239
H37   H     H_    0.921062 0.941005 0.537068 0.247168
H38   H     H_    0.938067 0.794470 0.427611 0.128273
H39   H     H_    0.877320 0.797208 0.505599 0.176492
H40   H     H_    0.992595 0.755049 0.494695 0.166016
H41   H     H_    0.041531 0.902619 0.626463 0.075739
H42   H     H_    0.971255 0.344465 0.109478 0.260487
H43   H     H_    0.020932 0.451690 0.155812 0.131737
H44   H     H_    0.913319 0.519951 0.146799 0.114542
H45   H     H_    0.407994 0.911313 0.425906 0.107945
H46   H     H_    0.924018 0.551648 0.255151 0.174399
H47   H     H_    0.871981 0.409609 0.044364 0.238549
H48   H     H_    0.924136 0.244494 0.030479 0.154623
H49   H     H_    0.901558 0.249398 0.937058 0.164548
H50   H     H_    0.819913 0.269277 0.013066 0.211551
H51   H     H_    0.532141 0.737770 0.286909 0.274256
H52   H     H_    0.643134 0.794008 0.306431 0.206961
H53   H     H_    0.717770 0.664195 0.271984 0.165903
H54   H     H_    0.656350 0.689505 0.202496 0.122645
H55   H     H_    0.141937 0.901905 0.831512 0.163222
H56   H     H_    0.484091 0.812038 0.196507 0.070771
H57   H     H_    0.449902 0.767132 0.444881 0.100416
H58   H     H_    0.616863 0.829506 0.487526 0.091410
H59   H     H_    0.550113 0.755386 0.551508 0.063104
H60   H     H_    0.875385 0.245906 0.538701 0.145411
H61   H     H_    0.697487 0.319999 0.712413 0.137394
H62   H     H_    0.557548 0.743468 0.900515 0.251769
H63   H     H_    0.458879 0.840532 0.042680 0.132751
H64   H     H_    0.546539 0.824772 0.089229 0.164302
H65   H     H_    0.535444 0.719058 0.025294 0.164404
H66   H     H_    0.698031 0.738314 0.045376 0.256575
H67   H     H_    0.212008 0.180689 0.507391 0.305140
H68   H     H_    0.764893 0.597751 0.054657 0.124245
H69   H     H_    0.777684 0.514037 0.941025 0.173028
H70   H     H_    0.668242 0.606647 0.027137 0.141838
H71   H     H_    0.660166 0.739105 0.793405 0.241099
H72   H     H_    0.661859 0.903242 0.913359 0.130435
H73   H     H_    0.634404 0.872219 0.983225 0.177030
H74   H     H_    0.565420 0.900775 0.919245 0.133863
H75   H     H_    0.861486 0.599160 0.874166 0.256888
H76   H     H_    0.884715 0.726223 0.948836 0.180863
H77   H     H_    0.768692 0.795227 0.004652 0.119671
H78   H     H_    0.323434 0.118771 0.578470 0.178242
H79   H     H_    0.805675 0.800387 0.916039 0.175853
H80   H     H_    0.356620 0.761919 0.829476 0.114074
H81   H     H_    0.445872 0.594378 0.768608 0.258656
H82   H     H_    0.542358 0.426851 0.637053 0.192493
H83   H     H_    0.454194 0.498973 0.607576 0.149742
H84   H     H_    0.452579 0.411883 0.626443 0.145633
H85   H     H_    0.458031 0.229430 0.759766 0.278135
H86   H     H_    0.555066 0.177715 0.632119 0.137042
H87   H     H_    0.462236 0.264111 0.617680 0.156316
H88   H     H_    0.475128 0.150374 0.597030 0.130376
H89   H     H_    0.326844 0.198330 0.550051 0.143074
H90   H     H_    0.404831 0.131615 0.702586 0.242813
H91   H     H_    0.365932 0.245655 0.869400 0.180804
H92   H     H_    0.367247 0.132544 0.827341 0.139335
H93   H     H_    0.262905 0.255488 0.876569 0.139480
H94   H     H_    0.025375 0.443906 0.778602 0.150929
H95   H     H_    0.034737 0.182846 0.252444 0.145175
N1    N     N_2   0.276106 0.115182 0.474153 -0.496177
N2    N     N_2   0.936198 0.412117 0.172614 -0.471201
N3    N     N_2   0.831822 0.392307 0.060585 -0.510862
N4    N     N_2   0.578130 0.732012 0.319436 -0.555553
N5    N     N_2   0.585991 0.750618 0.950040 -0.509631
N6    N     N_2   0.717709 0.668528 0.988446 -0.524942
N7    N     N_2   0.688967 0.755719 0.842305 -0.494799
N8    N     N_2   0.821428 0.662029 0.872696 -0.453003
N9    N     N_2   0.421237 0.550663 0.742185 -0.493626
N10   N     N_2   0.432380 0.270370 0.732655 -0.489976
N11   N     N_2   0.340824 0.187456 0.747488 -0.547274
N12   N     N_2   0.347641 0.107325 0.356284 -0.461162
N13   N     N_2   0.248218 0.426240 0.069628 -0.495042
N14   N     N_2   0.318071 0.674520 0.391753 -0.445471
N15   N     N_2   0.216863 0.666239 0.494958 -0.545834
N16   N     N_2   0.665285 0.894980 0.682359 -0.478064
N17   N     N_2   0.562701 0.106359 0.830746 -0.496855
N18   N     N_2   0.799122 0.123427 0.684567 -0.534523
N19   N     N_2   0.896740 0.915177 0.562078 -0.548111
O1    O     O_3   1.000000 0.500000 0.500000 -0.469683
O2    O     O_R   0.676550 0.268320 0.884150 -0.527198
O3    O     O_R   0.555150 0.560600 0.176460 -0.498965
O4    O     O_R   0.944950 0.731580 0.615800 -0.513895
O5    O     O_R   0.384220 0.439220 0.884170 -0.529126
O6    O     O_R   0.676580 0.439170 0.055020 -0.527510
O7    O     O_R   0.384230 0.560650 0.884170 -0.502571
O8    O     O_R   0.384260 0.731500 0.055040 -0.544237
O9    O     O_R   0.555100 0.268330 0.884160 -0.523061
O10   O     O_R   0.384250 0.560620 0.176470 -0.496542
O11   O     O_R   0.676570 0.439190 0.884150 -0.564767
O12   O     O_R   0.944910 0.439280 0.615800 -0.517650
O13   O     O_R   0.115780 0.268410 0.444920 -0.540221
O14   O     O_R   0.823470 0.560720 0.615800 -0.511373
O15   O     O_R   0.115800 0.439290 0.323490 -0.545996
O16   O     O_R   0.823460 0.560740 0.444930 -0.475449
O17   O     O_R   0.115830 0.560690 0.615790 -0.538698
O18   O     O_R   0.944900 0.439310 0.323490 -0.523154
O19   O     O_R   0.115810 0.439260 0.615790 -0.530597
O20   O     O_2   0.118320 0.260344 0.697275 -0.529979
O21   O     O_2   0.204017 0.816555 0.075278 -0.494827
O22   O     O_2   0.332972 0.863521 0.374349 -0.507540
O23   O     O_R   0.115820 0.560710 0.444920 -0.548105
O24   O     O_2   0.506034 0.914731 0.280296 -0.522827
O25   O     O_2   0.471283 0.417938 0.233480 -0.500206
O26   O     O_2   0.320708 0.406396 0.377381 -0.506982
O27   O     O_2   0.913687 0.081866 0.832230 -0.489094
O28   O     O_2   0.024712 0.831662 0.671372 -0.456844
O29   O     O_2   0.040024 0.892571 0.838749 -0.426061
O30   O     O_2   0.492177 0.622677 0.352911 -0.479048
O31   O     O_2   0.746646 0.721252 0.424117 -0.540760
O32   O     O_2   0.645510 0.610780 0.505036 -0.454151
O33   O     O_2   0.866226 0.333204 0.501040 -0.494440
O34   O     O_R   0.823500 0.731590 0.615800 -0.514884
O35   O     O_2   0.727436 0.286007 0.591024 -0.537941
O36   O     O_2   0.301365 0.798798 0.749826 -0.544196
O37   O     O_2   0.020810 0.564042 0.805016 -0.542110
O38   O     O_2   0.104787 0.086678 0.122965 -0.524360
O39   O     O_R   0.115770 0.268420 0.323490 -0.545720
O40   O     O_3   0.500040 0.499910 0.999960 -0.463817
O41   O     O_R   0.384230 0.439200 0.055040 -0.516948
O42   O     O_R   0.555130 0.560630 0.884160 -0.552650
O43   O     O_R   0.384270 0.731490 0.176470 -0.515232
Zn1   Zn    Zn3+2 0.043370 0.413240 0.543370 0.991387
Zn2   Zn    Zn3+2 0.869870 0.586760 0.543380 1.014545
Zn3   Zn    Zn3+2 0.043360 0.413260 0.369880 0.964516
Zn4   Zn    Zn3+2 0.043390 0.586740 0.543370 0.967513
Zn5   Zn    Zn3+2 0.456670 0.586670 0.956580 0.930250
Zn6   Zn    Zn3+2 0.456680 0.586650 0.130080 1.006926
Zn7   Zn    Zn3+2 0.630180 0.413150 0.956570 0.923104
Zn8   Zn    Zn3+2 0.456650 0.413170 0.956580 0.952350

loop_
_geom_bond_atom_site_label_1
_geom_bond_atom_site_label_2
_ccdc_geom_bond_type
C21   H1    S    
H18   N15   S    
C7    C10   S    
C79   H26   S    
C94   O33   D    
C80   H30   S    
C41   C42   A    
C63   O5    A    
O18   Zn3   S    
C35   C36   S    
O41   Zn8   S    
O40   Zn6   S    
O23   Zn4   S    
C85   H41   S    
C47   C49   A    
C13   C60   S    
C77   H17   S    
C45   C46   S    
C44   C45   S    
C48   C63   S    
C65   C89   S    
O5    Zn8   S    
C12   C68   S    
C3    H91   S    
O1    Zn1   S    
O40   Zn8   S    
C74   N13   S    
H71   N7    S    
O1    Zn4   S    
C3    N11   S    
C87   N3    S    
C60   O43   A    
C73   N12   S    
C28   C29   A    
C97   N6    S    
C7    O13   A    
C5    C11   S    
C82   H35   S    
C17   N12   S    
C68   O21   D    
C67   H23   S    
C74   H10   S    
C38   C39   A    
O6    Zn7   S    
O43   Zn6   S    
C73   H5    S    
C54   N6    S    
C83   O27   D    
C82   H33   S    
C102  H87   S    
H3    N12   S    
C4    H94   S    
C34   C35   S    
C99   H77   S    
C66   C100  S    
C90   H57   S    
C25   N14   S    
C70   C81   A    
O40   Zn7   S    
C76   H14   S    
C56   N8    S    
C89   O29   D    
C16   C17   S    
C87   H48   S    
C31   O15   A    
C4    C8    S    
C23   C24   A    
C75   H11   S    
C93   H59   S    
C88   N4    S    
C55   C81   S    
C100  H80   S    
C102  N10   S    
C94   H60   S    
C72   H89   S    
C26   C48   A    
C86   N2    S    
C47   C53   A    
C32   N17   S    
O14   Zn2   S    
C28   C34   A    
C80   H29   S    
C87   H49   S    
C13   C14   A    
H90   N11   S    
C37   C81   A    
C2    C6    A    
C16   C71   S    
C42   C44   A    
C4    O37   D    
C55   O17   A    
C41   N3    S    
C101  H83   S    
C60   O8    A    
H47   N3    S    
O7    Zn5   S    
C50   C51   A    
H51   N4    S    
H22   N16   S    
C39   C43   S    
C52   C58   S    
C91   O31   D    
C67   O20   D    
C99   N8    S    
C3    H92   S    
O1    Zn2   S    
O16   Zn2   S    
C18   C27   S    
C51   C52   A    
H31   N18   S    
C88   H53   S    
C63   O7    A    
C18   C24   A    
C68   H34   S    
C64   H12   S    
C61   O2    A    
C99   H76   S    
O8    Zn5   S    
C10   C11   A    
C95   O35   D    
C74   H9    S    
C9    C14   A    
C35   C83   S    
C43   O16   A    
C50   C94   S    
C15   C26   A    
C6    C8    A    
C46   C91   S    
C72   H2    S    
C100  O36   D    
C53   C54   S    
C15   C66   A    
C85   O28   D    
C61   O9    A    
C97   H68   S    
C77   O26   D    
C32   C33   A    
C25   C75   S    
C88   H52   S    
C5    O38   D    
C82   H32   S    
C45   N4    S    
C19   O12   A    
O34   Zn2   S    
C38   C44   A    
C29   C30   A    
C75   O25   D    
C93   O32   D    
C95   H61   S    
C69   O22   D    
C98   H74   S    
C19   C49   S    
C96   H64   S    
O39   Zn3   S    
C84   H40   S    
H37   N19   S    
C1    C29   S    
C33   C34   A    
C96   H65   S    
C17   N1    S    
O11   Zn7   S    
C36   N19   S    
C24   C25   S    
C2    C92   A    
C78   H21   S    
C97   H70   S    
C28   C36   S    
C91   H58   S    
C101  H82   S    
H62   N5    S    
C42   C62   S    
O2    Zn7   S    
C57   O10   A    
C73   H6    S    
C76   N14   S    
C9    C17   S    
C6    C67   S    
C80   H28   S    
C76   H16   S    
O10   Zn6   S    
C49   C50   A    
C87   H50   S    
O40   Zn5   S    
C69   H45   S    
C14   C16   S    
O4    Zn4   S    
C2    N11   S    
C72   H78   S    
O15   Zn3   S    
H7    N13   S    
C88   H54   S    
C86   H43   S    
C78   N15   S    
C86   H44   S    
C37   C64   A    
C52   C53   A    
C48   C59   A    
C9    C10   A    
C98   N7    S    
C12   C13   A    
C23   C57   S    
C71   H56   S    
C79   H25   S    
C40   C41   A    
O1    Zn3   S    
C7    O39   A    
C1    O34   A    
C79   H24   S    
O42   Zn5   S    
C16   C69   S    
C55   O19   A    
C54   C56   S    
C27   C77   S    
C43   O18   A    
C86   H46   S    
C74   H8    S    
C5    H95   S    
C11   C12   A    
O12   Zn1   S    
C26   C37   A    
C89   H55   S    
C56   N7    S    
C40   N2    S    
H13   N14   S    
C36   C85   S    
C25   C27   S    
C8    C70   A    
C76   H15   S    
C97   H69   S    
H66   N6    S    
O17   Zn4   S    
C71   O24   D    
O3    Zn6   S    
C96   N5    S    
C92   N10   S    
C54   N5    S    
C62   O3    A    
C30   N16   S    
C30   C32   A    
C98   H73   S    
C80   N17   S    
C73   H4    S    
H42   N2    S    
C84   H39   S    
C98   H72   S    
C90   O30   D    
C64   C65   A    
C57   O41   A    
C27   N15   S    
C102  H88   S    
C22   N13   S    
H75   N8    S    
H27   N17   S    
C1    O4    A    
C18   C20   A    
C58   O42   A    
C62   O6    A    
C46   C93   S    
C78   H20   S    
C19   O14   A    
C3    H93   S    
C38   C46   S    
C15   N9    S    
C101  N9    S    
C59   C70   A    
C72   N1    S    
C82   N18   S    
C39   C40   A    
O13   Zn1   S    
C84   N19   S    
C79   N16   S    
C20   C21   A    
C84   H38   S    
C33   C61   S    
C65   C66   A    
O19   Zn1   S    
H85   N10   S    
H81   N9    S    
C22   C23   A    
H67   N1    S    
C99   H79   S    
C31   O23   A    
C59   C92   A    
C102  H86   S    
C21   C22   A    
C35   N18   S    
O9    Zn8   S    
C83   H36   S    
C45   C90   S    
C58   O11   A    
C101  H84   S    
C51   C95   S    
C47   C56   S    
C96   H63   S    
C20   C31   S    
C78   H19   S    
