data_mof_unit_62161.cif
_audit_creation_date              2012-12-10T16:58:32-0500
_audit_creation_method            fapswitch 2.2
_symmetry_space_group_name_H-M    P1
_symmetry_Int_Tables_number       1
_space_group_crystal_system       monoclinic
_cell_length_a                    31.148262
_cell_length_b                    30.393183
_cell_length_c                    24.695598
_cell_angle_alpha                 90.0
_cell_angle_beta                  128.308796
_cell_angle_gamma                 90.0
_cell_volume                      18345.2150041

loop_
_atom_site_label
_atom_site_type_symbol
_atom_type_description
_atom_site_fract_x
_atom_site_fract_y
_atom_site_fract_z
_atom_type_partial_charge
C1    C     C_R   0.808767 0.810013 0.499461 0.867300
C2    C     C_R   0.535859 0.749000 0.069706 0.321619
C3    C     C_R   0.927080 0.283999 0.818539 -0.232411
C4    C     C_R   0.574089 0.749103 0.145224 -0.053222
C5    C     C_R   0.425911 0.749103 0.854776 -0.053222
C6    C     C_R   0.074089 0.249103 0.145224 -0.053222
C7    C     C_R   0.925911 0.249103 0.854776 -0.053222
C8    C     C_R   0.611676 0.714580 0.181771 0.664588
C9    C     C_R   0.388324 0.714580 0.818229 0.664588
C10   C     C_R   0.111676 0.214580 0.181771 0.664588
C11   C     C_R   0.888324 0.214580 0.818229 0.664588
C12   C     C_R   0.647431 0.715149 0.253579 -0.255708
C13   C     C_R   0.964141 0.249000 0.930294 0.321619
C14   C     C_R   0.352569 0.715149 0.746421 -0.255708
C15   C     C_R   0.147431 0.215149 0.253579 -0.255708
C16   C     C_R   0.852569 0.215149 0.746421 -0.255708
C17   C     C_3   0.956520 0.723276 0.708681 0.182441
C18   C     C_3   0.967626 0.727069 0.656938 -0.830402
C19   C     C_3   0.043480 0.723276 0.291319 0.182441
C20   C     C_3   0.032374 0.727069 0.343062 -0.830403
C21   C     C_3   0.456520 0.223276 0.708681 0.182441
C22   C     C_3   0.467626 0.227069 0.656938 -0.830402
C23   C     C_3   0.543480 0.223276 0.291319 0.182442
C24   C     C_R   0.035859 0.249000 0.069706 0.321619
C25   C     C_3   0.532374 0.227069 0.343062 -0.830403
C26   C     C_3   0.641691 0.659460 0.651980 0.105963
C27   C     C_3   0.643885 0.650527 0.714233 -0.753930
C28   C     C_3   0.358309 0.659460 0.348020 0.105965
C29   C     C_3   0.356114 0.650527 0.285767 -0.753930
C30   C     C_3   0.141691 0.159460 0.651980 0.105966
C31   C     C_3   0.143885 0.150527 0.714233 -0.753931
C32   C     C_3   0.858309 0.159460 0.348020 0.105964
C33   C     C_3   0.856114 0.150527 0.285767 -0.753930
C34   C     C_3   0.862229 0.795826 0.387479 0.096428
C35   C     C_2   0.875922 0.879615 0.445263 -0.248051
C36   C     C_3   0.846635 0.750480 0.354319 -0.765764
C37   C     C_3   0.137771 0.795826 0.612521 0.096430
C38   C     C_3   0.153365 0.750480 0.645681 -0.765765
C39   C     C_3   0.362229 0.295826 0.387479 0.096428
C40   C     C_3   0.346635 0.250480 0.354319 -0.765766
C41   C     C_3   0.637771 0.295826 0.612521 0.096430
C42   C     C_3   0.653365 0.250480 0.645681 -0.765767
C43   C     C_3   0.871624 0.877993 0.599938 0.060221
C44   C     C_3   0.894428 0.921472 0.638248 -0.723519
C45   C     C_3   0.128376 0.877993 0.400062 0.060221
C46   C     C_2   0.124078 0.879615 0.554737 -0.248051
C47   C     C_3   0.105572 0.921472 0.361752 -0.723519
C48   C     C_3   0.371624 0.377993 0.599938 0.060222
C49   C     C_3   0.394428 0.421472 0.638248 -0.723519
C50   C     C_3   0.628376 0.377993 0.400062 0.060221
C51   C     C_3   0.605572 0.421472 0.361752 -0.723519
C52   C     C_3   0.757798 0.783556 0.717509 0.144504
C53   C     C_3   0.696116 0.778713 0.674320 -0.840403
C54   C     C_3   0.242202 0.783556 0.282491 0.144502
C55   C     C_3   0.303884 0.778713 0.325679 -0.840402
C56   C     C_3   0.257798 0.283556 0.717509 0.144504
C57   C     C_2   0.375922 0.379615 0.445263 -0.248051
C58   C     C_3   0.196116 0.278714 0.674320 -0.840403
C59   C     C_3   0.742202 0.283556 0.282491 0.144502
C60   C     C_3   0.803884 0.278714 0.325679 -0.840403
C61   C     C_2   0.624078 0.379615 0.554737 -0.248051
C62   C     C_2   0.917944 0.899403 0.502518 -0.314532
C63   C     C_2   0.082056 0.899403 0.497481 -0.314532
C64   C     C_2   0.417944 0.399403 0.502518 -0.314533
C65   C     C_R   0.191233 0.810013 0.500539 0.867301
C66   C     C_2   0.582056 0.399403 0.497481 -0.314532
C67   C     C_2   0.849075 0.842063 0.451072 0.388006
C68   C     C_2   0.150925 0.842063 0.548928 0.388005
C69   C     C_2   0.349075 0.342063 0.451072 0.388006
C70   C     C_2   0.650924 0.342063 0.548928 0.388005
C71   C     C_2   0.838483 0.845159 0.496322 0.227563
C72   C     C_2   0.161517 0.845159 0.503677 0.227563
C73   C     C_2   0.338483 0.345159 0.496322 0.227562
C74   C     C_2   0.661517 0.345159 0.503677 0.227563
C75   C     C_R   0.835185 0.750281 0.747144 0.410588
C76   C     C_R   0.308767 0.310013 0.499461 0.867301
C77   C     C_R   0.164815 0.750281 0.252856 0.410589
C78   C     C_R   0.335185 0.250281 0.747144 0.410589
C79   C     C_R   0.664815 0.250281 0.252856 0.410589
C80   C     C_R   0.871972 0.750830 0.819109 -0.351442
C81   C     C_R   0.128028 0.750830 0.180891 -0.351442
C82   C     C_R   0.371972 0.250830 0.819109 -0.351442
C83   C     C_R   0.628028 0.250830 0.180891 -0.351442
C84   C     C_R   0.928309 0.755801 0.854108 -0.163204
C85   C     C_R   0.071691 0.755801 0.145892 -0.163204
C86   C     C_R   0.428309 0.255801 0.854108 -0.163205
C87   C     C_R   0.691233 0.310013 0.500539 0.867301
C88   C     C_R   0.571691 0.255801 0.145892 -0.163205
C89   C     C_R   0.947901 0.759335 0.815963 0.559203
C90   C     C_R   0.052098 0.759335 0.184037 0.559203
C91   C     C_R   0.447902 0.259335 0.815963 0.559203
C92   C     C_R   0.552098 0.259335 0.184037 0.559203
C93   C     C_R   0.682835 0.749950 0.365192 0.934010
C94   C     C_R   0.317165 0.749950 0.634808 0.934010
C95   C     C_R   0.182835 0.249950 0.365192 0.934009
C96   C     C_R   0.817165 0.249950 0.634808 0.934010
C97   C     C_R   0.911743 0.755956 0.743925 0.271977
C98   C     C_R   0.645642 0.749748 0.289708 -0.125759
C99   C     C_R   0.088257 0.755956 0.256075 0.271976
C100  C     C_R   0.411743 0.255956 0.743925 0.271977
C101  C     C_R   0.588257 0.255956 0.256075 0.271976
C102  C     C_R   0.855315 0.751763 0.709658 -0.319110
C103  C     C_R   0.144685 0.751763 0.290342 -0.319110
C104  C     C_R   0.355315 0.251763 0.709658 -0.319110
C105  C     C_R   0.644685 0.251763 0.290342 -0.319110
C106  C     C_R   0.034228 0.756950 0.069931 0.365933
C107  C     C_R   0.965772 0.756950 0.930069 0.365933
C108  C     C_R   0.534228 0.256950 0.069931 0.365933
C109  C     C_R   0.354357 0.749748 0.710292 -0.125758
C110  C     C_R   0.465772 0.256950 0.930069 0.365934
C111  C     C_2   0.611171 0.629070 0.546192 0.379905
C112  C     C_2   0.388829 0.629070 0.453807 0.379904
C113  C     C_2   0.111171 0.129070 0.546192 0.379904
C114  C     C_2   0.888829 0.129070 0.453807 0.379904
C115  C     C_2   0.584154 0.598741 0.495738 0.464603
C116  C     C_2   0.415846 0.598741 0.504262 0.464602
C117  C     C_2   0.084154 0.098741 0.495738 0.464603
C118  C     C_2   0.915846 0.098741 0.504262 0.464603
C119  C     C_2   0.637419 0.665128 0.536102 -0.403393
C120  C     C_R   0.145643 0.249748 0.289708 -0.125759
C121  C     C_2   0.362581 0.665128 0.463898 -0.403393
C122  C     C_2   0.137419 0.165128 0.536102 -0.403393
C123  C     C_2   0.862581 0.165128 0.463898 -0.403393
C124  C     C_2   0.668866 0.655680 0.517855 0.543359
C125  C     C_2   0.331134 0.655680 0.482145 0.543359
C126  C     C_2   0.168866 0.155680 0.517855 0.543359
C127  C     C_2   0.831133 0.155680 0.482145 0.543359
C128  C     C_R   0.442341 0.561171 0.500608 0.850587
C129  C     C_R   0.557659 0.561171 0.499392 0.850586
C130  C     C_R   0.942341 0.061171 0.500608 0.850587
C131  C     C_R   0.854357 0.249748 0.710292 -0.125758
C132  C     C_R   0.057659 0.061171 0.499392 0.850586
C133  C     C_R   0.942754 0.938533 0.500393 0.945940
C134  C     C_R   0.057246 0.938533 0.499607 0.945940
C135  C     C_R   0.442754 0.438533 0.500393 0.945940
C136  C     C_R   0.557246 0.438533 0.499607 0.945940
C137  C     C_R   0.692864 0.690013 0.503984 0.840336
C138  C     C_R   0.307136 0.690013 0.496016 0.840336
C139  C     C_R   0.192864 0.190013 0.503984 0.840336
C140  C     C_R   0.807136 0.190013 0.496016 0.840336
C141  C     C_R   0.817255 0.750306 0.634532 0.998824
C142  C     C_R   0.464141 0.749000 0.930294 0.321619
C143  C     C_R   0.182745 0.750306 0.365468 0.998823
C144  C     C_R   0.317255 0.250306 0.634532 0.998824
C145  C     C_R   0.682745 0.250306 0.365468 0.998823
C146  C     C_R   0.608162 0.784161 0.253217 -0.175283
C147  C     C_R   0.391838 0.784161 0.746782 -0.175282
C148  C     C_R   0.108162 0.284161 0.253217 -0.175283
C149  C     C_R   0.891838 0.284161 0.746782 -0.175282
C150  C     C_R   0.572920 0.783999 0.181460 -0.232411
C151  C     C_R   0.427080 0.783999 0.818539 -0.232411
C152  C     C_R   0.072920 0.283999 0.181460 -0.232411
F1    F     F_    0.001661 0.767055 0.847845 -0.644512
F2    F     F_    0.317209 0.613247 0.482789 -0.619707
F3    F     F_    0.182791 0.113247 0.517211 -0.619707
F4    F     F_    0.817209 0.113247 0.482789 -0.619707
F5    F     F_    0.614713 0.680800 0.148302 -0.643699
F6    F     F_    0.385287 0.680800 0.851698 -0.643699
F7    F     F_    0.114713 0.180800 0.148302 -0.643699
F8    F     F_    0.885287 0.180800 0.851698 -0.643699
F9    F     F_    0.998339 0.767055 0.152155 -0.644511
F10   F     F_    0.501660 0.267055 0.847845 -0.644512
F11   F     F_    0.498339 0.267055 0.152155 -0.644511
F12   F     F_    0.575315 0.604935 0.434784 -0.635320
F13   F     F_    0.424684 0.604935 0.565216 -0.635320
F14   F     F_    0.075316 0.104935 0.434784 -0.635320
F15   F     F_    0.924684 0.104935 0.565216 -0.635320
F16   F     F_    0.682791 0.613247 0.517211 -0.619707
H1    H     H_    0.606296 0.811326 0.280087 0.175487
H2    H     H_    0.369750 0.698975 0.457325 0.126159
H3    H     H_    0.341697 0.365680 0.606861 0.173128
H4    H     H_    0.360835 0.445775 0.616747 0.270261
H5    H     H_    0.414562 0.416476 0.693831 0.212439
H6    H     H_    0.425001 0.434571 0.633042 0.256667
H7    H     H_    0.593726 0.354230 0.376281 0.145799
H8    H     H_    0.658302 0.365680 0.393139 0.173128
H9    H     H_    0.639165 0.445775 0.383253 0.270261
H10   H     H_    0.585437 0.416476 0.306169 0.212439
H11   H     H_    0.574999 0.434571 0.366958 0.256668
H12   H     H_    0.766386 0.812084 0.697132 0.150304
H13   H     H_    0.130250 0.198975 0.542674 0.126159
H14   H     H_    0.774617 0.790446 0.771678 0.141249
H15   H     H_    0.686325 0.752208 0.696004 0.241580
H16   H     H_    0.678026 0.810013 0.674916 0.214022
H17   H     H_    0.678037 0.770514 0.620170 0.259675
H18   H     H_    0.233614 0.812084 0.302868 0.150304
H19   H     H_    0.225383 0.790446 0.228322 0.141250
H20   H     H_    0.313675 0.752208 0.303996 0.241580
H21   H     H_    0.321974 0.810013 0.325084 0.214022
H22   H     H_    0.321963 0.770514 0.379830 0.259675
H23   H     H_    0.266386 0.312084 0.697132 0.150304
H24   H     H_    0.869750 0.198975 0.457325 0.126159
H25   H     H_    0.274617 0.290446 0.771678 0.141250
H26   H     H_    0.186325 0.252208 0.696004 0.241580
H27   H     H_    0.178026 0.310013 0.674916 0.214023
H28   H     H_    0.178037 0.270514 0.620170 0.259675
H29   H     H_    0.733614 0.312084 0.302868 0.150304
H30   H     H_    0.725383 0.290446 0.228322 0.141250
H31   H     H_    0.813675 0.252208 0.303996 0.241580
H32   H     H_    0.821974 0.310013 0.325084 0.214022
H33   H     H_    0.821963 0.270514 0.379830 0.259675
H34   H     H_    0.544153 0.810846 0.154301 0.180493
H35   H     H_    0.455847 0.810846 0.845699 0.180493
H36   H     H_    0.044153 0.310846 0.154301 0.180493
H37   H     H_    0.955847 0.310846 0.845699 0.180493
H38   H     H_    0.676195 0.688316 0.280865 0.190471
H39   H     H_    0.323805 0.688316 0.719135 0.190471
H40   H     H_    0.176195 0.188316 0.280865 0.190471
H41   H     H_    0.393704 0.811326 0.719912 0.175487
H42   H     H_    0.823805 0.188316 0.719135 0.190471
H43   H     H_    0.860587 0.890970 0.394429 0.175093
H44   H     H_    0.139412 0.890970 0.605571 0.175093
H45   H     H_    0.360587 0.390970 0.394429 0.175093
H46   H     H_    0.639412 0.390970 0.605571 0.175093
H47   H     H_    0.935550 0.885790 0.553049 0.164565
H48   H     H_    0.064450 0.885790 0.446951 0.164565
H49   H     H_    0.435550 0.385790 0.553049 0.164565
H50   H     H_    0.564450 0.385790 0.446951 0.164565
H51   H     H_    0.930364 0.693703 0.694963 0.132976
H52   H     H_    0.106296 0.311326 0.280087 0.175487
H53   H     H_    0.996285 0.718603 0.760895 0.191154
H54   H     H_    0.994320 0.755895 0.669653 0.257244
H55   H     H_    0.988395 0.696841 0.658501 0.205282
H56   H     H_    0.928504 0.731174 0.604026 0.264288
H57   H     H_    0.069636 0.693703 0.305037 0.132975
H58   H     H_    0.003715 0.718603 0.239105 0.191154
H59   H     H_    0.005680 0.755895 0.330347 0.257244
H60   H     H_    0.011605 0.696841 0.341499 0.205282
H61   H     H_    0.071496 0.731174 0.395974 0.264288
H62   H     H_    0.430364 0.193703 0.694963 0.132976
H63   H     H_    0.893704 0.311327 0.719912 0.175487
H64   H     H_    0.496285 0.218603 0.760895 0.191154
H65   H     H_    0.494320 0.255895 0.669653 0.257244
H66   H     H_    0.488395 0.196841 0.658501 0.205282
H67   H     H_    0.428504 0.231174 0.604026 0.264288
H68   H     H_    0.569636 0.193703 0.305037 0.132975
H69   H     H_    0.503715 0.218603 0.239105 0.191154
H70   H     H_    0.505680 0.255895 0.330347 0.257244
H71   H     H_    0.511605 0.196841 0.341499 0.205282
H72   H     H_    0.571496 0.231174 0.395974 0.264288
H73   H     H_    0.621669 0.691937 0.630188 0.143190
H74   H     H_    0.856085 0.747291 0.847383 0.202180
H75   H     H_    0.684483 0.660132 0.669899 0.180427
H76   H     H_    0.663817 0.618290 0.737545 0.260863
H77   H     H_    0.667788 0.676779 0.753389 0.203941
H78   H     H_    0.601829 0.650000 0.698387 0.266545
H79   H     H_    0.378331 0.691937 0.369812 0.143190
H80   H     H_    0.315517 0.660132 0.330101 0.180427
H81   H     H_    0.336182 0.618290 0.262455 0.260863
H82   H     H_    0.332212 0.676779 0.246611 0.203942
H83   H     H_    0.398171 0.650000 0.301613 0.266545
H84   H     H_    0.121669 0.191937 0.630188 0.143189
H85   H     H_    0.143915 0.747291 0.152616 0.202180
H86   H     H_    0.184483 0.160132 0.669899 0.180426
H87   H     H_    0.163817 0.118290 0.737545 0.260863
H88   H     H_    0.167787 0.176779 0.753389 0.203942
H89   H     H_    0.101829 0.150000 0.698387 0.266545
H90   H     H_    0.878331 0.191937 0.369812 0.143190
H91   H     H_    0.815517 0.160132 0.330101 0.180427
H92   H     H_    0.836182 0.118290 0.262455 0.260863
H93   H     H_    0.832212 0.176779 0.246611 0.203942
H94   H     H_    0.898171 0.150000 0.301613 0.266545
H95   H     H_    0.906325 0.795005 0.433537 0.131019
H96   H     H_    0.356085 0.247291 0.847383 0.202180
H97   H     H_    0.855828 0.819968 0.349233 0.150257
H98   H     H_    0.802995 0.750210 0.307632 0.265160
H99   H     H_    0.872512 0.741879 0.339137 0.201198
H100  H     H_    0.852889 0.725487 0.391440 0.252329
H101  H     H_    0.093675 0.795005 0.566463 0.131018
H102  H     H_    0.144172 0.819968 0.650767 0.150257
H103  H     H_    0.197005 0.750210 0.692368 0.265161
H104  H     H_    0.127488 0.741879 0.660864 0.201198
H105  H     H_    0.147111 0.725487 0.608560 0.252329
H106  H     H_    0.406325 0.295005 0.433537 0.131019
H107  H     H_    0.643915 0.247291 0.152616 0.202180
H108  H     H_    0.355828 0.319968 0.349233 0.150258
H109  H     H_    0.302995 0.250210 0.307632 0.265161
H110  H     H_    0.372512 0.241879 0.339137 0.201199
H111  H     H_    0.352889 0.225487 0.391440 0.252329
H112  H     H_    0.593675 0.295005 0.566463 0.131019
H113  H     H_    0.644172 0.319968 0.650767 0.150257
H114  H     H_    0.697005 0.250210 0.692368 0.265161
H115  H     H_    0.627488 0.241879 0.660864 0.201199
H116  H     H_    0.647111 0.225487 0.608560 0.252329
H117  H     H_    0.906274 0.854230 0.623719 0.145799
H118  H     H_    0.630250 0.698975 0.542674 0.126160
H119  H     H_    0.841697 0.865680 0.606861 0.173128
H120  H     H_    0.860834 0.945775 0.616747 0.270261
H121  H     H_    0.914562 0.916476 0.693831 0.212439
H122  H     H_    0.925001 0.934571 0.633042 0.256667
H123  H     H_    0.093726 0.854230 0.376281 0.145799
H124  H     H_    0.158303 0.865680 0.393139 0.173128
H125  H     H_    0.139165 0.945775 0.383253 0.270261
H126  H     H_    0.085437 0.916476 0.306169 0.212439
H127  H     H_    0.074999 0.934571 0.366958 0.256668
H128  H     H_    0.406274 0.354230 0.623719 0.145799
N1    N     N_R   0.517645 0.710546 0.034258 -0.070941
N2    N     N_R   0.979252 0.756985 0.034134 -0.079777
N3    N     N_R   0.520748 0.256985 0.965866 -0.079777
N4    N     N_R   0.479251 0.256985 0.034134 -0.079777
N5    N     N_R   0.054298 0.757011 0.034403 -0.179207
N6    N     N_R   0.945702 0.757012 0.965597 -0.179207
N7    N     N_R   0.554298 0.257012 0.034403 -0.179207
N8    N     N_R   0.445702 0.257012 0.965597 -0.179207
N9    N     N_R   0.482355 0.710546 0.965742 -0.070941
N10   N     N_R   0.017645 0.210546 0.034258 -0.070941
N11   N     N_R   0.982355 0.210546 0.965742 -0.070941
N12   N     N_R   0.482480 0.787466 0.965732 -0.178783
N13   N     N_R   0.517520 0.787466 0.034268 -0.178783
N14   N     N_R   0.982480 0.287466 0.965732 -0.178783
N15   N     N_R   0.017520 0.287466 0.034268 -0.178783
N16   N     N_R   0.020748 0.756985 0.965866 -0.079777
O1    O     O_R   0.820760 0.769680 0.499980 -0.607872
O2    O     O_R   0.073990 0.954760 0.557490 -0.623100
O3    O     O_R   0.426010 0.454760 0.442510 -0.623098
O4    O     O_R   0.573990 0.454760 0.557490 -0.623100
O5    O     O_R   0.983520 0.954760 0.557520 -0.631271
O6    O     O_R   0.016480 0.954760 0.442480 -0.631271
O7    O     O_R   0.483520 0.454760 0.557520 -0.631271
O8    O     O_R   0.516480 0.454760 0.442480 -0.631271
O9    O     O_R   0.769670 0.820760 0.499990 -0.617523
O10   O     O_R   0.230330 0.820760 0.500010 -0.617523
O11   O     O_R   0.269670 0.320760 0.499990 -0.617523
O12   O     O_R   0.179240 0.769680 0.500020 -0.607872
O13   O     O_R   0.730330 0.320760 0.500010 -0.617523
O14   O     O_R   0.724610 0.724460 0.398130 -0.609485
O15   O     O_R   0.275390 0.724460 0.601870 -0.609485
O16   O     O_R   0.224610 0.224460 0.398130 -0.609485
O17   O     O_R   0.775390 0.224460 0.601870 -0.609485
O18   O     O_R   0.673520 0.775530 0.398150 -0.621920
O19   O     O_R   0.326480 0.775530 0.601850 -0.621921
O20   O     O_R   0.173520 0.275530 0.398150 -0.621920
O21   O     O_R   0.826480 0.275530 0.601850 -0.621921
O22   O     O_R   0.730310 0.679220 0.500010 -0.573647
O23   O     O_R   0.320760 0.269680 0.499980 -0.607872
O24   O     O_R   0.269690 0.679220 0.499990 -0.573646
O25   O     O_R   0.230310 0.179220 0.500010 -0.573647
O26   O     O_R   0.769690 0.179220 0.499990 -0.573646
O27   O     O_R   0.679220 0.730290 0.500020 -0.655156
O28   O     O_R   0.320780 0.730290 0.499980 -0.655156
O29   O     O_R   0.179220 0.230290 0.500020 -0.655156
O30   O     O_R   0.820780 0.230290 0.499980 -0.655156
O31   O     O_R   0.826460 0.724450 0.601850 -0.619169
O32   O     O_R   0.173540 0.724450 0.398150 -0.619168
O33   O     O_R   0.326460 0.224450 0.601850 -0.619169
O34   O     O_R   0.679240 0.269680 0.500020 -0.607872
O35   O     O_R   0.673540 0.224450 0.398150 -0.619168
O36   O     O_R   0.775370 0.775520 0.601870 -0.624400
O37   O     O_R   0.224630 0.775520 0.398130 -0.624399
O38   O     O_R   0.275370 0.275520 0.601870 -0.624400
O39   O     O_R   0.724630 0.275520 0.398130 -0.624399
O40   O     O_R   0.425990 0.545230 0.442510 -0.594214
O41   O     O_R   0.574010 0.545230 0.557490 -0.594214
O42   O     O_R   0.925990 0.045230 0.442510 -0.594213
O43   O     O_R   0.074010 0.045230 0.557490 -0.594214
O44   O     O_3   0.930478 0.762117 0.706226 -0.595457
O45   O     O_R   0.483490 0.545220 0.557520 -0.577897
O46   O     O_3   0.069522 0.762117 0.293774 -0.595457
O47   O     O_3   0.430478 0.262117 0.706226 -0.595457
O48   O     O_3   0.569522 0.262117 0.293774 -0.595457
O49   O     O_3   0.610878 0.626048 0.602515 -0.626372
O50   O     O_3   0.389121 0.626048 0.397484 -0.626372
O51   O     O_3   0.110878 0.126048 0.602515 -0.626372
O52   O     O_3   0.889121 0.126048 0.397484 -0.626371
O53   O     O_3   0.828667 0.806276 0.405975 -0.619805
O54   O     O_3   0.171333 0.806276 0.594025 -0.619805
O55   O     O_3   0.328667 0.306276 0.405975 -0.619805
O56   O     O_R   0.516510 0.545220 0.442480 -0.577897
O57   O     O_3   0.671333 0.306276 0.594025 -0.619805
O58   O     O_3   0.845774 0.884989 0.529163 -0.608378
O59   O     O_3   0.154225 0.884989 0.470837 -0.608378
O60   O     O_3   0.345774 0.384989 0.529163 -0.608379
O61   O     O_3   0.654225 0.384989 0.470837 -0.608378
O62   O     O_3   0.779854 0.744287 0.713303 -0.603755
O63   O     O_3   0.220146 0.744287 0.286697 -0.603754
O64   O     O_3   0.279854 0.244287 0.713303 -0.603755
O65   O     O_3   0.720146 0.244287 0.286697 -0.603754
O66   O     O_R   0.983490 0.045220 0.557520 -0.577897
O67   O     O_R   0.016510 0.045220 0.442480 -0.577897
O68   O     O_R   0.926010 0.954760 0.442510 -0.623098
Zn1   Zn    Zn3+2 0.784100 0.715890 0.499990 1.009589
Zn2   Zn    Zn3+2 0.538410 0.499990 0.576790 1.026636
Zn3   Zn    Zn3+2 0.961590 0.999990 0.423210 1.026637
Zn4   Zn    Zn3+2 0.038410 0.999990 0.576790 1.026636
Zn5   Zn    Zn3+2 0.215900 0.715890 0.500010 1.009590
Zn6   Zn    Zn3+2 0.284100 0.215890 0.499990 1.009589
Zn7   Zn    Zn3+2 0.715900 0.215890 0.500010 1.009589
Zn8   Zn    Zn3+2 0.715880 0.784090 0.500010 0.971931
Zn9   Zn    Zn3+2 0.284120 0.784090 0.499990 0.971931
Zn10  Zn    Zn3+2 0.215880 0.284090 0.500010 0.971931
Zn11  Zn    Zn3+2 0.784120 0.284090 0.499990 0.971931
Zn12  Zn    Zn3+2 0.461590 0.499990 0.423210 1.026636

loop_
_geom_bond_atom_site_label_1
_geom_bond_atom_site_label_2
_ccdc_geom_bond_type
C39   H108  S    
C14   C109  A    
C99   C103  A    
O17   Zn7   S    
O18   Zn8   S    
C19   C20   S    
C140  O30   A    
C27   H76   S    
C49   H5    S    
C20   H59   S    
C31   H88   S    
C86   C110  S    
C106  N5    A    
C52   H14   S    
C101  O48   S    
C53   H15   S    
C88   C108  S    
C83   H107  S    
C58   H27   S    
C100  C104  A    
C97   O44   S    
C15   C120  A    
C62   H47   S    
C47   H126  S    
C95   O20   A    
C124  F16   S    
C113  C122  S    
C70   C74   D    
C20   H61   S    
C102  C141  S    
C91   C100  A    
C51   H10   S    
C38   H103  S    
C134  O2    A    
C15   H40   S    
C17   H51   S    
C83   C88   A    
C56   H23   S    
C59   C60   S    
C21   C22   S    
C36   H100  S    
C8    F5    S    
C45   C47   S    
C3    C149  A    
C124  C137  S    
O20   Zn10  S    
C33   H94   S    
C142  N12   A    
C28   H79   S    
C52   O62   S    
C59   O65   S    
C43   C44   S    
C37   C38   S    
O10   Zn9   S    
C78   C82   A    
C42   H116  S    
C117  F14   S    
C68   C72   D    
N10   N11   A    
C144  O33   A    
C24   N15   A    
C18   H55   S    
C106  N2    A    
C119  H118  S    
C66   C136  S    
C39   H106  S    
C135  O3    A    
C40   H109  S    
C120  C148  A    
C54   H19   S    
C131  C149  A    
O31   Zn1   S    
C94   O19   A    
C67   O53   S    
C103  C143  S    
C127  F4    S    
C85   C90   A    
O19   Zn9   S    
O16   Zn6   S    
C125  C138  S    
C4    C150  A    
C94   C109  S    
C5    C151  A    
C141  O31   A    
C32   H90   S    
C21   O47   S    
C133  O5    A    
C41   H112  S    
C93   O18   A    
C21   H64   S    
C128  O40   A    
C9    F6    S    
C137  O27   A    
C21   H62   S    
C39   O55   S    
O5    Zn4   S    
C17   H53   S    
C60   H32   S    
C7    C13   S    
C81   H85   S    
C123  H24   S    
C71   O58   S    
C45   O59   S    
C144  O38   A    
C23   O48   S    
C42   H115  S    
C5    C9    A    
C37   O54   S    
C34   H95   S    
C139  O29   A    
C112  O50   S    
C55   H21   S    
C27   H77   S    
N2    N6    A    
O35   Zn7   S    
C25   H71   S    
C48   H3    S    
C118  F15   S    
C84   C107  S    
C111  C119  S    
C132  O43   A    
C117  C132  S    
C16   C131  A    
C40   H111  S    
C30   H84   S    
C77   O63   S    
C91   F10   S    
C74   C87   S    
C47   H127  S    
C48   H128  S    
C121  H2    S    
C22   H66   S    
C69   O55   S    
C133  O68   A    
C109  C147  A    
C37   H101  S    
C51   H11   S    
N1    N9    A    
O45   Zn2   S    
C129  O56   A    
C126  C139  S    
C44   H121  S    
C78   C104  A    
C3    H37   S    
C99   O46   S    
C87   O34   A    
C39   C40   S    
C34   O53   S    
C26   H75   S    
O23   Zn6   S    
C50   H7    S    
C29   H81   S    
C2    C4    S    
C46   C68   S    
C50   O61   S    
C123  C127  D    
C76   O23   A    
C35   C67   S    
C8    C12   A    
C6    C24   S    
O39   Zn11  S    
C17   C18   S    
C45   H123  S    
C55   H20   S    
C96   C131  S    
C113  C117  D    
O34   Zn7   S    
C92   F11   S    
O42   Zn3   S    
C57   H45   S    
C130  O66   A    
C82   H96   S    
C19   H58   S    
C127  C140  S    
C114  C123  S    
C2    N1    A    
C85   C106  S    
C90   C99   A    
C112  C116  D    
C52   C53   S    
C54   C55   S    
C148  C152  A    
C28   O50   S    
O41   Zn2   S    
C49   H4    S    
O43   Zn4   S    
C65   C72   S    
C20   H60   S    
C31   H87   S    
C46   C63   D    
O4    Zn2   S    
C19   H57   S    
C112  C121  S    
C56   O64   S    
C135  O7    A    
C5    C142  S    
C136  O8    A    
C147  C151  A    
C26   O49   S    
C58   H28   S    
O38   Zn10  S    
C56   C58   S    
C34   C36   S    
C141  O36   A    
O12   Zn5   S    
C47   H125  S    
C87   O13   A    
C22   H67   S    
C94   O15   A    
C84   C89   A    
C146  H1    S    
C113  O51   S    
O21   Zn11  S    
O26   Zn7   S    
C51   H9    S    
C38   H104  S    
C81   C85   A    
C61   C70   S    
C78   O64   S    
O8    Zn12  S    
C41   C42   S    
C34   H97   S    
C80   C84   A    
C93   O14   A    
C26   H73   S    
C68   O54   S    
C125  F2    S    
C26   C27   S    
C29   H83   S    
C62   C133  S    
C28   C29   S    
C3    C7    A    
C86   C91   A    
O1    Zn1   S    
C30   C31   S    
C59   H30   S    
C33   H93   S    
C28   H80   S    
C74   O61   S    
C122  H13   S    
N5    N16   A    
C143  O32   A    
C2    N13   A    
C30   H86   S    
C69   C73   D    
C18   H56   S    
C12   C98   A    
C97   C102  A    
C6    C152  A    
C126  F3    S    
C40   H110  S    
C96   O17   A    
O13   Zn11  S    
C14   H39   S    
C139  O25   A    
O32   Zn5   S    
O56   Zn12  S    
C49   H6    S    
C11   F8    S    
C17   O44   S    
O28   Zn9   S    
C149  H63   S    
C63   C134  S    
C65   O10   A    
C32   O52   S    
C53   H16   S    
C82   C86   A    
C58   H26   S    
C12   H38   S    
C9    C14   A    
C145  O39   A    
C22   H65   S    
C11   C16   A    
O67   Zn3   S    
C77   C81   A    
C105  C145  S    
C110  N3    A    
C50   C51   S    
C96   O21   A    
C148  H52   S    
C92   C101  A    
C64   H49   S    
C48   C49   S    
C36   H99   S    
C116  F13   S    
C150  H34   S    
O9    Zn8   S    
N14   N15   A    
C114  O52   S    
O24   Zn5   S    
C13   N11   A    
C132  O67   A    
C6    C10   A    
C1    O9    A    
C38   H105  S    
C146  C150  A    
C128  O45   A    
C76   O11   A    
C95   C120  S    
O37   Zn9   S    
C137  O22   A    
C32   C33   S    
C16   H42   S    
C140  O26   A    
C66   H50   S    
C79   C83   A    
C25   H70   S    
C80   H74   S    
C67   C71   D    
C70   O57   S    
C24   N10   A    
C18   H54   S    
C108  N7    A    
C60   H33   S    
C54   H18   S    
C152  H36   S    
C147  H41   S    
O22   Zn1   S    
N3    N7    A    
C10   F7    S    
N4    N8    A    
C95   O16   A    
C143  O37   A    
O2    Zn4   S    
C110  N8    A    
C4    C8    A    
C65   O12   A    
C134  O6    A    
C37   H102  S    
O40   Zn12  S    
C119  C124  D    
C136  O4    A    
C7    C11   A    
C130  O42   A    
C1    C71   S    
C44   H122  S    
C118  C130  S    
C138  O28   A    
O36   Zn8   S    
C41   H113  S    
C10   C15   A    
O6    Zn3   S    
C23   H69   S    
O3    Zn12  S    
C79   C105  A    
C50   H8    S    
C13   N14   A    
C115  F12   S    
C35   H43   S    
C53   H17   S    
C60   H31   S    
C121  C125  D    
C61   C66   D    
C88   C92   A    
C41   O57   S    
C75   C102  A    
C104  C144  S    
C75   C80   A    
O29   Zn10  S    
C64   C135  S    
C42   H114  S    
C43   H119  S    
C108  N4    A    
C101  C105  A    
C44   H120  S    
C142  N9    A    
C90   F9    S    
C55   H22   S    
O11   Zn10  S    
C27   H78   S    
C98   C146  A    
C25   H72   S    
O33   Zn6   S    
C89   C97   A    
C122  C126  D    
C52   H12   S    
C107  N6    A    
C30   O51   S    
O15   Zn5   S    
C79   O65   S    
C89   F1    S    
C107  N16   A    
C31   H89   S    
C72   O59   S    
C114  C118  D    
C73   O60   S    
C23   H68   S    
C111  O49   S    
C1    O1    A    
C43   O58   S    
C63   H48   S    
C19   O46   S    
C61   H46   S    
N12   N13   A    
O14   Zn1   S    
C57   C64   D    
C115  C129  S    
C129  O41   A    
C138  O24   A    
C36   H98   S    
C32   H91   S    
C151  H35   S    
C145  O35   A    
C48   O60   S    
C29   H82   S    
O27   Zn8   S    
C54   O63   S    
O25   Zn6   S    
C75   O62   S    
O68   Zn3   S    
C59   H29   S    
C46   H44   S    
C33   H92   S    
C73   C76   S    
C45   H124  S    
C35   C62   D    
C23   C25   S    
O66   Zn4   S    
O7    Zn2   S    
C77   C103  A    
C56   H25   S    
O30   Zn11  S    
C116  C128  S    
C111  C115  D    
C57   C69   S    
C93   C98   S    
C100  O47   S    
C43   H117  S    
