data_mof_unit_8768.cif
_audit_creation_date              2013-03-05T15:53:32-0500
_audit_creation_method            fapswitch 2.2
_symmetry_space_group_name_H-M    P1
_symmetry_Int_Tables_number       1
_space_group_crystal_system       triclinic
_cell_length_a                    30.84845
_cell_length_b                    7.244281
_cell_length_c                    25.76317
_cell_angle_alpha                 90.06859
_cell_angle_beta                  112.054496
_cell_angle_gamma                 89.995199
_cell_volume                      5336.12911567

loop_
_atom_site_label
_atom_site_type_symbol
_atom_site_description
_atom_site_fract_x
_atom_site_fract_y
_atom_site_fract_z
_atom_type_partial_charge
O1    O     O_R   0.295360 0.592990 0.320420 -0.599856
O2    O     O_R   0.704640 0.407010 0.679580 -0.577004
O3    O     O_R   0.204640 0.092990 0.179580 -0.595288
O4    O     O_R   0.795360 0.907010 0.820420 -0.575198
O5    O     O_R   0.294060 0.265620 0.213230 -0.564980
O6    O     O_R   0.705940 0.734380 0.786770 -0.567524
O7    O     O_R   0.205940 0.765620 0.286770 -0.569799
O8    O     O_R   0.794060 0.234380 0.713230 -0.567513
C1    C     C_R   0.304620 0.431962 0.200226 1.060746
C2    C     C_R   0.695369 0.566922 0.799837 1.038241
C3    C     C_R   0.195636 0.932533 0.300261 1.019520
C4    C     C_R   0.804690 0.066817 0.700281 1.039395
O9    O     O_R   0.300850 0.263360 0.322080 -0.574559
O10   O     O_R   0.699150 0.736640 0.677920 -0.593781
O11   O     O_R   0.199150 0.763360 0.177920 -0.568657
O12   O     O_R   0.800850 0.236640 0.822080 -0.594716
O13   O     O_R   0.211480 0.091820 0.289210 -0.605135
O14   O     O_R   0.788520 0.908180 0.710790 -0.571584
O15   O     O_R   0.288520 0.591820 0.210790 -0.577624
O16   O     O_R   0.711480 0.408180 0.789210 -0.570974
C5    C     C_R   0.313618 0.431705 0.343141 0.909614
C6    C     C_R   0.686705 0.568671 0.656704 0.909901
C7    C     C_R   0.186358 0.932151 0.156931 0.933703
C8    C     C_R   0.813374 0.068734 0.843255 0.912320
O17   O     O_3   0.220670 0.426670 0.239090 -0.289461
O18   O     O_3   0.779330 0.573330 0.760910 -0.259224
O19   O     O_3   0.279330 0.926670 0.260910 -0.269595
O20   O     O_3   0.720670 0.073330 0.739090 -0.259977
V1    V     V_3+5 0.255440 0.152290 0.252020 1.200071
V2    V     V_3+5 0.744560 0.847710 0.747980 1.239549
V3    V     V_3+5 0.244560 0.652290 0.247980 1.198705
V4    V     V_3+5 0.755440 0.347710 0.752020 1.239132
C9    C     C_R   0.850871 0.061252 0.899618 -0.163370
C10   C     C_R   0.148244 0.939938 0.100952 -0.168256
C11   C     C_R   0.649065 0.561851 0.600448 -0.163567
C12   C     C_R   0.351779 0.435687 0.399208 -0.165095
C13   C     C_R   0.871127 0.034081 0.999475 -0.129425
C14   C     C_R   0.124461 0.883256 0.001697 -0.126563
C15   C     C_R   0.628296 0.549132 0.500219 -0.127928
C16   C     C_R   0.377258 0.349114 0.496711 -0.119969
C17   C     C_R   0.837703 0.047793 0.945575 -0.218890
C18   C     C_R   0.158887 0.889475 0.055007 -0.217283
C19   C     C_R   0.661967 0.555022 0.554160 -0.218456
C20   C     C_R   0.342793 0.357219 0.443499 -0.199580
C21   C     C_R   0.899028 0.072361 0.908330 0.113323
C22   C     C_R   0.102118 0.997728 0.092616 0.117124
C23   C     C_R   0.600987 0.571962 0.592170 0.111050
C24   C     C_R   0.397165 0.505333 0.408589 0.115807
C25   C     C_R   0.933704 0.032222 0.962791 0.038517
C26   C     C_R   0.064972 0.970464 0.038851 0.034653
C27   C     C_R   0.566082 0.538447 0.537379 0.039188
C28   C     C_R   0.434881 0.472378 0.461505 0.034086
C29   C     C_R   0.919040 0.024409 0.008917 0.089077
C30   C     C_R   0.077445 0.918931 0.992914 0.084488
C31   C     C_R   0.580406 0.539876 0.490969 0.088026
C32   C     C_R   0.423359 0.403648 0.506479 0.077310
C33   C     C_R   0.982080 0.996720 0.972973 0.034780
C34   C     C_R   0.016053 0.990537 0.028920 0.037342
C35   C     C_R   0.517845 0.499929 0.527147 0.034036
C36   C     C_R   0.483546 0.500588 0.471325 0.039296
C37   C     C_R   0.999622 0.984789 0.072993 -0.227563
C38   C     C_R   0.996418 0.945157 0.929243 -0.238525
C39   C     C_R   0.499560 0.507467 0.426895 -0.225632
C40   C     C_R   0.504083 0.438087 0.570389 -0.237795
C41   C     C_R   0.952232 0.001789 0.063738 0.092644
C42   C     C_R   0.042839 0.902701 0.938698 0.106275
C43   C     C_R   0.546887 0.526650 0.435993 0.094511
C44   C     C_R   0.458160 0.386166 0.560487 0.110474
H1    H     H_    0.194627 0.860765 0.060279 0.145087
H2    H     H_    0.801104 0.052972 0.939728 0.144262
H3    H     H_    0.308367 0.305270 0.437231 0.136891
H4    H     H_    0.698525 0.560519 0.559798 0.143455
H5    H     H_    0.858936 0.026028 0.033712 0.171402
H6    H     H_    0.134989 0.847126 0.967350 0.173528
H7    H     H_    0.640246 0.547118 0.465721 0.171891
H8    H     H_    0.367665 0.294172 0.529982 0.176459
H9    H     H_    0.022685 0.953863 0.115262 0.186355
H10   H     H_    0.971281 0.919684 0.887550 0.190686
H11   H     H_    0.476292 0.483473 0.384234 0.183406
H12   H     H_    0.529471 0.410442 0.611757 0.190070
C45   C     C_R   0.090300 0.924496 0.479061 0.673496
C46   C     C_R   0.907949 0.983443 0.520881 0.683534
C47   C     C_R   0.409227 0.436596 0.020595 0.675786
C48   C     C_R   0.592048 0.494937 0.980029 0.684078
N1    N     N_R   0.071664 0.954343 0.422446 -0.165492
N2    N     N_R   0.927559 0.014173 0.577443 -0.164307
N3    N     N_R   0.427557 0.466384 0.077261 -0.165790
N4    N     N_R   0.572717 0.523669 0.923363 -0.164293
C49   C     C_R   0.024994 0.991254 0.395682 0.688853
C50   C     C_R   0.975036 0.029909 0.604102 0.687852
C51   C     C_R   0.474116 0.505320 0.104249 0.684111
C52   C     C_R   0.525279 0.540255 0.896445 0.686861
C53   C     C_R   0.994358 0.982881 0.425080 -0.239204
C54   C     C_R   0.005019 0.997192 0.574747 -0.236964
C55   C     C_R   0.504978 0.498447 0.075080 -0.237133
C56   C     C_R   0.495045 0.509725 0.925609 -0.236654
C57   C     C_R   0.014087 0.973722 0.484242 -0.014351
C58   C     C_R   0.984970 0.986310 0.515616 -0.014927
C59   C     C_R   0.485512 0.488421 0.015911 -0.014637
C60   C     C_R   0.514840 0.500244 0.984768 -0.014721
C61   C     C_R   0.062982 0.952470 0.511985 -0.230993
C62   C     C_R   0.935767 0.988275 0.487906 -0.232080
C63   C     C_R   0.436678 0.466272 0.987924 -0.234796
C64   C     C_R   0.564008 0.502277 0.012736 -0.232971
C65   C     C_R   0.945049 0.989154 0.397421 0.264184
C66   C     C_R   0.054141 0.979724 0.602424 0.261281
C67   C     C_R   0.554262 0.506160 0.102974 0.264704
C68   C     C_R   0.445925 0.492697 0.897704 0.260798
C69   C     C_R   0.916012 0.990649 0.428539 0.254899
C70   C     C_R   0.082824 0.956373 0.571345 0.252778
C71   C     C_R   0.583512 0.506809 0.072104 0.254231
C72   C     C_R   0.417046 0.469899 0.928557 0.252891
O21   O     O_2   0.135051 0.867425 0.503025 -0.447275
O22   O     O_2   0.861783 0.946914 0.497041 -0.451588
O23   O     O_2   0.364753 0.376444 0.996340 -0.443549
O24   O     O_2   0.638136 0.457539 0.004242 -0.450280
O25   O     O_2   0.008695 0.038909 0.341122 -0.455215
O26   O     O_2   0.992852 0.078602 0.658617 -0.455000
O27   O     O_2   0.490117 0.552589 0.158864 -0.456339
O28   O     O_2   0.507741 0.587320 0.841832 -0.454522
C73   C     C_R   0.901282 0.900220 0.651927 0.259681
C74   C     C_R   0.094650 0.821196 0.347413 0.262524
C75   C     C_R   0.598975 0.404319 0.849286 0.261017
C76   C     C_R   0.405523 0.327025 0.152363 0.267672
C77   C     C_R   0.871317 0.912493 0.681931 0.183402
C78   C     C_R   0.124158 0.818954 0.316579 0.197778
C79   C     C_R   0.628958 0.413830 0.819210 0.183862
C80   C     C_R   0.376314 0.321768 0.183553 0.196711
C81   C     C_R   0.837354 0.054697 0.669771 -0.388259
C82   C     C_R   0.162797 0.941938 0.330715 -0.413705
C83   C     C_R   0.663026 0.555547 0.830849 -0.388708
C84   C     C_R   0.336931 0.439611 0.169271 -0.393568
C85   C     C_R   0.832694 0.179760 0.625900 0.054867
C86   C     C_R   0.170171 0.071870 0.374717 0.022564
C87   C     C_R   0.668201 0.681208 0.874813 0.057174
C88   C     C_R   0.326932 0.560773 0.123342 0.038639
C89   C     C_R   0.863450 0.170840 0.596765 0.333767
C90   C     C_R   0.139397 0.078048 0.403757 0.362301
C91   C     C_R   0.637464 0.675165 0.904017 0.333718
C92   C     C_R   0.358198 0.577316 0.095201 0.338206
C93   C     C_R   0.897606 0.029726 0.609371 -0.143271
C94   C     C_R   0.102038 0.951214 0.390852 -0.153637
C95   C     C_R   0.602868 0.535726 0.891561 -0.143292
C96   C     C_R   0.397160 0.457781 0.108822 -0.141047
N5    N     N_2   0.938143 0.993132 0.110383 -0.123021
H13   H     H_    0.956849 0.898832 0.140443 0.217264
C97   C     C_3   0.935795 0.171337 0.134579 -0.700169
H14   H     H_    0.971191 0.234617 0.152482 0.252619
H15   H     H_    0.922227 0.154144 0.168569 0.287874
H16   H     H_    0.911829 0.265024 0.102426 0.233516
N6    N     N_2   0.054338 0.841388 0.892876 -0.110887
H17   H     H_    0.035372 0.906041 0.855544 0.226445
C98   C     C_3   0.053930 0.642757 0.886762 -0.754831
H18   H     H_    0.017978 0.588278 0.876559 0.243569
H19   H     H_    0.078071 0.577108 0.925902 0.231969
H20   H     H_    0.065648 0.605819 0.852267 0.287630
N7    N     N_2   0.560589 0.529322 0.388995 -0.121385
H21   H     H_    0.541353 0.441452 0.357105 0.218318
C99   C     C_3   0.563634 0.712790 0.368522 -0.707352
H22   H     H_    0.528535 0.778831 0.352278 0.252638
H23   H     H_    0.576867 0.703974 0.334023 0.287680
H24   H     H_    0.588177 0.799665 0.402438 0.233457
N8    N     N_2   0.447353 0.314128 0.605644 -0.108472
H25   H     H_    0.464793 0.380106 0.643276 0.228682
C100  C     C_3   0.451577 0.115566 0.611149 -0.767532
H26   H     H_    0.488605 0.073544 0.622316 0.243548
H27   H     H_    0.429472 0.046774 0.571442 0.232509
H28   H     H_    0.439792 0.069318 0.644784 0.287902
N9    N     N_2   0.794591 0.306292 0.608597 -0.082546
H29   H     H_    0.801182 0.435603 0.596554 0.220356
C101  C     C_3   0.749802 0.227416 0.573868 -0.797971
H30   H     H_    0.736278 0.295950 0.532290 0.268501
H31   H     H_    0.724551 0.247650 0.594636 0.234237
H32   H     H_    0.752209 0.076623 0.567033 0.245391
N10   N     N_2   0.210019 0.190545 0.392798 -0.091678
H33   H     H_    0.240118 0.135349 0.390799 0.157683
C102  C     C_3   0.201293 0.380301 0.374077 -0.627246
H34   H     H_    0.233186 0.464272 0.395243 0.190838
H35   H     H_    0.172474 0.440677 0.384497 0.258420
H36   H     H_    0.192133 0.388680 0.328227 0.262591
N11   N     N_2   0.707044 0.804267 0.892433 -0.083380
H37   H     H_    0.701284 0.934262 0.904872 0.219806
C103  C     C_3   0.751325 0.721080 0.926866 -0.801783
H38   H     H_    0.765328 0.788461 0.968657 0.268378
H39   H     H_    0.776654 0.738397 0.906071 0.235021
H40   H     H_    0.747952 0.570641 0.933285 0.246306
N12   N     N_2   0.283347 0.655720 0.103119 -0.092542
H41   H     H_    0.283397 0.787707 0.088238 0.206679
C104  C     C_3   0.243367 0.543344 0.070563 -0.801556
H42   H     H_    0.227821 0.595661 0.026918 0.269038
H43   H     H_    0.216744 0.549366 0.089869 0.230160
H44   H     H_    0.252941 0.395889 0.068934 0.249501
N13   N     N_R   0.859137 0.301696 0.553099 0.252662
O29   O     O_R   0.896153 0.380019 0.550349 -0.330995
O30   O     O_R   0.818932 0.328164 0.512590 -0.310818
N14   N     N_R   0.146664 0.212193 0.447480 0.251095
O31   O     O_R   0.111973 0.311875 0.448696 -0.340496
O32   O     O_R   0.187849 0.233895 0.486628 -0.287195
N15   N     N_R   0.642239 0.807311 0.947588 0.252466
O33   O     O_R   0.605523 0.888904 0.950110 -0.329539
O34   O     O_R   0.682482 0.831840 0.988236 -0.310863
N16   N     N_R   0.350037 0.713392 0.051998 0.245748
O35   O     O_R   0.383495 0.824391 0.053009 -0.331279
O36   O     O_R   0.310459 0.717484 0.009305 -0.306494
N17   N     N_2   0.094524 0.100175 0.135801 -0.121509
H45   H     H_    0.116319 0.068214 0.176124 0.198071
C105  C     C_3   0.089981 0.297278 0.126236 -0.776253
H46   H     H_    0.081571 0.364399 0.160081 0.288137
H47   H     H_    0.061278 0.328378 0.085632 0.235364
H48   H     H_    0.123321 0.355672 0.126284 0.249694
N18   N     N_2   0.912183 0.144556 0.864771 -0.115324
H49   H     H_    0.888158 0.126256 0.824644 0.194130
C106  C     C_3   0.930003 0.331545 0.874142 -0.800303
H50   H     H_    0.941116 0.373207 0.839543 0.273534
H51   H     H_    0.960810 0.341810 0.914098 0.236650
H52   H     H_    0.902313 0.427930 0.875229 0.257376
N19   N     N_2   0.403733 0.619048 0.366965 -0.122322
H53   H     H_    0.382889 0.588449 0.326103 0.194334
C107  C     C_3   0.405836 0.814735 0.378937 -0.772623
H54   H     H_    0.413668 0.891364 0.346181 0.286252
H55   H     H_    0.433968 0.844972 0.420110 0.233805
H56   H     H_    0.371743 0.863433 0.379186 0.248368
N20   N     N_2   0.588132 0.637656 0.636707 -0.114900
H57   H     H_    0.612331 0.615662 0.676501 0.193641
C108  C     C_3   0.570438 0.824742 0.629557 -0.802627
H58   H     H_    0.559743 0.861424 0.664892 0.274277
H59   H     H_    0.539416 0.838337 0.589955 0.236365
H60   H     H_    0.598068 0.922608 0.629163 0.258702
N21   N     N_R   0.923635 0.986528 0.337435 0.284279
O37   O     O_R   0.926411 0.839104 0.309944 -0.254520
O38   O     O_R   0.897331 0.123179 0.310797 -0.259874
N22   N     N_R   0.075470 0.977466 0.662412 0.285490
O39   O     O_R   0.068111 0.839028 0.690192 -0.253975
O40   O     O_R   0.106115 0.102585 0.688752 -0.249931
N23   N     N_R   0.575458 0.505848 0.162972 0.284612
O41   O     O_R   0.573273 0.358560 0.190749 -0.253904
O42   O     O_R   0.601209 0.644361 0.189340 -0.259622
N24   N     N_R   0.424786 0.490274 0.837707 0.285783
O43   O     O_R   0.431817 0.350762 0.809982 -0.251219
O44   O     O_R   0.394481 0.616203 0.811308 -0.248871
N25   N     N_R   0.866367 0.002645 0.398960 0.288935
O45   O     O_R   0.844419 0.154106 0.401102 -0.227339
O46   O     O_R   0.844089 0.871390 0.364870 -0.236943
N26   N     N_R   0.132464 0.944565 0.600952 0.289389
O47   O     O_R   0.159131 0.081274 0.598906 -0.222708
O48   O     O_R   0.150318 0.808084 0.635088 -0.236058
N27   N     N_R   0.633111 0.520230 0.101908 0.288869
O49   O     O_R   0.654997 0.671056 0.099026 -0.227431
O50   O     O_R   0.655415 0.391027 0.136730 -0.236563
N28   N     N_R   0.367421 0.458382 0.898728 0.289141
O51   O     O_R   0.340714 0.594263 0.901314 -0.222508
O52   O     O_R   0.349590 0.322768 0.864112 -0.236401
N29   N     N_R   0.935938 0.756417 0.665372 0.275993
O53   O     O_R   0.941998 0.660783 0.625889 -0.328318
O54   O     O_R   0.962568 0.723919 0.717270 -0.292775
N30   N     N_R   0.056374 0.693156 0.333804 0.277957
O55   O     O_R   0.050303 0.595742 0.372928 -0.326352
O56   O     O_R   0.025892 0.681345 0.282727 -0.276579
N31   N     N_R   0.564093 0.261340 0.836197 0.276517
O57   O     O_R   0.557614 0.168897 0.875917 -0.327939
O58   O     O_R   0.537671 0.226433 0.784356 -0.290652
N32   N     N_R   0.444061 0.200435 0.165341 0.277822
O59   O     O_R   0.450923 0.108927 0.125614 -0.325956
O60   O     O_R   0.473216 0.179796 0.216792 -0.281575
N33   N     N_R   0.874235 0.773942 0.722965 0.269103
O61   O     O_R   0.869521 0.600307 0.708931 -0.363902
O62   O     O_R   0.883633 0.819797 0.774864 -0.431624
N34   N     N_R   0.114386 0.692028 0.270543 0.260849
O63   O     O_R   0.109306 0.752469 0.221081 -0.439020
O64   O     O_R   0.106827 0.518238 0.276720 -0.375906
N35   N     N_R   0.626123 0.272394 0.778927 0.269265
O65   O     O_R   0.616427 0.314433 0.726728 -0.430005
O66   O     O_R   0.630978 0.099757 0.793927 -0.364705
N36   N     N_R   0.386106 0.192628 0.228775 0.265690
O67   O     O_R   0.392768 0.250510 0.279022 -0.440610
O68   O     O_R   0.388448 0.016749 0.219829 -0.350918

loop_
_geom_bond_atom_site_label_1
_geom_bond_atom_site_label_2
_geom_bond_distance
_ccdc_geom_bond_type
C77   C81   1.418153 A    
O17   V3    1.771883 S    
C22   N17   1.427304 S    
C59   C63   1.413893 A    
C101  H30   1.110664 S    
C25   C29   1.422633 A    
O1    C5    1.333779 A    
C100  H26   1.110638 S    
N3    C51   1.369469 A    
O19   V1    1.772274 S    
C9    C21   1.418938 A    
N9    H29   1.031131 S    
C68   N24   1.434500 S    
O3    C7    1.329472 A    
N20   H57   1.029255 S    
C10   C18   1.390454 A    
C60   C64   1.413930 A    
C85   C89   1.415092 A    
C88   C92   1.412660 A    
C11   C23   1.418820 A    
C57   C58   1.418996 A    
C25   C33   1.438073 A    
C33   C38   1.406310 A    
N10   C102  1.448709 S    
C5    C12   1.481905 S    
C45   C61   1.416734 A    
N11   H37   1.031079 S    
C87   C91   1.415233 A    
C6    C11   1.478951 S    
C101  H31   1.107848 S    
C75   C95   1.416387 A    
C35   C40   1.406595 A    
N7    H21   1.031989 S    
N16   O36   1.301125 A    
C36   C39   1.407690 A    
C50   O26   1.348399 S    
O9    V1    1.991371 S    
N8    C100  1.446641 S    
C14   C18   1.385879 A    
C83   C87   1.413803 A    
C103  H39   1.108064 S    
C99   H22   1.111978 S    
N5    H13   1.031990 S    
N29   O53   1.300270 A    
O4    C8    1.334326 A    
C55   C59   1.414887 A    
C44   N8    1.424659 S    
C54   C58   1.414780 A    
N28   O52   1.301008 A    
N35   O65   1.299867 A    
O1    V3    1.982128 S    
C108  H60   1.111668 S    
O13   V1    1.981357 S    
N26   O47   1.301201 A    
C20   H3    1.080111 S    
O2    V4    1.982127 S    
N25   O45   1.301215 A    
N9    C101  1.451418 S    
C66   C70   1.408652 A    
O3    V1    1.981213 S    
C85   N9    1.424030 S    
C2    C83   1.496478 S    
N26   O48   1.300992 A    
C13   H5    1.082605 S    
C28   C36   1.440214 A    
C97   H14   1.112001 S    
C53   C65   1.417644 A    
N24   O43   1.301255 A    
C91   C95   1.415824 A    
C1    O15   1.327585 A    
C15   C31   1.406913 A    
N8    H25   1.032039 S    
C2    O16   1.321266 A    
C102  H35   1.110226 S    
N30   O56   1.301401 A    
O2    C6    1.334782 A    
C105  H48   1.111688 S    
N23   O41   1.301239 A    
C99   H23   1.110403 S    
C10   C22   1.420096 A    
C15   H7    1.082617 S    
N3    C96   1.455018 S    
C98   H19   1.111187 S    
C11   C19   1.392581 A    
N33   O61   1.301361 A    
C16   C20   1.385231 A    
C27   C31   1.421890 A    
C84   C88   1.412105 A    
C39   C43   1.395945 A    
C76   C80   1.415226 A    
C13   C29   1.406680 A    
C7    C10   1.480642 S    
C34   C37   1.407240 A    
O11   C7    1.335868 A    
C69   N25   1.434345 S    
C56   C68   1.417684 A    
N6    H17   1.032058 S    
O15   V3    1.980802 S    
N15   O33   1.300598 A    
O12   C8    1.330276 A    
C79   N35   1.436597 S    
C49   C53   1.417079 A    
C77   N33   1.436728 S    
C40   H12   1.078420 S    
C78   N34   1.439412 S    
N1    C94   1.453861 S    
C82   C86   1.423599 A    
O10   V2    1.991371 S    
C86   N10   1.427026 S    
C80   C84   1.415977 A    
N5    C97   1.446510 S    
C45   N1    1.369567 A    
C50   C54   1.417208 A    
N24   O44   1.301005 A    
C24   N19   1.426508 S    
C106  H51   1.110627 S    
C52   C56   1.417768 A    
C101  H32   1.113185 S    
C89   N13   1.439459 S    
C97   H15   1.110420 S    
O7    V3    1.996013 S    
N16   O35   1.300937 A    
C38   C42   1.393811 A    
C46   N2    1.369754 A    
C105  H46   1.110361 S    
C26   C34   1.440143 A    
C47   O23   1.348421 S    
C97   H16   1.111191 S    
C46   O22   1.348440 S    
N14   O32   1.301335 A    
N2    C50   1.369026 A    
N11   C103  1.451625 S    
C23   N20   1.428518 S    
C107  H54   1.110379 S    
N29   O54   1.301482 A    
C78   C82   1.421465 A    
N1    C49   1.369145 A    
O18   V4    1.771884 S    
C100  H27   1.111228 S    
C15   C19   1.388438 A    
C75   N31   1.439204 S    
N28   O51   1.301181 A    
C32   C44   1.408265 A    
C18   H1    1.079282 S    
C16   H8    1.082593 S    
C42   N6    1.424772 S    
C63   C72   1.418185 A    
N25   O46   1.301002 A    
N13   O30   1.301000 A    
C74   C78   1.415225 A    
C104  H44   1.113181 S    
O7    C3    1.328847 A    
C103  H38   1.110667 S    
C35   C36   1.430053 A    
C73   C77   1.412919 A    
N21   O37   1.301246 A    
C92   N16   1.437414 S    
C107  H55   1.111062 S    
C53   C57   1.414769 A    
C31   C43   1.408638 A    
N18   H49   1.029512 S    
C14   C30   1.405427 A    
N21   O38   1.301028 A    
C76   N32   1.438108 S    
O8    C4    1.331706 A    
C102  H36   1.108317 S    
C57   C61   1.414284 A    
N30   O55   1.300969 A    
C73   C93   1.415688 A    
N22   O40   1.301015 A    
C108  H58   1.110470 S    
C46   C62   1.416642 A    
C99   H24   1.111185 S    
O9    C5    1.332224 A    
C43   N7    1.424630 S    
C16   C32   1.404636 A    
N4    C52   1.369264 A    
C98   H20   1.110296 S    
C72   N28   1.434393 S    
N33   O62   1.300019 A    
C80   N36   1.436013 S    
N32   O59   1.301111 A    
C55   C67   1.417878 A    
C81   C85   1.413986 A    
N17   H45   1.030006 S    
C71   N27   1.434460 S    
O6    V2    1.997081 S    
N34   O64   1.301208 A    
C102  H34   1.109842 S    
C100  H28   1.110251 S    
C37   H9    1.077484 S    
C88   N12   1.423691 S    
N23   O42   1.301013 A    
O14   V2    1.981363 S    
C48   C64   1.417146 A    
C51   O27   1.348349 S    
C48   O24   1.348410 S    
C103  H40   1.113222 S    
C27   C35   1.437688 A    
C74   C94   1.413342 A    
C67   N23   1.434519 S    
N31   O57   1.300318 A    
C3    C82   1.497730 S    
C40   C44   1.393531 A    
C75   C79   1.413852 A    
C29   C41   1.408750 A    
C105  H47   1.110868 S    
O16   V4    1.980799 S    
C1    C84   1.493225 S    
C68   C72   1.408869 A    
C104  H42   1.110843 S    
C21   N18   1.428643 S    
N27   O50   1.301010 A    
C89   C93   1.415746 A    
N36   O67   1.301064 A    
C54   C66   1.417560 A    
N4    C95   1.454834 S    
N18   C106  1.447446 S    
C67   C71   1.409123 A    
C38   H10   1.078512 S    
C4    O14   1.321012 A    
C48   N4    1.370089 A    
C61   C70   1.418163 A    
C49   O25   1.348399 S    
N14   O31   1.301037 A    
N31   O58   1.301482 A    
C3    O13   1.325469 A    
C47   N3    1.370010 A    
C86   C90   1.412900 A    
C64   C71   1.418185 A    
C23   C27   1.438302 A    
N27   O49   1.301218 A    
N20   C108  1.446953 S    
O11   V3    1.993017 S    
C106  H52   1.111663 S    
C39   H11   1.077267 S    
C90   N14   1.439182 S    
O12   V4    1.993019 S    
C22   C26   1.441581 A    
C8    C9    1.479284 S    
C59   C60   1.419479 A    
C9    C17   1.392055 A    
C47   C63   1.416865 A    
O10   C6    1.329539 A    
N35   O66   1.301343 A    
C52   O28   1.348365 S    
O20   V2    1.772274 S    
C26   C30   1.424379 A    
N10   H33   1.029792 S    
C58   C62   1.414199 A    
C107  H56   1.111581 S    
C74   N30   1.437364 S    
C33   C34   1.429545 A    
O8    V4    1.996020 S    
C65   C69   1.408706 A    
C70   N26   1.434232 S    
C106  H50   1.110534 S    
C56   C60   1.414872 A    
N19   H53   1.030514 S    
C90   C94   1.412314 A    
N22   O39   1.301265 A    
C108  H59   1.110606 S    
C14   H6    1.082720 S    
C21   C25   1.439183 A    
C12   C24   1.420893 A    
O5    V1    1.997081 S    
C91   N15   1.439258 S    
N6    C98   1.446888 S    
C13   C17   1.387940 A    
N19   C107  1.446683 S    
C79   C83   1.418151 A    
C4    C81   1.495168 S    
N12   C104  1.452243 S    
C12   C20   1.393254 A    
O6    C2    1.332212 A    
C51   C55   1.418038 A    
C66   N22   1.434631 S    
C37   C41   1.395505 A    
C24   C28   1.441810 A    
N32   O60   1.301341 A    
N34   O63   1.300559 A    
N7    C99   1.446518 S    
N13   O29   1.300673 A    
C45   O21   1.348447 S    
C73   N29   1.439001 S    
N15   O34   1.301025 A    
C87   N11   1.423830 S    
C76   C96   1.416782 A    
C62   C69   1.418131 A    
N12   H41   1.030788 S    
O5    C1    1.324172 A    
C104  H43   1.109298 S    
C92   C96   1.414723 A    
C30   C42   1.408653 A    
N17   C105  1.447080 S    
C41   N5    1.424557 S    
O4    V2    1.981216 S    
C19   H4    1.082343 S    
C28   C32   1.423879 A    
N2    C93   1.453806 S    
C65   N21   1.434706 S    
C17   H2    1.082151 S    
C98   H18   1.111645 S    
N36   O68   1.301344 A    
