data_mof_unit_5211.cif
_audit_creation_date              2013-03-05T16:22:45-0500
_audit_creation_method            fapswitch 2.2
_symmetry_space_group_name_H-M    P1
_symmetry_Int_Tables_number       1
_space_group_crystal_system       triclinic
_cell_length_a                    19.09507
_cell_length_b                    10.478279
_cell_length_c                    9.787651
_cell_angle_alpha                 89.716399
_cell_angle_beta                  89.897671
_cell_angle_gamma                 89.737119
_cell_volume                      1958.29953819

loop_
_atom_site_label
_atom_site_type_symbol
_atom_site_description
_atom_site_fract_x
_atom_site_fract_y
_atom_site_fract_z
_atom_type_partial_charge
O1    O     O_R   0.500000 0.313960 0.616610 -0.625088
O2    O     O_R   0.500000 0.686040 0.383390 -0.623748
O3    O     O_R   0.500030 0.313950 0.383350 -0.582532
O4    O     O_R   0.499970 0.686050 0.616650 -0.583228
C1    C     C_R   0.500197 0.257614 0.500407 0.920051
C2    C     C_R   0.499835 0.742389 0.499610 0.891652
O5    O     O_R   0.398120 0.499990 0.616660 -0.639175
O6    O     O_R   0.601880 0.500010 0.383340 -0.633043
O7    O     O_R   0.398150 0.499980 0.383410 -0.539375
O8    O     O_R   0.601850 0.500020 0.616590 -0.556670
C3    C     C_R   0.365922 0.501425 0.500190 0.916641
C4    C     C_R   0.634092 0.501239 0.499933 0.952641
Zn1   Zn    Zn3+2 0.499980 0.500010 0.655740 1.027293
Zn2   Zn    Zn3+2 0.500020 0.499990 0.344260 1.034607
C5    C     C_R   0.249991 0.421968 0.571396 0.133539
C6    C     C_R   0.744176 0.608287 0.432779 0.126150
C7    C     C_R   0.178452 0.442865 0.586147 -0.143466
C8    C     C_R   0.816456 0.618567 0.444850 -0.139355
H1    H     H_    0.146592 0.371027 0.636179 0.193806
H2    H     H_    0.843286 0.696233 0.393557 0.190284
C9    C     C_R   0.146955 0.552989 0.532676 -0.131155
C10   C     C_R   0.854565 0.531429 0.524206 -0.122210
C11   C     C_R   0.187117 0.645934 0.464263 0.246282
C12   C     C_R   0.820372 0.430603 0.592618 0.242476
C13   C     C_R   0.259318 0.625908 0.448452 0.187670
C14   C     C_R   0.747621 0.419037 0.581517 0.192459
C15   C     C_R   0.290411 0.514024 0.502217 -0.184574
C16   C     C_R   0.709838 0.507696 0.501338 -0.183586
N1    N     N_R   0.035263 0.595806 0.422718 -0.093750
N2    N     N_R   0.966018 0.513683 0.645636 -0.083289
N3    N     N_R   0.965949 0.589108 0.420295 -0.133903
N4    N     N_R   0.035383 0.520139 0.648028 -0.127499
C17   C     C_R   0.930308 0.546192 0.531029 0.362104
C18   C     C_R   0.071012 0.560905 0.536375 0.377211
C19   C     C_3   0.504393 0.039673 0.630240 -0.077247
C20   C     C_3   0.495932 0.960339 0.369891 -0.078875
C21   C     C_3   0.559687 0.956464 0.557230 -0.117359
C22   C     C_3   0.440626 0.043511 0.442929 -0.103886
H3    H     H_    0.608026 0.916146 0.603644 0.201207
H4    H     H_    0.392285 0.083840 0.396539 0.207986
H5    H     H_    0.507891 0.076057 0.736368 0.203302
H6    H     H_    0.492424 0.923940 0.263769 0.205756
C23   C     C_3   0.499918 0.877545 0.498750 -0.053475
C24   C     C_3   0.500375 0.122452 0.501368 -0.055261
C25   C     C_3   0.444626 0.958032 0.571665 -0.137056
C26   C     C_3   0.555713 0.041980 0.428512 -0.141491
H7    H     H_    0.399698 0.919126 0.630444 0.197392
H8    H     H_    0.600825 0.080897 0.370257 0.196533
C27   C     C_3   0.469843 0.401665 0.047360 0.400145
C28   C     C_3   0.530197 0.598277 0.952607 0.394940
C29   C     C_3   0.532721 0.400220 0.951277 -0.151826
C30   C     C_3   0.467326 0.599772 0.048641 -0.147476
H9    H     H_    0.559207 0.316003 0.905641 0.203658
H10   H     H_    0.441398 0.684670 0.093824 0.212994
N5    N     N_3   0.499950 0.500030 0.863290 -0.140141
N6    N     N_3   0.500050 0.499970 0.136710 -0.138977
C31   C     C_3   0.436335 0.498979 0.951323 -0.200240
C32   C     C_3   0.563677 0.500996 0.048649 -0.200350
H11   H     H_    0.383077 0.495946 0.906184 0.183039
H12   H     H_    0.616951 0.503761 0.093681 0.182696
C33   C     C_3   0.282046 0.300402 0.627154 -0.767063
H13   H     H_    0.318758 0.322546 0.711445 0.245189
H14   H     H_    0.241628 0.234574 0.668205 0.257272
H15   H     H_    0.310822 0.249829 0.544718 0.230095
C34   C     C_3   0.704614 0.708032 0.351481 -0.768097
H16   H     H_    0.679567 0.663521 0.261421 0.251849
H17   H     H_    0.663831 0.753237 0.416466 0.215101
H18   H     H_    0.739676 0.784737 0.313463 0.248717
N7    N     N_R   0.155148 0.761073 0.412989 0.242898
O9    O     O_R   0.168385 0.800774 0.289472 -0.274066
O10   O     O_R   0.113955 0.828308 0.490836 -0.327544
N8    N     N_R   0.859636 0.333905 0.663271 0.236661
O11   O     O_R   0.858376 0.328025 0.796050 -0.281553
O12   O     O_R   0.901073 0.258225 0.595467 -0.326831
N9    N     N_R   0.301631 0.723470 0.386975 0.219804
O13   O     O_R   0.330232 0.704386 0.268095 -0.351518
O14   O     O_R   0.302414 0.837431 0.439018 -0.379636
N10   N     N_R   0.712529 0.313673 0.645992 0.231358
O15   O     O_R   0.714455 0.299855 0.778086 -0.309436
O16   O     O_R   0.674255 0.236917 0.573825 -0.424407
N11   N     N_R   0.435124 0.290263 0.104854 0.216799
O17   O     O_R   0.460345 0.176623 0.083341 -0.394731
O18   O     O_R   0.377492 0.303712 0.174326 -0.360445
N12   N     N_R   0.564973 0.709613 0.895092 0.217116
O19   O     O_R   0.539816 0.823301 0.916594 -0.395917
O20   O     O_R   0.622633 0.696058 0.825728 -0.366822

loop_
_geom_bond_atom_site_label_1
_geom_bond_atom_site_label_2
_geom_bond_distance
_ccdc_geom_bond_type
C6    C16   1.410288 A    
Zn2   N6    2.031426 S    
C11   N7    1.438188 S    
C20   H6    1.110502 S    
O7    Zn2   1.981928 S    
N11   O17   1.300385 A    
C28   N12   1.455368 S    
O5    C3    1.296152 A    
C14   N10   1.436841 S    
C4    C16   1.448371 S    
O1    C1    1.284051 A    
C22   H4    1.110334 S    
N12   O20   1.300086 A    
N7    O9    1.301296 A    
N10   O16   1.301066 A    
C31   H11   1.110165 S    
C32   H12   1.109917 S    
C27   C31   1.522945 S    
C33   H14   1.110803 S    
C27   N11   1.455352 S    
O4    Zn1   1.984711 S    
N7    O10   1.301423 A    
C22   C25   1.544109 S    
C24   C26   1.526808 S    
C27   C29   1.523866 S    
C28   C30   1.523462 S    
N3    C17   1.354780 A    
C20   C26   1.542798 S    
C29   N5    1.487951 S    
O2    C2    1.284213 A    
O2    Zn2   1.988605 S    
N11   O18   1.300061 A    
C30   H10   1.109569 S    
C25   H7    1.110094 S    
C21   H3    1.110352 S    
C26   H8    1.110237 S    
C28   C32   1.522535 S    
N12   O19   1.300379 A    
N8    O12   1.301122 A    
N10   O15   1.300829 A    
C9    C18   1.452524 S    
C34   H17   1.110504 S    
N1    C18   1.354115 A    
C7    C9    1.398544 A    
C29   H9    1.110418 S    
N4    C18   1.354610 A    
C21   C23   1.526322 S    
C33   H15   1.110729 S    
N9    O13   1.300448 A    
C22   C24   1.526014 S    
C23   C25   1.526565 S    
C5    C15   1.408219 A    
C3    C15   1.447433 S    
O6    C4    1.297493 A    
C34   H18   1.110759 S    
C5    C33   1.510701 S    
C29   C32   1.546109 S    
C19   C24   1.529110 S    
O7    C3    1.297289 A    
O3    Zn2   1.984710 S    
O8    C4    1.296275 A    
O4    C2    1.286107 A    
C1    C24   1.416236 S    
C2    C23   1.416200 S    
N5    C31   1.488081 S    
C10   C12   1.410174 A    
O1    Zn1   1.988605 S    
C19   C25   1.542422 S    
C12   N8    1.433497 S    
C5    C7    1.389873 A    
C10   C17   1.456948 S    
O6    Zn2   1.982949 S    
N2    C17   1.355026 A    
C19   C21   1.542942 S    
C8    C10   1.398348 A    
C12   C14   1.399473 A    
N8    O11   1.300934 A    
O3    C1    1.286242 A    
O8    Zn1   1.981928 S    
C13   C15   1.411540 A    
C27   N6    1.474685 S    
C14   C16   1.409981 A    
C28   N5    1.474378 S    
C9    C11   1.408383 A    
N1    N3    1.325995 A    
N2    N4    1.326825 A    
C20   C22   1.543000 S    
C7    H1    1.084437 S    
N6    C32   1.488433 S    
C8    H2    1.084270 S    
C11   C13   1.402021 A    
C33   H13   1.109676 S    
C19   H5    1.110499 S    
C30   C31   1.546163 S    
O5    Zn1   1.982949 S    
C6    C8    1.390173 A    
C34   H16   1.109466 S    
N9    O14   1.300699 A    
C20   C23   1.529053 S    
C6    C34   1.510920 S    
C13   N9    1.435160 S    
C21   C26   1.544157 S    
C30   N6    1.487981 S    
Zn1   N5    2.031428 S    
