data_mof_unit_27725.cif
_audit_creation_date              2012-12-11T15:36:49-0500
_audit_creation_method            fapswitch 2.2
_symmetry_space_group_name_H-M    P1
_symmetry_Int_Tables_number       1
_space_group_crystal_system       triclinic
_cell_length_a                    15.032306
_cell_length_b                    15.031579
_cell_length_c                    34.76935
_cell_angle_alpha                 91.241552
_cell_angle_beta                  91.656153
_cell_angle_gamma                 60.170461
_cell_volume                      6812.46092626

loop_
_atom_site_label
_atom_site_type_symbol
_atom_type_description
_atom_site_fract_x
_atom_site_fract_y
_atom_site_fract_z
_atom_type_partial_charge
C1    C     C_R   0.611923 0.301158 0.444117 0.567264
C2    C     C_R   0.598506 0.085152 0.764091 0.254600
C3    C     C_R   0.133926 0.743434 0.894706 0.199450
C4    C     C_R   0.173317 0.730924 0.857651 0.308179
C5    C     C_R   0.154594 0.671857 0.830271 0.012748
C6    C     C_R   0.108385 0.615646 0.841159 -0.161620
C7    C     C_R   0.074223 0.622395 0.878640 0.200844
C8    C     C_R   0.239534 0.580584 0.770299 0.248713
C9    C     C_R   0.246544 0.580729 0.730158 -0.131275
C10   C     C_R   0.189411 0.671012 0.709039 -0.018274
C11   C     C_R   0.131197 0.765427 0.728467 0.261766
C12   C     C_R   0.119294 0.765121 0.768602 0.256738
C13   C     C_R   0.596121 0.163970 0.787958 -0.011323
C14   C     C_R   0.666246 0.762092 0.166226 0.202781
C15   C     C_R   0.175041 0.673201 0.789256 0.056889
C16   C     C_R   0.215159 0.730674 0.646147 -0.011330
C17   C     C_R   0.233500 0.716747 0.606994 0.219753
C18   C     C_R   0.214367 0.565522 0.608166 -0.170950
C19   C     C_R   0.189546 0.584453 0.646915 -0.152682
C20   C     C_R   0.195311 0.663912 0.666677 0.044795
C21   C     C_R   0.242155 0.627941 0.588237 0.033730
C22   C     C_R   0.670694 0.085220 0.906617 0.005452
C23   C     C_R   0.582017 0.088266 0.890084 0.203023
C24   C     C_R   0.535511 0.206773 0.641589 0.274658
C25   C     C_R   0.553792 0.119054 0.851770 -0.093919
C26   C     C_3   0.466903 0.896932 0.403046 -0.030392
C27   C     C_3   0.388036 0.969985 0.431447 -0.331035
C28   C     C_3   0.929061 0.448953 0.187473 -0.008208
C29   C     C_3   0.923275 0.390074 0.221556 -0.350318
C30   C     C_3   0.265971 0.859461 0.340810 0.026600
C31   C     C_3   0.258079 0.931998 0.309346 -0.349880
C32   C     C_3   0.285966 0.456329 0.152258 -0.007313
C33   C     C_3   0.288648 0.359086 0.165335 -0.388685
C34   C     C_3   0.964916 0.514822 0.092925 0.024790
C35   C     C_R   0.796955 0.583963 0.153643 0.243421
C36   C     C_3   0.025328 0.451422 0.058532 -0.337598
C37   C     C_3   0.119365 0.505911 0.326302 -0.011926
C38   C     C_3   0.091253 0.459297 0.292081 -0.383230
C39   C     C_3   0.526829 0.070797 0.332200 -0.013843
C40   C     C_3   0.444262 0.059497 0.310125 -0.380626
C41   C     C_3   0.418177 0.350209 0.269387 0.009523
C42   C     C_3   0.368349 0.457740 0.253204 -0.355082
C43   C     C_3   0.809136 0.900871 0.207079 -0.000051
C44   C     C_3   0.849172 0.852497 0.167831 -0.354883
C45   C     C_3   0.590958 0.516732 0.296962 0.005898
C46   C     C_R   0.536733 0.235569 0.603747 -0.164358
C47   C     C_3   0.530424 0.515435 0.331135 -0.337195
C48   C     C_3   0.828198 0.392864 0.856533 -0.019722
C49   C     C_3   0.916359 0.297275 0.838884 -0.370851
C50   C     C_3   0.099132 0.459715 0.884983 0.016599
C51   C     C_3   0.074514 0.399331 0.913169 -0.364315
C52   C     C_3   0.305119 0.404493 0.775566 -0.017165
C53   C     C_3   0.329431 0.326108 0.806811 -0.371923
C54   C     C_3   0.114607 0.922904 0.716553 0.002865
C55   C     C_3   0.070855 0.009190 0.687363 -0.382714
C56   C     C_3   0.953509 0.888482 0.781258 -0.009931
C57   C     C_R   0.709013 0.209247 0.613819 0.258392
C58   C     C_3   0.892133 0.003379 0.788941 -0.356796
C59   C     C_3   0.500083 0.864562 0.183526 0.010641
C60   C     C_3   0.434652 0.922666 0.217720 -0.350309
C61   C     C_3   0.444381 0.140275 0.927626 0.000095
C62   C     C_3   0.381861 0.105773 0.950157 -0.307433
C63   C     C_3   0.764729 0.226897 0.923981 -0.000510
C64   C     C_3   0.854924 0.226268 0.945239 -0.345162
C65   C     C_3   0.529452 0.996029 0.701089 0.040892
C66   C     C_3   0.515612 0.953872 0.662592 -0.358212
C67   C     C_3   0.692449 0.924738 0.789094 -0.023692
C68   C     C_R   0.708221 0.177394 0.651700 -0.148535
C69   C     C_3   0.684299 0.841298 0.809796 -0.362897
C70   C     C_3   0.372887 0.302621 0.663436 -0.020465
C71   C     C_3   0.288282 0.295526 0.683665 -0.388966
C72   C     C_3   0.835569 0.252884 0.622081 -0.001529
C73   C     C_3   0.912631 0.267111 0.599457 -0.344584
C74   C     C_R   0.620573 0.180288 0.666038 0.043204
C75   C     C_R   0.620276 0.242904 0.590113 -0.007259
C76   C     C_R   0.045605 0.738981 0.048616 0.552045
C77   C     C_R   0.731518 0.662035 0.179257 -0.002871
C78   C     C_R   0.747131 0.745804 0.063946 0.571611
C79   C     C_R   0.751318 0.040163 0.050840 0.522053
C80   C     C_R   0.019441 0.721546 0.940238 0.605400
C81   C     C_R   0.717005 0.729684 0.954822 0.578700
C82   C     C_R   0.802351 0.609851 0.115308 0.260343
C83   C     C_R   0.720696 0.026030 0.942187 0.556319
C84   C     C_R   0.652396 0.627833 0.234301 -0.053545
C85   C     C_R   0.641185 0.625902 0.273908 0.266214
C86   C     C_R   0.707863 0.640482 0.299316 0.024334
C87   C     C_R   0.787544 0.651988 0.285079 -0.174961
C88   C     C_R   0.609380 0.152037 0.830308 -0.053953
C89   C     C_R   0.797639 0.654735 0.245566 -0.131577
C90   C     C_R   0.730305 0.642508 0.220149 0.043799
C91   C     C_R   0.600831 0.726802 0.355382 -0.081603
C92   C     C_R   0.593436 0.610673 0.449448 0.545535
C93   C     C_R   0.572074 0.722987 0.393098 0.253109
C94   C     C_R   0.729231 0.558361 0.401051 -0.170679
C95   C     C_R   0.758264 0.565243 0.364132 -0.148557
C96   C     C_R   0.691461 0.646599 0.340663 0.004085
C97   C     C_R   0.633441 0.633456 0.414982 0.018048
C98   C     C_R   0.103915 0.727102 0.084843 -0.059745
C99   C     C_R   0.687367 0.163247 0.848665 -0.140270
C100  C     C_R   0.144382 0.634377 0.104797 -0.142743
C101  C     C_R   0.172485 0.628243 0.143794 0.224661
C102  C     C_R   0.158313 0.717356 0.163230 0.082389
C103  C     C_R   0.126152 0.808496 0.142595 0.227983
C104  C     C_R   0.302328 0.592710 0.442634 0.573054
C105  C     C_R   0.099803 0.812705 0.103508 -0.114963
C106  C     C_R   0.247329 0.718239 0.225450 0.268825
C107  C     C_R   0.252848 0.713108 0.265567 -0.091528
C108  C     C_R   0.177062 0.707040 0.286153 0.055528
C109  C     C_R   0.093981 0.708706 0.266256 -0.068925
C110  C     C_R   0.717657 0.131507 0.886474 0.213328
C111  C     C_R   0.088684 0.712678 0.226259 -0.104849
C112  C     C_R   0.164950 0.717481 0.205577 0.113058
C113  C     C_R   0.204806 0.592875 0.341449 0.203262
C114  C     C_R   0.237045 0.564777 0.379661 -0.175456
C115  C     C_R   0.217331 0.732862 0.392993 0.223462
C116  C     C_R   0.605679 0.299482 0.553737 0.570182
C117  C     C_R   0.197123 0.757007 0.353592 0.255828
C118  C     C_R   0.191696 0.686267 0.327820 0.002021
C119  C     C_R   0.247009 0.632519 0.405429 -0.058733
C120  C     C_R   0.725531 0.095176 0.087968 0.010482
C121  C     C_R   0.597734 0.247003 0.771130 -0.178910
C122  C     C_R   0.802617 0.098389 0.110777 -0.121514
C123  C     C_R   0.787589 0.121448 0.149964 -0.051516
C124  C     C_R   0.695244 0.142170 0.166614 0.045459
C125  C     C_R   0.614966 0.148546 0.143220 -0.135971
C126  C     C_R   0.629896 0.125290 0.104135 -0.131907
C127  C     C_R   0.604402 0.231408 0.226015 -0.162504
C128  C     C_R   0.587190 0.606474 0.559237 0.531620
C129  C     C_R   0.592460 0.235525 0.266053 0.297904
C130  C     C_R   0.665807 0.154562 0.288877 0.044148
C131  C     C_R   0.744557 0.066850 0.271280 -0.106739
C132  C     C_R   0.606392 0.250254 0.731630 -0.205157
C133  C     C_R   0.754680 0.062080 0.231324 0.276807
C134  C     C_R   0.685816 0.146091 0.208681 -0.012681
C135  C     C_R   0.744367 0.172997 0.350782 0.217718
C136  C     C_R   0.733211 0.205742 0.389379 0.249095
C137  C     C_R   0.562916 0.224459 0.389007 -0.164097
C138  C     C_R   0.577019 0.184427 0.351636 0.251066
C139  C     C_R   0.664397 0.166367 0.331279 0.009603
C140  C     C_R   0.297608 0.590142 0.551823 0.567279
C141  C     C_R   0.638161 0.239802 0.407819 -0.071163
C142  C     C_R   0.691873 0.685657 0.920208 -0.024303
C143  C     C_R   0.612359 0.171336 0.707813 0.023084
C144  C     C_R   0.771174 0.595312 0.903897 -0.134576
C145  C     C_R   0.761233 0.563111 0.866826 0.259713
C146  C     C_R   0.671561 0.623327 0.844814 -0.028761
C147  C     C_R   0.587962 0.706734 0.862390 -0.128161
C148  C     C_R   0.596853 0.737704 0.899865 0.238925
C149  C     C_R   0.581906 0.612167 0.784521 -0.088640
C150  C     C_R   0.573642 0.611322 0.744352 0.242416
C151  C     C_R   0.652196 0.607871 0.721843 0.030692
C152  C     C_R   0.738866 0.712119 0.102619 -0.056673
C153  C     C_R   0.740635 0.598593 0.740178 -0.176954
C154  C     C_R   0.604158 0.090123 0.723542 0.314472
C155  C     C_R   0.748975 0.597959 0.780168 -0.104074
C156  C     C_R   0.668580 0.607512 0.802720 -0.006895
C157  C     C_R   0.720308 0.542275 0.656259 -0.126622
C158  C     C_R   0.706732 0.544848 0.616303 -0.132098
C159  C     C_R   0.542165 0.699731 0.622184 -0.116689
C160  C     C_R   0.555847 0.697205 0.662057 -0.083147
C161  C     C_R   0.642712 0.615861 0.679482 0.064041
C162  C     C_R   0.615319 0.620693 0.599033 0.019681
C163  C     C_R   0.078206 0.694153 0.904483 -0.013855
C164  C     C_R   0.670752 0.786540 0.128230 -0.184598
Cl1   Cl    Cl    0.348572 0.717341 0.200951 -0.646317
Cl2   Cl    Cl    0.249075 0.811926 0.584202 -0.592071
Cl3   Cl    Cl    0.104775 0.922479 0.165921 -0.577955
Cl4   Cl    Cl    0.198917 0.830992 0.426272 -0.503806
Cl5   Cl    Cl    0.855439 0.150016 0.326064 -0.518252
Cl6   Cl    Cl    0.839763 0.204852 0.413010 -0.462292
Cl7   Cl    Cl    0.487633 0.844549 0.918727 -0.513342
Cl8   Cl    Cl    0.465118 0.611826 0.723505 -0.662034
Cl9   Cl    Cl    0.157858 0.818664 0.928769 -0.478759
Cl10  Cl    Cl    0.245740 0.789326 0.845423 -0.469406
Cr1   Cr    Cr6+3 0.426010 0.422500 0.497000 1.011449
Cr2   Cr    Cr6+3 0.651300 0.426310 0.501970 1.067227
Cr3   Cr    Cr6+3 0.422670 0.651170 0.501050 1.153156
Cr4   Cr    Cr6+3 0.905130 0.911420 0.992650 1.088571
Cr5   Cr    Cr6+3 0.911860 0.682710 0.002320 1.011561
Cr6   Cr    Cr6+3 0.682710 0.906840 0.004710 1.051959
H1    H     H_    0.623480 0.865502 0.119322 0.153640
H2    H     H_    0.569138 0.123580 0.087192 0.121131
H3    H     H_    0.072908 0.428316 0.942947 0.157648
H4    H     H_    0.368535 0.370848 0.754720 0.153544
H5    H     H_    0.231744 0.419935 0.761030 0.104613
H6    H     H_    0.263460 0.353315 0.826207 0.124764
H7    H     H_    0.345334 0.251817 0.793611 0.104924
H8    H     H_    0.397486 0.314951 0.823993 0.174765
H9    H     H_    0.199961 0.883391 0.715820 0.144511
H10   H     H_    0.090367 0.958407 0.745382 0.198385
H11   H     H_    0.985818 0.051708 0.688538 0.152169
H12   H     H_    0.099678 0.063096 0.694011 0.094258
H13   H     H_    0.551657 0.295740 0.208425 0.115061
H14   H     H_    0.094095 0.977690 0.657870 0.195790
H15   H     H_    0.928384 0.848436 0.801023 0.116202
H16   H     H_    0.935993 0.874443 0.751120 0.160527
H17   H     H_    0.810931 0.033430 0.780156 0.090282
H18   H     H_    0.897134 0.019372 0.820017 0.191046
H19   H     H_    0.922253 0.044023 0.772005 0.154699
H20   H     H_    0.491504 0.795706 0.178234 0.191610
H21   H     H_    0.470747 0.915034 0.157903 0.138931
H22   H     H_    0.438441 0.993786 0.223051 0.132112
H23   H     H_    0.353615 0.943573 0.211730 0.162176
H24   H     H_    0.828715 0.503035 0.352799 0.135073
H25   H     H_    0.462762 0.873956 0.243784 0.174372
H26   H     H_    0.392557 0.196582 0.905669 0.107692
H27   H     H_    0.473308 0.178716 0.948090 0.111462
H28   H     H_    0.431582 0.048211 0.971957 0.192104
H29   H     H_    0.318973 0.172707 0.965045 0.067718
H30   H     H_    0.347730 0.071476 0.930305 0.212966
H31   H     H_    0.709169 0.232852 0.945875 0.123610
H32   H     H_    0.727070 0.295263 0.905033 0.111416
H33   H     H_    0.913713 0.217324 0.924505 0.159140
H34   H     H_    0.828190 0.299414 0.961409 0.092330
H35   H     H_    0.849951 0.117315 0.167707 0.186825
H36   H     H_    0.890172 0.161586 0.965822 0.185380
H37   H     H_    0.456711 0.068216 0.707372 0.154523
H38   H     H_    0.543387 0.938365 0.723342 0.173199
H39   H     H_    0.585177 0.879379 0.656263 0.156515
H40   H     H_    0.448380 0.942143 0.663511 0.091726
H41   H     H_    0.502746 0.008363 0.639207 0.207304
H42   H     H_    0.734242 0.951194 0.808820 0.135670
H43   H     H_    0.736834 0.891610 0.762394 0.149783
H44   H     H_    0.641200 0.813789 0.791383 0.167761
H45   H     H_    0.762182 0.776370 0.816342 0.100119
H46   H     H_    0.800096 0.003525 0.288676 0.158127
H47   H     H_    0.643253 0.871938 0.837221 0.196520
H48   H     H_    0.340016 0.347688 0.636678 0.135695
H49   H     H_    0.401305 0.343259 0.682977 0.129940
H50   H     H_    0.318895 0.251832 0.710778 0.139361
H51   H     H_    0.224922 0.373365 0.690732 0.077555
H52   H     H_    0.257651 0.256095 0.664741 0.164861
H53   H     H_    0.876514 0.206692 0.647830 0.114565
H54   H     H_    0.773165 0.329784 0.631282 0.126478
H55   H     H_    0.875814 0.310420 0.572703 0.174305
H56   H     H_    0.941434 0.310213 0.617184 0.075687
H57   H     H_    0.543490 0.164044 0.155729 0.100424
H58   H     H_    0.978464 0.191176 0.591671 0.183966
H59   H     H_    0.490875 0.246921 0.402733 0.157611
H60   H     H_    0.843612 0.551777 0.919158 0.163370
H61   H     H_    0.496841 0.756865 0.679454 0.143435
H62   H     H_    0.520196 0.617483 0.801566 0.172499
H63   H     H_    0.778782 0.490471 0.417631 0.170233
H64   H     H_    0.801913 0.595486 0.723502 0.112645
H65   H     H_    0.816116 0.595685 0.793445 0.160702
H66   H     H_    0.789130 0.480094 0.669126 0.096959
H67   H     H_    0.765059 0.484297 0.599096 0.119392
H68   H     H_    0.517393 0.752186 0.846096 0.182435
H69   H     H_    0.471281 0.760104 0.609825 0.176204
H70   H     H_    0.598387 0.621608 0.214690 0.162997
H71   H     H_    0.171197 0.533699 0.662019 0.103907
H72   H     H_    0.297688 0.510647 0.715094 0.123475
H73   H     H_    0.222186 0.790939 0.660625 0.163639
H74   H     H_    0.145425 0.568533 0.091108 0.131352
H75   H     H_    0.095513 0.568980 0.820015 0.127452
H76   H     H_    0.217451 0.498662 0.594482 0.133077
H77   H     H_    0.774809 0.152195 0.670544 0.109431
H78   H     H_    0.609144 0.314624 0.719481 0.152415
H79   H     H_    0.595342 0.308331 0.788839 0.151237
H80   H     H_    0.490455 0.113831 0.838516 0.173130
H81   H     H_    0.838983 0.662986 0.304513 0.111415
H82   H     H_    0.469097 0.257583 0.585732 0.145759
H83   H     H_    0.730252 0.190346 0.832884 0.124044
H84   H     H_    0.856102 0.669172 0.234753 0.089637
H85   H     H_    0.067637 0.885356 0.088772 0.166679
H86   H     H_    0.549468 0.788701 0.336554 0.113850
H87   H     H_    0.438460 0.926322 0.373589 0.112396
H88   H     H_    0.540130 0.897030 0.409242 0.121013
H89   H     H_    0.414392 0.943191 0.461321 0.178053
H90   H     H_    0.377748 0.047985 0.428442 0.095295
H91   H     H_    0.313186 0.973716 0.425785 0.199326
H92   H     H_    0.942815 0.511719 0.197982 0.099823
H93   H     H_    0.997409 0.394117 0.171130 0.144534
H94   H     H_    0.915291 0.323974 0.211120 0.186410
H95   H     H_    0.994545 0.360688 0.239438 0.102053
H96   H     H_    0.319689 0.707291 0.280413 0.144728
H97   H     H_    0.856889 0.440011 0.239686 0.156921
H98   H     H_    0.337324 0.784358 0.336341 0.126745
H99   H     H_    0.273802 0.892099 0.368743 0.210761
H100  H     H_    0.191355 0.009544 0.314364 0.195390
H101  H     H_    0.328951 0.937540 0.309481 0.074991
H102  H     H_    0.248602 0.903291 0.280719 0.195387
H103  H     H_    0.352501 0.459837 0.165283 0.153446
H104  H     H_    0.294319 0.450746 0.120456 0.124408
H105  H     H_    0.225617 0.352050 0.150796 0.147272
H106  H     H_    0.362998 0.291135 0.157845 0.090507
H107  H     H_    0.035141 0.703443 0.281618 0.116197
H108  H     H_    0.278891 0.361194 0.196899 0.148112
H109  H     H_    0.003078 0.470908 0.119199 0.124559
H110  H     H_    0.968701 0.586959 0.094185 0.144047
H111  H     H_    0.990260 0.493676 0.031435 0.174003
H112  H     H_    0.105742 0.435467 0.061080 0.080506
H113  H     H_    0.025586 0.377398 0.057432 0.151103
H114  H     H_    0.048803 0.578132 0.334650 0.124549
H115  H     H_    0.145259 0.450911 0.350543 0.145215
H116  H     H_    0.159114 0.385981 0.283272 0.153654
H117  H     H_    0.028950 0.444228 0.300023 0.106236
H118  H     H_    0.026417 0.709109 0.211323 0.105250
H119  H     H_    0.064184 0.513029 0.267447 0.149612
H120  H     H_    0.534192 0.040373 0.361757 0.119654
H121  H     H_    0.600447 0.023928 0.317031 0.125470
H122  H     H_    0.431555 0.094604 0.281271 0.155191
H123  H     H_    0.468873 0.976937 0.306527 0.085582
H124  H     H_    0.371301 0.098141 0.326033 0.153139
H125  H     H_    0.371707 0.350722 0.293718 0.224739
H126  H     H_    0.415492 0.296602 0.247288 0.096918
H127  H     H_    0.413369 0.460814 0.229088 0.149838
H128  H     H_    0.288824 0.482453 0.243038 0.168109
H129  H     H_    0.258754 0.487898 0.388585 0.155866
H130  H     H_    0.366187 0.510786 0.276155 0.180565
H131  H     H_    0.724888 0.928953 0.206999 0.158784
H132  H     H_    0.846120 0.841207 0.229551 0.131117
H133  H     H_    0.928054 0.838660 0.164090 0.179052
H134  H     H_    0.850659 0.778108 0.165155 0.084235
H135  H     H_    0.798931 0.904343 0.144668 0.156368
H136  H     H_    0.674204 0.470084 0.304876 0.140907
H137  H     H_    0.574901 0.479442 0.271858 0.180445
H138  H     H_    0.446838 0.560739 0.324775 0.143146
H139  H     H_    0.551349 0.435337 0.337753 0.159535
H140  H     H_    0.877270 0.074914 0.099160 0.150497
H141  H     H_    0.548272 0.549182 0.356839 0.153943
H142  H     H_    0.755440 0.405556 0.842282 0.139302
H143  H     H_    0.826537 0.379186 0.887759 0.119258
H144  H     H_    0.990149 0.281161 0.852909 0.157132
H145  H     H_    0.904965 0.230558 0.843013 0.129476
H146  H     H_    0.919455 0.308477 0.807582 0.156160
H147  H     H_    0.180266 0.440180 0.890986 0.118513
H148  H     H_    0.092533 0.434322 0.855298 0.141064
H149  H     H_    0.999257 0.406130 0.905710 0.172519
H150  H     H_    0.134100 0.316974 0.911812 0.087863
O1    O     O_R   0.324990 0.503440 0.453910 -0.527601
O2    O     O_R   0.675430 0.831160 0.051290 -0.519834
O3    O     O_R   0.698870 0.998880 0.039560 -0.515147
O4    O     O_R   0.522030 0.339050 0.458320 -0.514476
O5    O     O_R   0.811290 0.006780 0.950620 -0.457463
O6    O     O_R   0.980960 0.812920 0.953200 -0.449823
O7    O     O_R   0.001480 0.656720 0.955830 -0.478320
O8    O     O_R   0.809240 0.683250 0.968050 -0.513586
O9    O     O_R   0.652500 0.818540 0.967340 -0.426970
O10   O     O_R   0.677620 0.987170 0.961730 -0.463733
O11   O     O_3   0.833240 0.833660 0.999890 -0.268169
O12   O     O_R   0.639980 0.519500 0.542640 -0.514006
O13   O     O_R   0.676180 0.324490 0.458320 -0.437825
O14   O     O_R   0.643570 0.521510 0.464260 -0.516768
O15   O     O_R   0.504630 0.675350 0.460920 -0.436960
O16   O     O_R   0.339850 0.642450 0.459830 -0.431523
O17   O     O_R   0.321120 0.501280 0.538470 -0.533378
O18   O     O_R   0.518440 0.337050 0.536710 -0.521573
O19   O     O_R   0.672300 0.322330 0.542880 -0.452270
O20   O     O_3   0.478109 0.798369 0.406817 -0.532780
O21   O     O_3   0.840750 0.481271 0.163446 -0.523913
O22   O     O_3   0.175556 0.852045 0.340131 -0.494370
O23   O     O_R   0.500750 0.673190 0.545480 -0.485001
O24   O     O_3   0.193836 0.542039 0.164637 -0.585220
O25   O     O_3   0.862970 0.533693 0.089420 -0.517330
O26   O     O_3   0.199073 0.523999 0.315819 -0.579605
O27   O     O_3   0.498595 0.175461 0.333711 -0.549455
O28   O     O_3   0.517328 0.323093 0.283906 -0.564537
O29   O     O_3   0.835763 0.977665 0.214516 -0.530003
O30   O     O_3   0.559095 0.619642 0.287709 -0.568946
O31   O     O_3   0.843244 0.477175 0.851181 -0.561612
O32   O     O_3   0.028745 0.565922 0.889222 -0.524748
O33   O     O_3   0.298642 0.493751 0.792504 -0.536809
O34   O     O_R   0.336260 0.640450 0.538210 -0.425930
O35   O     O_3   0.076783 0.855195 0.707600 -0.568000
O36   O     O_3   0.058257 0.855408 0.788432 -0.531476
O37   O     O_3   0.602965 0.837653 0.191819 -0.575058
O38   O     O_3   0.526673 0.054225 0.910018 -0.499450
O39   O     O_3   0.801069 0.136184 0.901794 -0.526060
O40   O     O_3   0.615183 0.010718 0.699313 -0.548187
O41   O     O_3   0.592711 0.004977 0.780228 -0.583247
O42   O     O_3   0.451685 0.202597 0.654594 -0.562314
O43   O     O_3   0.797017 0.201404 0.598546 -0.511650
O44   O     O_3   0.499990 0.499990 0.500010 -0.274798
O45   O     O_R   0.834210 0.019400 0.034570 -0.523444
O46   O     O_R   0.002210 0.824620 0.031030 -0.482638
O47   O     O_R   0.024400 0.669340 0.039790 -0.546276
O48   O     O_R   0.830490 0.694950 0.045870 -0.481789

loop_
_geom_bond_atom_site_label_1
_geom_bond_atom_site_label_2
_ccdc_geom_bond_type
C50   H147  S    
C157  C158  A    
C54   H9    S    
C114  H129  S    
C2    O41   S    
C83   O10   A    
C63   H32   S    
C145  C146  A    
C135  C139  A    
C85   O30   S    
C37   C38   S    
C70   H48   S    
C113  C114  A    
C51   H3    S    
C5    C6    A    
C60   H25   S    
C106  C107  A    
C29   H97   S    
C18   C21   A    
C108  C109  A    
C117  O22   S    
C91   C96   A    
C25   H80   S    
C150  Cl8   S    
C19   C20   A    
C10   C20   S    
C151  C161  S    
C133  O29   S    
C39   H120  S    
C35   O21   S    
C157  H66   S    
C61   H26   S    
Cr4   O5    S    
Cr5   O11   S    
C99   H83   S    
C59   C60   S    
C42   H130  S    
C100  H74   S    
C45   H137  S    
C26   H88   S    
C45   C47   S    
C43   O29   S    
C50   O32   S    
C72   C73   S    
C143  C154  A    
C132  H78   S    
C94   C97   A    
C48   H142  S    
C99   C110  A    
C7    C163  A    
C37   O26   S    
C17   C21   A    
C55   H11   S    
C43   C44   S    
C45   H136  S    
C136  C141  A    
C49   H144  S    
C142  C148  A    
C11   O35   S    
C56   H15   S    
C16   H73   S    
C64   H33   S    
C16   C20   A    
C79   C120  S    
C128  C162  S    
C67   H43   S    
C28   O21   S    
C76   O47   A    
C60   H22   S    
C33   H105  S    
C87   C89   A    
C47   H139  S    
C142  C144  A    
C146  C147  A    
C67   O41   S    
C111  C112  A    
C79   O3    A    
C52   H4    S    
C101  O24   S    
C79   O45   A    
C154  O40   S    
C6    C7    A    
C42   H127  S    
C144  C145  A    
C24   C46   A    
C130  C131  A    
Cr2   O13   S    
C32   C33   S    
C65   H37   S    
C28   H93   S    
C68   H77   S    
C80   O6    A    
C66   H39   S    
C6    H75   S    
C151  C153  A    
Cr5   O47   S    
C5    C15   S    
C88   C99   A    
C155  C156  A    
C71   H51   S    
C22   C23   A    
C76   C98   S    
Cr6   O2    S    
C27   H91   S    
C74   C143  S    
C122  H140  S    
C28   H92   S    
C147  C148  A    
C127  C134  A    
C94   H63   S    
C123  C124  A    
C85   C86   A    
C110  O39   S    
C31   H101  S    
C92   O14   A    
C17   Cl2   S    
C127  H13   S    
C68   C74   A    
C41   H126  S    
C144  H60   S    
C57   O43   S    
C73   H56   S    
C164  H1    S    
C51   H149  S    
C107  C108  A    
C51   H150  S    
C32   H103  S    
C9    C10   A    
C114  C119  A    
C104  C119  S    
C37   H115  S    
C38   H116  S    
C84   C90   A    
Cr4   O46   S    
C46   C75   A    
C35   C82   A    
C92   C97   S    
C155  H65   S    
C78   O48   A    
C58   H19   S    
C30   H98   S    
C102  C103  A    
C43   H132  S    
C159  H69   S    
C39   C40   S    
C80   O7    A    
C22   C110  A    
C149  H62   S    
C1    O13   A    
C40   H123  S    
C53   H6    S    
C127  C129  A    
C137  H59   S    
C13   C121  A    
C65   O40   S    
Cr5   O7    S    
C59   H20   S    
C111  H118  S    
C81   O8    A    
C62   H30   S    
C103  C105  A    
C31   H100  S    
C2    C13   A    
C81   C142  S    
C27   H89   S    
C136  Cl6   S    
C147  H68   S    
Cr3   O34   S    
C115  C119  A    
C158  H67   S    
C121  C132  A    
C3    C4    A    
C104  O1    A    
C93   C97   A    
C52   C53   S    
C129  C130  A    
C50   H148  S    
C54   C55   S    
C54   H10   S    
C63   H31   S    
C72   O43   S    
Cr6   O9    S    
C59   O37   S    
C124  C134  S    
C22   C83   S    
C57   C75   A    
C70   H49   S    
C73   H58   S    
C117  C118  A    
C131  H46   S    
C19   H71   S    
Cr1   O17   S    
C56   O36   S    
C100  C101  A    
C56   C58   S    
C39   O27   S    
C34   C36   S    
C14   C164  A    
C14   O37   S    
Cr2   O12   S    
C10   C11   A    
C63   C64   S    
C4    C5    A    
C55   H14   S    
C116  O19   A    
C150  C151  A    
C57   C68   A    
C115  Cl4   S    
C138  O27   S    
C54   O35   S    
Cr4   O6    S    
C29   H95   S    
C36   H111  S    
C58   H17   S    
C101  C102  A    
C123  H35   S    
C41   C42   S    
C102  C112  S    
C44   H133  S    
C34   O25   S    
Cr1   O1    S    
C135  C136  A    
C103  Cl3   S    
C26   C27   S    
C28   C29   S    
C53   H8    S    
C30   C31   S    
C120  C126  A    
C148  Cl7   S    
C72   H53   S    
C36   H112  S    
C18   C19   A    
C25   C88   A    
C14   C77   A    
C62   H28   S    
C66   H40   S    
Cr1   O4    S    
C56   H16   S    
C95   C96   A    
C16   C17   A    
C115  C117  A    
C70   C71   S    
C153  C155  A    
C87   H81   S    
C3    C163  A    
Cr3   O16   S    
C34   H109  S    
C132  C143  A    
C4    Cl10  S    
C66   H41   S    
C130  C139  S    
Cr6   O11   S    
C77   C90   S    
C84   H70   S    
C106  Cl1   S    
C9    H72   S    
C84   C85   A    
C128  O12   A    
C86   C87   A    
Cr4   O11   S    
C35   C77   A    
Cr1   O44   S    
C42   H128  S    
Cr2   O14   S    
C91   C93   A    
C105  H85   S    
C159  C160  A    
C12   C15   A    
C50   C51   S    
C159  C162  A    
C40   H122  S    
C23   O38   S    
C76   O46   A    
C86   C96   S    
C121  H79   S    
C36   H113  S    
C8    C15   A    
C98   C100  A    
C125  C126  A    
Cr2   O19   S    
C44   H135  S    
C157  C161  A    
C125  H57   S    
C26   H87   S    
C64   H34   S    
C137  C141  A    
C113  O26   S    
C30   O22   S    
C69   H45   S    
C62   H29   S    
C49   H146  S    
C18   H76   S    
C55   H12   S    
C109  C111  A    
C49   H145  S    
C149  C150  A    
C92   O15   A    
C48   C49   S    
C41   H125  S    
C47   H141  S    
C135  Cl5   S    
C94   C95   A    
C73   H55   S    
C1    C141  S    
C138  C139  A    
C33   H106  S    
C83   O5    A    
C75   C116  S    
C21   C140  S    
C89   C90   A    
C32   H104  S    
Cr3   O23   S    
C82   C152  A    
C37   H114  S    
C45   O30   S    
C116  O18   A    
C48   O31   S    
C104  O16   A    
C7    O32   S    
C78   C152  S    
C80   C163  S    
C106  C112  A    
C30   H99   S    
C93   O20   S    
C98   C105  A    
C43   H131  S    
C149  C156  A    
C24   O42   S    
C65   H38   S    
C8    O33   S    
C82   O25   S    
C40   H124  S    
Cr5   O48   S    
C129  O28   S    
C3    Cl9   S    
C72   H54   S    
C8    C9    A    
C71   H52   S    
C160  H61   S    
C91   H86   S    
C140  O17   A    
C32   O24   S    
C38   H119  S    
C61   C62   S    
C69   H47   S    
C120  C122  A    
C48   H143  S    
C63   O39   S    
C108  C118  S    
C31   H102  S    
Cr6   O10   S    
C95   H24   S    
C61   O38   S    
C113  C118  A    
C67   C69   S    
C26   O20   S    
C67   H42   S    
C107  H96   S    
C59   H21   S    
C60   H23   S    
C33   H108  S    
C47   H138  S    
C12   O36   S    
C89   H84   S    
C152  C164  A    
C61   H27   S    
C126  H2    S    
C52   H5    S    
Cr4   O45   S    
C41   O28   S    
Cr1   O18   S    
C29   H94   S    
C140  O34   A    
C58   H18   S    
Cr2   O44   S    
C64   H36   S    
C52   O33   S    
C44   H134  S    
C131  C133  A    
C11   C12   A    
C145  O31   S    
C46   H82   S    
C137  C138  A    
Cr3   O44   S    
C39   H121  S    
C69   H44   S    
C160  C161  A    
C53   H7    S    
C1    O4    A    
Cr5   O8    S    
C24   C74   A    
C133  C134  A    
C13   C88   S    
C81   O9    A    
C71   H50   S    
C78   O2    A    
C23   C25   A    
C158  C162  A    
Cr6   O3    S    
C109  H107  S    
C27   H90   S    
C146  C156  S    
C38   H117  S    
C2    C154  A    
C65   C66   S    
C153  H64   S    
C128  O23   A    
C70   O42   S    
C122  C123  A    
Cr3   O15   S    
C124  C125  A    
C34   H110  S    
