data_mof_unit_17826.cif
_audit_creation_date              2012-12-10T18:59:13-0500
_audit_creation_method            fapswitch 2.2
_symmetry_space_group_name_H-M    P1
_symmetry_Int_Tables_number       1
_space_group_crystal_system       triclinic
_cell_length_a                    10.869222
_cell_length_b                    10.853365
_cell_length_c                    9.562078
_cell_angle_alpha                 89.373905
_cell_angle_beta                  88.516504
_cell_angle_gamma                 91.859242
_cell_volume                      1126.96581768

loop_
_atom_site_label
_atom_site_type_symbol
_atom_type_description
_atom_site_fract_x
_atom_site_fract_y
_atom_site_fract_z
_atom_type_partial_charge
C1    C     C_R   0.500729 0.262679 0.500651 0.772138
C2    C     C_R   0.058760 0.409202 0.607669 0.083661
C3    C     C_R   0.128647 0.478370 0.504733 -0.169699
C4    C     C_R   0.070343 0.533567 0.393776 -0.225072
C5    C     C_R   0.944343 0.530311 0.386145 0.371289
C6    C     C_R   0.871060 0.475639 0.495078 -0.189119
C7    C     C_R   0.474797 0.062788 0.623510 0.144530
C8    C     C_R   0.506815 0.130015 0.502174 -0.093078
C9    C     C_R   0.541900 0.067561 0.381005 -0.197421
C10   C     C_R   0.536330 0.939569 0.379818 -0.216656
C11   C     C_R   0.498549 0.871741 0.499922 -0.104701
C12   C     C_R   0.262613 0.490915 0.502086 0.809191
C13   C     C_R   0.470054 0.934966 0.622744 0.128125
C14   C     C_3   0.350455 0.930863 0.704900 -0.458801
C15   C     C_3   0.358287 0.070017 0.707767 -0.500596
C16   C     C_R   0.576838 0.579874 0.070023 0.294232
C17   C     C_R   0.433087 0.414286 0.077452 -0.073238
C18   C     C_R   0.433668 0.413877 0.928777 -0.075495
C19   C     C_R   0.575213 0.580322 0.922321 0.233857
C20   C     C_3   0.570682 0.716326 0.911267 -0.472071
C21   C     C_3   0.573804 0.718250 0.069147 -0.141124
C22   C     C_R   0.497250 0.737743 0.499662 0.808467
C23   C     C_R   0.737453 0.492402 0.498334 0.835983
C24   C     C_R   0.114593 0.338374 0.712403 -0.228490
C25   C     C_R   0.043351 0.271139 0.812624 0.209114
C26   C     C_R   0.915941 0.266927 0.804356 -0.083804
C27   C     C_R   0.859008 0.330852 0.698491 -0.207879
C28   C     C_R   0.928213 0.406907 0.601818 0.050735
Cu1   Cu    Cu3+1 0.499990 0.499980 0.640670 0.941789
Cu2   Cu    Cu3+1 0.500010 0.500020 0.359330 0.967248
H1    H     H_    0.123626 0.581767 0.311409 0.199004
H2    H     H_    0.356645 0.889938 0.810939 0.194658
H3    H     H_    0.283725 0.114014 0.649588 0.193629
H4    H     H_    0.374804 0.107506 0.813607 0.191258
H5    H     H_    0.376709 0.346467 0.135540 0.143428
H6    H     H_    0.378461 0.345255 0.875805 0.122420
H7    H     H_    0.653194 0.757954 0.855492 0.208364
H8    H     H_    0.481462 0.745530 0.871874 0.194522
H9    H     H_    0.489102 0.754714 0.118877 0.181836
H10   H     H_    0.212926 0.331039 0.716818 0.146420
H11   H     H_    0.860557 0.211314 0.878425 0.153842
H12   H     H_    0.760774 0.315689 0.691624 0.167775
H13   H     H_    0.569262 0.117262 0.285749 0.172794
H14   H     H_    0.558161 0.894876 0.283656 0.184782
H15   H     H_    0.272191 0.893876 0.643552 0.203534
N1    N     N_R   0.500790 0.500930 0.147930 -0.203396
N2    N     N_R   0.500790 0.500890 0.852020 -0.190390
O1    O     O_R   0.500000 0.319640 0.618810 -0.599056
O2    O     O_R   0.500010 0.319680 0.381230 -0.589131
O3    O     O_R   0.319640 0.499980 0.618820 -0.583373
O4    O     O_R   0.319650 0.500020 0.381230 -0.583066
O5    O     O_R   0.499990 0.680320 0.618770 -0.578526
O6    O     O_R   0.500000 0.680360 0.381190 -0.593787
O7    O     O_R   0.680350 0.499980 0.618770 -0.589417
O8    O     O_R   0.680360 0.500020 0.381180 -0.523694
N3    N     N_3   0.687371 0.777648 0.117842 -0.562887
H16   H     H_    0.697607 0.752432 0.222470 0.282887
H17   H     H_    0.763501 0.746528 0.060933 0.285740
N4    N     N_3   0.099930 0.204160 0.921948 -0.590171
H18   H     H_    0.156906 0.265643 0.976017 0.214957
H19   H     H_    0.155245 0.138105 0.876048 0.216638
Cl1   Cl    Cl    0.886831 0.596478 0.234239 -0.684709

loop_
_geom_bond_atom_site_label_1
_geom_bond_atom_site_label_2
_ccdc_geom_bond_type
C21   N3    S    
C12   O3    A    
Cu2   O4    S    
C1    O1    A    
C23   O8    A    
Cu1   Cu2   S    
C22   O6    A    
C1    C8    S    
C20   H8    S    
C9    C10   A    
C15   H4    S    
C19   C20   S    
C21   H9    S    
Cu2   N1    S    
C25   N4    S    
C18   N2    A    
C7    C15   S    
C17   C18   A    
C24   C25   A    
C7    C8    A    
N4    H18   S    
C13   C14   S    
C20   C21   S    
C20   H7    S    
C11   C13   A    
C27   H12   S    
C26   C27   A    
C16   C21   S    
C1    O2    A    
Cu1   N2    S    
C16   C19   A    
C6    C23   S    
C17   H5    S    
C24   H10   S    
Cu2   O2    S    
N3    H17   S    
C5    Cl1   S    
C2    C3    A    
C14   H15   S    
Cu1   O3    S    
C2    C24   A    
C5    C6    A    
Cu2   O6    S    
C19   N2    A    
N4    H19   S    
C4    H1    S    
C9    H13   S    
C10   C11   A    
Cu1   O1    S    
C10   H14   S    
C3    C4    A    
C7    C13   A    
C12   O4    A    
C17   N1    A    
C23   O7    A    
C22   O5    A    
Cu1   O7    S    
C16   N1    A    
C27   C28   A    
N3    H16   S    
C14   C15   S    
C4    C5    A    
C2    C28   A    
C3    C12   S    
C11   C22   S    
C25   C26   A    
C18   H6    S    
Cu2   O8    S    
C15   H3    S    
C6    C28   A    
C26   H11   S    
C14   H2    S    
C8    C9    A    
Cu1   O5    S    
