data_mof_unit_18303.cif
_audit_creation_date              2012-10-26T19:58:19-0400
_audit_creation_method            fapswitch 2.2
_symmetry_space_group_name_H-M    P1
_symmetry_Int_Tables_number       1
_space_group_crystal_system       triclinic
_cell_length_a                    7.543485
_cell_length_b                    8.664109
_cell_length_c                    13.269999
_cell_angle_alpha                 94.734963
_cell_angle_beta                  78.146861
_cell_angle_gamma                 103.122004
_cell_volume                      826.051647161

loop_
_atom_site_label
_atom_site_type_symbol
_atom_type_description
_atom_site_fract_x
_atom_site_fract_y
_atom_site_fract_z
_atom_type_partial_charge
C1    C     C_R   0.544928 0.799792 0.503419 0.524170
C2    C     C_R   0.346672 0.509520 0.807807 -0.063456
C3    C     C_2   0.568914 0.968060 0.506227 -0.164135
C4    C     C_R   0.401909 0.499797 0.694482 0.540787
C5    C     C_2   0.430593 0.031801 0.493909 -0.171834
C6    C     C_R   0.455035 0.200183 0.496496 0.538576
C7    C     C_R   0.600388 0.518954 0.306726 0.512338
C8    C     C_R   0.843488 0.756901 0.073042 -0.112765
C9    C     C_R   0.659594 0.566712 0.199576 0.030189
C10   C     C_R   0.163246 0.443171 0.855048 -0.181663
C11   C     C_R   0.109681 0.443983 0.963018 0.282643
C12   C     C_R   0.431721 0.542959 0.976243 -0.042230
C13   C     C_R   0.242184 0.507907 0.024009 0.266899
C14   C     C_3   0.046610 0.283474 0.338402 0.059844
C15   C     C_3   0.923243 0.142876 0.292699 -0.400379
C16   C     C_3   0.240655 0.707947 0.150950 -0.012097
C17   C     C_3   0.203267 0.743872 0.266792 -0.371533
C18   C     C_3   0.884844 0.221639 0.000240 0.000171
C19   C     C_3   0.686616 0.158338 0.055173 -0.376432
C20   C     C_R   0.478442 0.574622 0.870723 -0.022854
C21   C     C_R   0.573003 0.571577 0.034062 0.051402
C22   C     C_R   0.734144 0.687536 0.001429 0.069506
C23   C     C_R   0.772025 0.741413 0.901228 -0.143554
C24   C     C_R   0.649673 0.679569 0.834636 -0.107320
C25   C     C_R   0.546168 0.502335 0.129357 -0.079775
C26   C     C_R   0.801248 0.700661 0.173053 -0.095500
Cu1   Cu    Cu3+1 0.321300 0.483160 0.488710 0.955568
Cu2   Cu    Cu3+1 0.678700 0.516840 0.511290 0.989403
H1    H     H_    0.872845 0.766081 0.230914 0.102236
H2    H     H_    0.069666 0.385853 0.288787 0.191384
H3    H     H_    0.179915 0.250123 0.337746 0.160349
H4    H     H_    0.785994 0.169693 0.293133 0.162124
H5    H     H_    0.989278 0.116837 0.212256 0.085464
H6    H     H_    0.903422 0.036388 0.338323 0.136270
H7    H     H_    0.168143 0.775620 0.112864 0.130939
H8    H     H_    0.389368 0.759018 0.123396 0.116643
H9    H     H_    0.319074 0.725305 0.300292 0.176204
H10   H     H_    0.193732 0.869985 0.282353 0.072110
H11   H     H_    0.072753 0.666993 0.305207 0.192207
H12   H     H_    0.297797 0.960058 0.481741 0.125471
H13   H     H_    0.979455 0.171312 0.036109 0.116871
H14   H     H_    0.896242 0.179405 0.918089 0.115951
H15   H     H_    0.588227 0.200114 0.017656 0.149215
H16   H     H_    0.654980 0.026688 0.051251 0.091686
H17   H     H_    0.668222 0.199818 0.137277 0.147526
H18   H     H_    0.017307 0.639847 0.564449 0.193897
H19   H     H_    0.895412 0.830830 0.874527 0.095331
H20   H     H_    0.953687 0.860211 0.053249 0.069015
H21   H     H_    0.428978 0.405073 0.151870 0.124418
H22   H     H_    0.060244 0.393901 0.808364 0.148419
H23   H     H_    0.683615 0.726334 0.758421 0.142014
H24   H     H_    0.701402 0.039762 0.518753 0.166006
N1    N     N_2   0.947230 0.542220 0.528320 -0.191204
N2    N     N_2   0.052770 0.457780 0.471680 0.028071
O1    O     O_R   0.383920 0.714220 0.492660 -0.533114
O2    O     O_3   0.184559 0.542037 0.128482 -0.562174
O3    O     O_3   0.926626 0.389151 0.009259 -0.520739
O4    O     O_R   0.685730 0.742660 0.511730 -0.522703
O5    O     O_R   0.275440 0.478800 0.636790 -0.501155
O6    O     O_R   0.577250 0.507240 0.655860 -0.498587
O7    O     O_R   0.314270 0.257340 0.488270 -0.499776
O8    O     O_R   0.616080 0.285780 0.507340 -0.431017
O9    O     O_R   0.422750 0.492760 0.344140 -0.545927
O10   O     O_R   0.724560 0.521200 0.363210 -0.482616
O11   O     O_3   0.958741 0.317659 0.439212 -0.426781

loop_
_geom_bond_atom_site_label_1
_geom_bond_atom_site_label_2
_ccdc_geom_bond_type
C2    C10   A    
C2    C4    S    
Cu2   N1    S    
C16   O2    S    
Cu2   O4    S    
C8    C26   A    
C18   O3    S    
C8    C22   A    
C14   H3    S    
C23   C24   A    
C13   O2    S    
C4    O6    A    
C24   H23   S    
C18   H14   S    
C19   H16   S    
C1    O1    A    
Cu1   N2    S    
C9    C25   A    
C15   H4    S    
N2    O11   S    
C17   H9    S    
N1    N2    D    
C16   H8    S    
C11   C13   A    
C7    O9    A    
C6    O8    A    
Cu1   O9    S    
C12   C20   A    
C14   H2    S    
Cu2   O10   S    
H18   N1    S    
C14   O11   S    
C19   H15   S    
C9    C26   A    
Cu1   O1    S    
C17   H10   S    
Cu2   O6    S    
C16   H7    S    
C5    C6    S    
C3    H24   S    
C25   H21   S    
C7    O10   A    
C5    H12   S    
C23   H19   S    
C10   C11   A    
C4    O5    A    
C2    C20   A    
C10   H22   S    
C1    O4    A    
C12   C13   A    
C6    O7    A    
C26   H1    S    
C18   C19   S    
C17   H11   S    
C18   H13   S    
Cu1   Cu2   S    
C7    C9    S    
C3    C5    D    
C21   C25   A    
C14   C15   S    
Cu1   O5    S    
C15   H6    S    
C1    C3    S    
C21   C22   A    
C11   O3    S    
C12   C21   A    
C15   H5    S    
C22   C23   A    
C19   H17   S    
C20   C24   A    
Cu2   O8    S    
C16   C17   S    
C8    H20   S    
Cu1   O7    S    
