data_mof_unit_11634.cif
_audit_creation_date              2012-12-11T13:59:55-0500
_audit_creation_method            fapswitch 2.2
_symmetry_space_group_name_H-M    P1
_symmetry_Int_Tables_number       1
_space_group_crystal_system       triclinic
_cell_length_a                    11.23273
_cell_length_b                    11.2271
_cell_length_c                    18.677526
_cell_angle_alpha                 90.920692
_cell_angle_beta                  89.372942
_cell_angle_gamma                 119.485486
_cell_volume                      2050.08820566

loop_
_atom_site_label
_atom_site_type_symbol
_atom_type_description
_atom_site_fract_x
_atom_site_fract_y
_atom_site_fract_z
_atom_type_partial_charge
C1    C     C_R   0.541934 0.480754 0.852285 0.590637
C2    C     C_R   0.481016 0.543024 0.351008 0.570612
C3    C     C_R   0.057940 0.518876 0.349473 0.578951
C4    C     C_R   0.417859 0.868405 0.359514 0.582104
C5    C     C_2   0.976617 0.476755 0.573950 -0.069852
C6    C     C_2   0.501049 0.500113 0.579389 -0.053568
C7    C     C_2   0.485399 0.967212 0.588179 -0.049539
C8    C     C_2   0.441662 0.899554 0.435561 -0.064554
C9    C     C_2   0.499401 0.506058 0.422310 -0.058768
C10   C     C_2   0.964217 0.491560 0.409137 -0.048276
C11   C     C_2   0.926344 0.386786 0.453253 0.060246
C12   C     C_R   0.520232 0.062421 0.852288 0.592904
C13   C     C_2   0.604018 0.597365 0.462980 0.060967
C14   C     C_2   0.337028 0.864517 0.481843 0.055771
C15   C     C_2   0.359279 0.904940 0.558932 0.080965
C16   C     C_2   0.587484 0.609451 0.540761 0.069186
C17   C     C_2   0.881275 0.400369 0.524866 0.061665
C18   C     C_2   0.884148 0.440665 0.936904 -0.097464
C19   C     C_2   0.501791 0.507050 0.922465 -0.094102
C20   C     C_2   0.497194 0.002078 0.922901 -0.086364
C21   C     C_2   0.502345 0.006159 0.078929 -0.110054
C22   C     C_2   0.503687 0.495031 0.078005 -0.114630
C23   C     C_R   0.864716 0.417794 0.860162 0.584283
C24   C     C_2   0.993568 0.489421 0.080430 -0.091923
C25   C     C_2   0.958538 0.572549 0.047550 0.175503
C26   C     C_2   0.400145 0.397016 0.038519 0.177095
C27   C     C_2   0.603654 0.004657 0.039532 0.168622
C28   C     C_2   0.595342 0.992101 0.959027 0.197716
C29   C     C_2   0.394697 0.409270 0.958649 0.202227
C30   C     C_2   0.953540 0.565485 0.969117 0.226683
C31   C     C_R   0.479704 0.540796 0.147555 0.597245
C32   C     C_R   0.059894 0.518406 0.149079 0.594223
C33   C     C_R   0.458879 0.938606 0.147963 0.605147
C34   C     C_R   0.541887 0.481077 0.649552 0.597235
C35   C     C_R   0.517593 0.056991 0.650625 0.597830
C36   C     C_R   0.937177 0.455609 0.648341 0.600079
Cr1   Cr    Cr6+3 0.464030 0.233680 0.750360 1.090887
Cr2   Cr    Cr6+3 0.766320 0.230350 0.750360 1.112259
Cr3   Cr    Cr6+3 0.769650 0.535970 0.750360 1.115349
Cr4   Cr    Cr6+3 0.233680 0.464030 0.249640 1.149275
Cr5   Cr    Cr6+3 0.230350 0.766320 0.249640 1.151949
Cr6   Cr    Cr6+3 0.535970 0.769650 0.249640 1.152058
H1    H     H_    0.940614 0.571815 0.423649 0.083118
H2    H     H_    0.409548 0.997974 0.948952 0.151342
H3    H     H_    0.582959 0.594815 0.948779 0.144552
H4    H     H_    0.828411 0.349496 0.969103 0.075320
H5    H     H_    0.854792 0.183799 0.442031 0.229614
H6    H     H_    0.014843 0.272483 0.475005 0.228606
H7    H     H_    0.810015 0.682216 0.455540 0.216132
H8    H     H_    0.750498 0.791300 0.438468 0.236960
H9    H     H_    0.142614 0.710583 0.486089 0.202758
H10   H     H_    0.158922 0.861890 0.460877 0.236459
H11   H     H_    0.173139 0.780457 0.603709 0.226171
H12   H     H_    0.406619 0.425287 0.445535 0.066337
H13   H     H_    0.197958 0.936218 0.578732 0.230890
H14   H     H_    0.659564 0.813293 0.551886 0.214479
H15   H     H_    0.776321 0.763549 0.568813 0.235865
H16   H     H_    0.687300 0.359405 0.509311 0.224322
H17   H     H_    0.703094 0.222683 0.530678 0.220687
H18   H     H_    0.921188 0.833726 0.018082 0.394991
H19   H     H_    0.145122 0.041438 0.035916 0.391333
H20   H     H_    0.936909 0.069693 0.025348 0.398921
H21   H     H_    0.895748 0.038105 0.857380 0.354159
H22   H     H_    0.149907 0.129240 0.846759 0.335083
H23   H     H_    0.547459 0.951396 0.452141 0.054195
H24   H     H_    0.047449 0.862731 0.856651 0.358988
H25   H     H_    0.571951 0.967457 0.562340 0.038449
H26   H     H_    0.423996 0.406219 0.554636 0.059164
H27   H     H_    0.084756 0.528279 0.560568 0.044300
H28   H     H_    0.000177 0.409661 0.049801 0.166629
H29   H     H_    0.598790 0.568821 0.054291 0.151004
H30   H     H_    0.426349 0.025713 0.055852 0.145765
N1    N     N_3   0.948398 0.273851 0.436687 -0.566048
N2    N     N_3   0.732532 0.691490 0.430236 -0.570401
N3    N     N_3   0.199841 0.796476 0.454923 -0.600395
N4    N     N_3   0.243837 0.884892 0.602006 -0.577174
N5    N     N_3   0.674206 0.738318 0.576111 -0.576798
N6    N     N_3   0.738462 0.325819 0.542815 -0.589357
O1    O     O_R   0.434100 0.092480 0.829780 -0.477408
O2    O     O_R   0.362730 0.477510 0.175360 -0.447261
O3    O     O_R   0.114780 0.637270 0.175360 -0.444452
O4    O     O_R   0.522490 0.885220 0.175360 -0.442136
O5    O     O_R   0.432250 0.092620 0.670380 -0.472834
O6    O     O_R   0.907380 0.339630 0.670380 -0.490953
O7    O     O_R   0.660370 0.567750 0.670380 -0.468207
O8    O     O_R   0.092620 0.432250 0.329620 -0.464508
O9    O     O_R   0.339630 0.907380 0.329620 -0.463170
O10   O     O_R   0.567750 0.660370 0.329620 -0.475913
O11   O     O_R   0.475790 0.362860 0.676880 -0.506560
O12   O     O_R   0.907520 0.341620 0.829780 -0.415186
O13   O     O_R   0.637140 0.112930 0.676880 -0.497098
O14   O     O_R   0.887070 0.524210 0.676880 -0.487696
O15   O     O_R   0.362860 0.475790 0.323120 -0.510496
O16   O     O_R   0.112930 0.637140 0.323120 -0.504098
O17   O     O_R   0.524210 0.887070 0.323120 -0.504787
O18   O     O_3   0.666667 0.333333 0.749450 -0.329416
O19   O     O_3   0.333333 0.666667 0.250550 -0.346413
O20   O     O_2   0.838891 0.629595 0.157960 -0.253649
O21   O     O_2   0.059281 0.815891 0.117518 -0.222654
O22   O     O_3   0.847683 0.747433 0.038225 -0.464217
O23   O     O_R   0.658380 0.565900 0.829780 -0.468995
O24   O     O_2   0.346469 0.220818 0.146673 -0.262769
O25   O     O_2   0.155977 0.245531 0.102057 -0.211515
O26   O     O_3   0.241716 0.107702 0.024907 -0.456910
O27   O     O_2   0.776880 0.126927 0.149786 -0.253846
O28   O     O_2   0.751136 0.909448 0.105738 -0.197527
O29   O     O_3   0.892858 0.127155 0.029972 -0.427375
O30   O     O_2   0.729915 0.849481 0.955674 -0.256331
O31   O     O_2   0.624433 0.859048 0.844456 -0.270139
O32   O     O_3   0.846295 0.076218 0.885112 -0.447623
O33   O     O_2   0.121107 0.297591 0.958259 -0.207939
O34   O     O_R   0.092480 0.434100 0.170220 -0.450722
O35   O     O_2   0.239063 0.389988 0.845516 -0.264361
O36   O     O_3   0.214828 0.159586 0.887294 -0.465580
O37   O     O_2   0.164738 0.822817 0.975863 -0.284639
O38   O     O_2   0.149132 0.688699 0.868540 -0.234597
O39   O     O_3   0.978231 0.781471 0.882663 -0.483724
O40   O     O_R   0.341620 0.907520 0.170220 -0.448512
O41   O     O_R   0.565900 0.658380 0.170220 -0.435494
O42   O     O_R   0.477510 0.362730 0.824640 -0.458742
O43   O     O_R   0.637270 0.114780 0.824640 -0.466610
O44   O     O_R   0.885220 0.522490 0.824640 -0.426773
S1    S     S_3+6 0.927613 0.694230 0.093523 0.074119
S2    S     S_3+6 0.282949 0.240910 0.080783 0.085131
S3    S     S_3+6 0.757796 0.040740 0.083879 0.094344
S4    S     S_3+6 0.699024 0.939158 0.910176 0.064803
S5    S     S_3+6 0.237495 0.314256 0.911579 0.092190
S6    S     S_3+6 0.067790 0.718301 0.923374 0.062249

loop_
_geom_bond_atom_site_label_1
_geom_bond_atom_site_label_2
_ccdc_geom_bond_type
C12   O1    A    
C22   H29   S    
Cr6   O4    S    
Cr4   O15   S    
C4    C8    S    
H10   N3    S    
C24   H28   S    
C31   O2    A    
Cr4   O34   S    
C4    O9    A    
C32   O3    A    
Cr1   O1    S    
O28   S3    D    
Cr3   O44   S    
H9    N3    S    
H8    N2    S    
Cr6   O41   S    
C5    C17   D    
C5    C36   S    
C16   N5    S    
Cr4   O8    S    
C9    C13   D    
C5    H27   S    
C12   O43   A    
H24   O39   S    
Cr4   O2    S    
C2    O10   A    
C18   C30   D    
Cr5   O40   S    
C33   O4    A    
C36   O14   A    
C6    H26   S    
C15   N4    S    
C21   C27   D    
C33   O40   A    
C3    O8    A    
H16   N6    S    
C26   S2    S    
O24   S2    D    
O25   S2    D    
C18   H4    S    
H17   N6    S    
C20   H2    S    
C28   S4    S    
Cr3   O23   S    
C23   O44   A    
O20   S1    D    
Cr5   O9    S    
C30   S6    S    
C1    C19   S    
H22   O36   S    
C22   C31   S    
C21   H30   S    
C18   C23   S    
H15   N5    S    
H19   O26   S    
C24   C25   D    
O29   S3    S    
C11   N1    S    
Cr6   O19   S    
Cr4   O19   S    
C35   O5    A    
H20   O29   S    
C20   C28   D    
C7    H25   S    
Cr2   O13   S    
H14   N5    S    
Cr6   O17   S    
Cr1   O18   S    
C34   O7    A    
C24   C32   S    
C4    O17   A    
Cr5   O16   S    
Cr5   O3    S    
C12   C20   S    
C23   O12   A    
C25   S1    S    
H5    N1    S    
C22   C26   D    
O32   S4    S    
O26   S2    S    
H13   N4    S    
C29   S5    S    
O33   S5    D    
Cr5   O19   S    
H11   N4    S    
Cr6   O10   S    
Cr3   O7    S    
C19   C29   D    
C1    O23   A    
Cr3   O14   S    
O21   S1    D    
C25   C30   S    
C11   C17   S    
C8    C14   D    
C32   O34   A    
Cr2   O6    S    
C10   H1    S    
C14   C15   S    
C7    C35   S    
H6    N1    S    
C2    O15   A    
H18   O22   S    
C19   H3    S    
O35   S5    D    
Cr1   O11   S    
Cr2   O12   S    
O27   S3    D    
O22   S1    S    
C14   N3    S    
H21   O32   S    
C34   O11   A    
C3    C10   S    
O36   S5    S    
C27   S3    S    
Cr1   O42   S    
C36   O6    A    
C7    C15   D    
C17   N6    S    
C3    O16   A    
O39   S6    S    
Cr3   O18   S    
Cr2   O43   S    
C10   C11   D    
O37   S6    D    
C6    C16   D    
C6    C34   S    
O31   S4    D    
C8    H23   S    
C21   C33   S    
C13   N2    S    
C26   C29   S    
O38   S6    D    
C13   C16   S    
Cr2   O18   S    
C27   C28   S    
H7    N2    S    
Cr1   O5    S    
C9    H12   S    
O30   S4    D    
C31   O41   A    
C2    C9    S    
C1    O42   A    
C35   O13   A    
