data_mof_unit_22119.cif
_audit_creation_date              2012-12-10T17:04:33-0500
_audit_creation_method            fapswitch 2.2
_symmetry_space_group_name_H-M    P1
_symmetry_Int_Tables_number       1
_space_group_crystal_system       triclinic
_cell_length_a                    14.993992
_cell_length_b                    10.640655
_cell_length_c                    10.017096
_cell_angle_alpha                 91.449112
_cell_angle_beta                  89.812139
_cell_angle_gamma                 90.187238
_cell_volume                      1597.6587275

loop_
_atom_site_label
_atom_site_type_symbol
_atom_type_description
_atom_site_fract_x
_atom_site_fract_y
_atom_site_fract_z
_atom_type_partial_charge
C1    C     C_R   0.497977 0.262266 0.497943 0.906154
C2    C     C_R   0.908266 0.555979 0.615113 -0.026911
C3    C     C_R   0.952399 0.402039 0.281718 -0.170765
C4    C     C_R   0.045078 0.400290 0.280372 -0.228190
C5    C     C_R   0.092413 0.446764 0.391235 0.118962
C6    C     C_R   0.046647 0.493980 0.505215 0.098441
C7    C     C_R   0.093962 0.537235 0.618727 0.118963
C8    C     C_R   0.048700 0.581774 0.732104 -0.241813
C9    C     C_R   0.956521 0.590515 0.730693 -0.104769
C10   C     C_R   0.184878 0.448485 0.389845 -0.277516
C11   C     C_R   0.231087 0.494402 0.501800 -0.061775
C12   C     C_R   0.326765 0.498148 0.500240 0.864749
C13   C     C_R   0.186064 0.536162 0.616666 -0.252768
C14   C     C_2   0.449396 0.929501 0.400778 -0.175088
C15   C     C_2   0.473282 0.867910 0.509101 -0.374965
C16   C     C_2   0.438147 0.065360 0.410062 0.131170
C17   C     C_2   0.495358 0.129008 0.490816 -0.347255
C18   C     C_2   0.523705 0.596430 0.927473 -0.059547
C19   C     C_2   0.530379 0.592780 0.077184 -0.112070
C20   C     C_R   0.493841 0.737407 0.501925 1.007356
C21   C     C_R   0.673261 0.506093 0.500122 0.992687
C22   C     C_R   0.816037 0.575427 0.606301 0.403343
C23   C     C_R   0.769378 0.514560 0.500343 -0.207392
C24   C     C_R   0.814755 0.456207 0.393790 -0.305150
C25   C     C_R   0.906787 0.453224 0.392527 0.126497
C26   C     C_R   0.953744 0.500222 0.504738 0.001206
H1    H     H_    0.474058 0.913459 0.607511 0.151512
H2    H     H_    0.545945 0.082751 0.549187 0.144343
H3    H     H_    0.541210 0.683828 0.880389 0.177575
H4    H     H_    0.490182 0.416349 0.895731 0.160936
H5    H     H_    0.559961 0.673547 0.128483 0.175245
H6    H     H_    0.467620 0.428807 0.100320 0.153649
H7    H     H_    0.778209 0.412846 0.311306 0.186123
H8    H     H_    0.916428 0.365324 0.195458 0.155977
H9    H     H_    0.079653 0.362876 0.192958 0.152397
H10   H     H_    0.220817 0.414021 0.302235 0.161217
H11   H     H_    0.222684 0.571051 0.703275 0.161607
H12   H     H_    0.084635 0.611374 0.821278 0.152228
H13   H     H_    0.923788 0.622374 0.821600 0.211812
H14   H     H_    0.441152 0.881289 0.304712 0.166526
N1    N     N_2   0.500970 0.501330 0.852150 -0.194103
N2    N     N_2   0.500990 0.501360 0.147810 -0.200296
O1    O     O_R   0.499990 0.319060 0.613040 -0.617529
O2    O     O_R   0.500010 0.319100 0.386900 -0.620356
O3    O     O_R   0.367830 0.499950 0.613080 -0.628377
O4    O     O_R   0.367860 0.499990 0.386940 -0.630001
O5    O     O_R   0.499990 0.680900 0.613100 -0.608283
O6    O     O_R   0.500010 0.680940 0.386960 -0.618972
O7    O     O_R   0.632140 0.500010 0.613060 -0.547774
O8    O     O_R   0.632170 0.500050 0.386920 -0.615847
Zn1   Zn    Zn3+2 0.499980 0.499970 0.650990 0.986082
Zn2   Zn    Zn3+2 0.500020 0.500030 0.349010 0.946512
S1    S     S_3+6 0.762753 0.689698 0.713216 0.006043
O9    O     O_2   0.728943 0.626541 0.836037 -0.318426
O10   O     O_2   0.827099 0.792385 0.753602 -0.312190
O11   O     O_3   0.677495 0.756864 0.633861 -0.569510
H15   H     H_    0.653181 0.819677 0.698857 0.369800
C27   C     C_3   0.366552 0.130491 0.328961 -0.365916
C28   C     C_3   0.292799 0.041835 0.276154 -0.366278
C29   C     C_3   0.216416 0.115381 0.215313 -0.876637
H16   H     H_    0.183436 0.175166 0.293231 0.265537
H17   H     H_    0.241604 0.175610 0.134325 0.255590
H18   H     H_    0.166183 0.048881 0.172791 0.262294
H19   H     H_    0.320515 0.976948 0.198002 0.218070
H20   H     H_    0.265769 0.985365 0.359073 0.239355
H21   H     H_    0.334429 0.203837 0.393860 0.197820
H22   H     H_    0.398512 0.177334 0.243107 0.208693

loop_
_geom_bond_atom_site_label_1
_geom_bond_atom_site_label_2
_ccdc_geom_bond_type
C2    C22   A    
O8    Zn2   S    
C23   C24   A    
C15   C20   S    
H4    N1    S    
C6    C7    A    
C1    O2    A    
C15   H1    S    
C24   H7    S    
C19   N2    D    
C7    C13   A    
C11   C12   S    
C19   H5    S    
O2    Zn2   S    
C21   O7    A    
C16   C27   S    
C4    H9    S    
C28   C29   S    
C2    C26   A    
C18   H3    S    
C6    C26   A    
S1    O9    D    
C28   H20   S    
C11   C13   A    
O1    Zn1   S    
C28   H19   S    
C20   O6    A    
C8    H12   S    
C29   H18   S    
C4    C5    A    
C5    C10   A    
C21   O8    A    
C25   C26   A    
C1    O1    A    
C22   S1    S    
C1    C17   S    
S1    O10   D    
C21   C23   S    
C9    H13   S    
C5    C6    A    
C14   C16   S    
S1    O11   S    
C20   O5    A    
C7    C8    A    
C10   C11   A    
O3    Zn1   S    
C14   H14   S    
C3    C4    A    
O4    Zn2   S    
C27   H22   S    
C3    C25   A    
C2    C9    A    
C24   C25   A    
C8    C9    A    
C29   H17   S    
C18   C19   S    
C18   N1    D    
O11   H15   S    
H6    N2    S    
C14   C15   D    
C29   H16   S    
O5    Zn1   S    
C3    H8    S    
O7    Zn1   S    
C27   C28   S    
O6    Zn2   S    
C17   H2    S    
C13   H11   S    
N1    Zn1   S    
C22   C23   A    
C16   C17   D    
N2    Zn2   S    
C12   O3    A    
C10   H10   S    
C12   O4    A    
C27   H21   S    
