data_mof_unit_34354.cif
_audit_creation_date              2012-12-10T17:19:52-0500
_audit_creation_method            fapswitch 2.2
_symmetry_space_group_name_H-M    P1
_symmetry_Int_Tables_number       1
_space_group_crystal_system       triclinic
_cell_length_a                    9.619796
_cell_length_b                    10.771882
_cell_length_c                    15.399826
_cell_angle_alpha                 87.239855
_cell_angle_beta                  73.698272
_cell_angle_gamma                 89.818125
_cell_volume                      1529.75954066

loop_
_atom_site_label
_atom_site_type_symbol
_atom_type_description
_atom_site_fract_x
_atom_site_fract_y
_atom_site_fract_z
_atom_type_partial_charge
C1    C     C_R   0.999370 0.262767 0.501822 0.801303
C2    C     C_R   0.686098 0.529679 0.914766 -0.035374
C3    C     C_R   0.785683 0.500995 0.964520 -0.073301
C4    C     C_R   0.546011 0.572297 0.960614 -0.178229
C5    C     C_R   0.491683 0.544748 0.054894 -0.080436
C6    C     C_R   0.591874 0.513074 0.105149 0.308774
C7    C     C_R   0.740254 0.496538 0.059511 0.338855
C8    C     C_R   0.460341 0.645159 0.915822 0.499489
C9    C     C_R   0.313791 0.664442 0.958057 0.359675
C10   C     C_R   0.252587 0.621689 0.048978 -0.085458
C11   C     C_R   0.339988 0.555781 0.095884 0.076670
C12   C     C_R   0.917392 0.493227 0.673076 0.779856
C13   C     C_R   0.108537 0.649660 0.096290 -0.105857
C14   C     C_R   0.050670 0.608803 0.186467 -0.124590
C15   C     C_R   0.271638 0.500732 0.182027 -0.114462
C16   C     C_R   0.034600 0.117640 0.658452 -0.170882
C17   C     C_R   0.051803 0.047086 0.732977 -0.133153
C18   C     C_R   0.051327 0.917919 0.732700 -0.094488
C19   C     C_R   0.033771 0.858662 0.657862 -0.139382
C20   C     C_R   0.017546 0.928442 0.581127 0.014820
C21   C     C_R   0.017960 0.059509 0.581581 0.096661
C22   C     C_R   0.997778 0.128732 0.505998 -0.133858
C23   C     C_R   0.999451 0.737108 0.500883 0.845986
C24   C     C_R   0.975081 0.070191 0.432333 -0.285069
C25   C     C_R   0.976043 0.941059 0.430617 0.393653
C26   C     C_R   0.997640 0.870845 0.504730 -0.125560
C27   C     C_R   0.697417 0.665223 0.379849 -0.126116
C28   C     C_R   0.652028 0.746961 0.321132 -0.182073
C29   C     C_R   0.508613 0.748274 0.321542 -0.139137
C30   C     C_R   0.409924 0.667370 0.380289 -0.074647
C31   C     C_R   0.451467 0.582121 0.441249 0.203510
C32   C     C_R   0.600888 0.581603 0.441125 0.187714
C33   C     C_R   0.549028 0.421699 0.555748 0.000019
C34   C     C_R   0.082581 0.504960 0.327643 0.781126
C35   C     C_R   0.401340 0.421646 0.555665 -0.008789
C36   C     C_R   0.871915 0.485850 0.774113 -0.294291
C37   C     C_R   0.131163 0.532339 0.229389 -0.085531
C38   C     C_R   0.929681 0.474792 0.918383 -0.157424
C39   C     C_R   0.974123 0.468507 0.824535 0.334748
C40   C     C_R   0.724703 0.503967 0.822005 0.347245
Cu1   Cu    Cu3+1 0.140660 0.499990 0.500010 0.952962
Cu2   Cu    Cu3+1 0.859340 0.500010 0.499990 0.964373
H1    H     H_    0.041231 0.708252 0.066275 0.144435
H2    H     H_    0.729016 0.809575 0.274809 0.158984
H3    H     H_    0.303089 0.675636 0.374232 0.194605
H4    H     H_    0.326156 0.357035 0.601107 0.133861
H5    H     H_    0.944062 0.639209 0.222866 0.137153
N1    N     N_R   0.648320 0.501210 0.499140 -0.202901
N2    N     N_R   0.352470 0.501290 0.499110 -0.204609
O1    O     O_R   0.118810 0.319640 0.500010 -0.583135
O2    O     O_R   0.881240 0.319660 0.500000 -0.580620
O3    O     O_R   0.055570 0.499980 0.629840 -0.562315
O4    O     O_R   0.818000 0.500010 0.629830 -0.544749
O5    O     O_R   0.118760 0.680340 0.500000 -0.609899
O6    O     O_R   0.881190 0.680360 0.499990 -0.565056
O7    O     O_R   0.182000 0.499990 0.370170 -0.587117
O8    O     O_R   0.944430 0.500020 0.370160 -0.600444
O9    O     O_3   0.842278 0.471126 0.105598 -0.757215
H6    H     H_    0.804762 0.493837 0.169235 0.338609
H7    H     H_    0.959553 0.125700 0.375197 0.142302
H8    H     H_    0.032565 0.217577 0.662092 0.106946
H9    H     H_    0.064328 0.092831 0.791444 0.147836
H10   H     H_    0.063497 0.863343 0.790964 0.168593
H11   H     H_    0.031538 0.758199 0.661324 0.151943
O10   O     O_3   0.959958 0.881365 0.356490 -0.777270
H12   H     H_    0.946321 0.944171 0.310428 0.319335
H13   H     H_    0.583655 0.357175 0.601325 0.131027
H14   H     H_    0.809411 0.671003 0.374277 0.225595
H15   H     H_    0.325713 0.432458 0.214162 0.182022
H16   H     H_    0.473425 0.811877 0.275508 0.151956
O11   O     O_3   0.235300 0.728680 0.908292 -0.681467
H17   H     H_    0.136808 0.691774 0.923734 0.314838
H18   H     H_    0.009122 0.456235 0.955114 0.219335
O12   O     O_3   0.116684 0.439024 0.785673 -0.689125
H19   H     H_    0.117656 0.373724 0.742455 0.318355
O13   O     O_3   0.615121 0.485744 0.782181 -0.656265
H20   H     H_    0.634727 0.406113 0.751444 0.323005
O14   O     O_3   0.548254 0.513106 0.198316 -0.757660
H21   H     H_    0.585470 0.436345 0.221695 0.316121
O15   O     O_3   0.518381 0.707386 0.832957 -0.622102
H22   H     H_    0.621619 0.726428 0.826474 0.315760

loop_
_geom_bond_atom_site_label_1
_geom_bond_atom_site_label_2
_ccdc_geom_bond_type
C34   O7    A    
C16   C21   A    
C34   C37   S    
Cu1   Cu2   S    
C30   H3    S    
C19   C20   A    
C4    C8    A    
C28   C29   A    
C5    C11   A    
C3    C7    A    
Cu2   O4    S    
C38   C39   A    
C17   H9    S    
C18   H10   S    
C6    O14   S    
C18   C19   A    
C39   O12   S    
C23   C26   S    
C15   C37   A    
C27   H14   S    
C11   C15   A    
C3    C38   A    
C8    C9    A    
C35   N2    A    
C34   O8    A    
C12   C36   S    
C1    O1    A    
Cu1   O3    S    
C12   O4    A    
Cu2   O2    S    
C1    C22   S    
C21   C22   A    
C32   N1    A    
C31   N2    A    
Cu2   O8    S    
Cu1   N2    S    
C12   O3    A    
C15   H15   S    
O12   H19   S    
C36   C40   A    
C25   O10   S    
O13   H20   S    
O14   H21   S    
C16   C17   A    
C25   C26   A    
C28   H2    S    
C40   O13   S    
C2    C4    A    
Cu1   O7    S    
C29   C30   A    
Cu2   O6    S    
C31   C32   A    
C19   H11   S    
C24   H7    S    
C17   C18   A    
Cu2   N1    S    
C24   C25   A    
C1    O2    A    
C14   H5    S    
C22   C24   A    
C16   H8    S    
Cu1   O1    S    
C13   H1    S    
C33   H13   S    
C23   O5    A    
C29   H16   S    
C9    C10   A    
C7    O9    S    
C27   C32   A    
C36   C39   A    
C9    O11   S    
O15   H22   S    
C10   C13   A    
C23   O6    A    
C6    C7    A    
C2    C3    A    
O9    H6    S    
O11   H17   S    
C14   C37   A    
C30   C31   A    
C5    C6    A    
C20   C26   A    
C33   C35   A    
Cu1   O5    S    
C10   C11   A    
C2    C40   A    
C4    C5    A    
C20   C21   A    
O10   H12   S    
C27   C28   A    
C8    O15   S    
C33   N1    A    
C13   C14   A    
C35   H4    S    
C38   H18   S    
