data_mof_unit_62846.cif
_audit_creation_date              2012-12-10T18:30:38-0500
_audit_creation_method            fapswitch 2.2
_symmetry_space_group_name_H-M    P1
_symmetry_Int_Tables_number       1
_space_group_crystal_system       triclinic
_cell_length_a                    18.221689
_cell_length_b                    18.22171
_cell_length_c                    42.936674
_cell_angle_alpha                 90.000209
_cell_angle_beta                  89.999968
_cell_angle_gamma                 89.999675
_cell_volume                      14256.2781516

loop_
_atom_site_label
_atom_site_type_symbol
_atom_type_description
_atom_site_fract_x
_atom_site_fract_y
_atom_site_fract_z
_atom_type_partial_charge
C1    C     C_R   0.000000 0.500000 0.665775 0.817347
C2    C     C_R   0.500000 0.000000 0.334225 0.817400
C3    C     C_R   0.000000 0.500000 0.334224 0.817361
C4    C     C_R   0.500000 0.000000 0.665775 0.817330
C5    C     C_R   0.500000 1.000000 0.165775 0.817336
C6    C     C_R   1.000000 0.500000 0.834224 0.817391
C7    C     C_R   0.500000 0.000000 0.834224 0.817367
C8    C     C_R   1.000000 0.500000 0.165775 0.817338
C9    C     C_R   1.000000 0.499999 0.868595 -0.051286
C10   C     C_R   0.499998 1.000000 0.131405 -0.050918
C11   C     C_R   1.000000 0.499998 0.131405 -0.050912
C12   C     C_R   0.499999 0.000000 0.868595 -0.051292
C13   C     C_R   0.499999 0.000001 0.368595 -0.051241
C14   C     C_R   0.000002 0.500000 0.631405 -0.050901
C15   C     C_R   0.500000 0.000000 0.631405 -0.050910
C16   C     C_R   0.000002 0.500000 0.368595 -0.051256
C17   C     C_R   0.499997 0.000002 0.531484 0.424548
C18   C     C_R   0.000005 0.499998 0.468508 0.423955
C19   C     C_R   0.499997 0.000002 0.468508 0.423948
C20   C     C_R   0.000005 0.499999 0.531484 0.424538
C21   C     C_R   0.999999 0.499994 0.031483 0.424513
C22   C     C_R   0.499997 0.999999 0.968507 0.423975
C23   C     C_R   1.000000 0.499995 0.968507 0.423978
C24   C     C_R   0.499996 0.999998 0.031483 0.424532
C25   C     C_R   0.141306 0.641254 0.749944 0.783442
C26   C     C_R   0.641243 0.858684 0.250062 0.782427
C27   C     C_R   0.858689 0.358751 0.749941 0.783454
C28   C     C_R   0.358741 0.141300 0.250053 0.782476
C29   C     C_R   0.858684 0.641243 0.250062 0.782396
C30   C     C_R   0.358746 0.858694 0.749944 0.783466
C31   C     C_R   0.141300 0.358741 0.250053 0.782461
C32   C     C_R   0.641249 0.141311 0.749941 0.783425
C33   C     C_R   0.641307 0.141252 0.249943 0.783471
C34   C     C_R   0.141259 0.358699 0.750053 0.782479
C35   C     C_R   0.358694 0.858747 0.249944 0.783386
C36   C     C_R   0.858747 0.641306 0.750056 0.782442
C37   C     C_R   0.358700 0.141259 0.750053 0.782438
C38   C     C_R   0.858748 0.358693 0.249943 0.783414
C39   C     C_R   0.641307 0.858747 0.750057 0.782461
C40   C     C_R   0.141253 0.641307 0.249944 0.783499
C41   C     C_3   0.162461 0.223327 0.757546 -0.249239
C42   C     C_3   0.223286 0.837581 0.242539 -0.249839
C43   C     C_3   0.837581 0.776716 0.757455 -0.249180
C44   C     C_3   0.776721 0.162413 0.242551 -0.249829
C45   C     C_3   0.837586 0.223281 0.242548 -0.249824
C46   C     C_3   0.776712 0.837580 0.757464 -0.249230
C47   C     C_3   0.162419 0.776716 0.242542 -0.249814
C48   C     C_3   0.223333 0.162465 0.757558 -0.249253
C49   C     C_3   0.662338 0.723203 0.257297 -0.249181
C50   C     C_3   0.723251 0.337615 0.742607 -0.249802
C51   C     C_3   0.337537 0.276671 0.257548 -0.249210
C52   C     C_3   0.276710 0.662425 0.742533 -0.249775
C53   C     C_3   0.337572 0.723295 0.742520 -0.249845
C54   C     C_3   0.276667 0.337536 0.257557 -0.249257
C55   C     C_3   0.662385 0.276747 0.742604 -0.249818
C56   C     C_3   0.723213 0.662343 0.257317 -0.249237
C57   C     C_3   0.236224 0.296190 0.718386 -0.413202
C58   C     C_3   0.296320 0.763645 0.281581 -0.410980
C59   C     C_3   0.763635 0.703670 0.718422 -0.413238
C60   C     C_3   0.703661 0.236373 0.281577 -0.411021
C61   C     C_3   0.763630 0.296335 0.281577 -0.410981
C62   C     C_3   0.703684 0.763649 0.718419 -0.413206
C63   C     C_3   0.236360 0.703675 0.281580 -0.411004
C64   C     C_3   0.296171 0.236206 0.718383 -0.413157
C65   C     C_3   0.736610 0.796576 0.218480 -0.413314
C66   C     C_3   0.796427 0.263539 0.781555 -0.411058
C67   C     C_3   0.263779 0.203814 0.218386 -0.413205
C68   C     C_3   0.203691 0.736344 0.781583 -0.411036
C69   C     C_3   0.263675 0.796290 0.781586 -0.410982
C70   C     C_3   0.203827 0.263792 0.218383 -0.413170
C71   C     C_3   0.736456 0.203579 0.781556 -0.411043
C72   C     C_3   0.796547 0.736581 0.218474 -0.413240
C73   C     C_3   0.258243 0.317676 0.775261 -0.344014
C74   C     C_3   0.317554 0.741879 0.224673 -0.342123
C75   C     C_3   0.741889 0.682456 0.775332 -0.343981
C76   C     C_3   0.682464 0.258103 0.224662 -0.342212
C77   C     C_3   0.741893 0.317540 0.224665 -0.342139
C78   C     C_3   0.682443 0.741877 0.775326 -0.344032
C79   C     C_3   0.258117 0.682451 0.224670 -0.342228
C80   C     C_3   0.317692 0.258260 0.775251 -0.343984
C81   C     C_3   0.757884 0.817320 0.275461 -0.344029
C82   C     C_3   0.817454 0.241979 0.724616 -0.342212
C83   C     C_3   0.241755 0.182323 0.275259 -0.343997
C84   C     C_3   0.182440 0.758128 0.724678 -0.342151
C85   C     C_3   0.241854 0.817578 0.724688 -0.342209
C86   C     C_3   0.182311 0.241744 0.275252 -0.344010
C87   C     C_3   0.758026 0.182540 0.724620 -0.342165
C88   C     C_3   0.817346 0.757911 0.275446 -0.344051
C89   C     C_3   0.197978 0.300024 0.750687 0.073191
C90   C     C_3   0.300013 0.802033 0.249309 0.069894
C91   C     C_3   0.802034 0.699987 0.750691 0.073184
C92   C     C_3   0.699989 0.197965 0.249308 0.069898
C93   C     C_3   0.802034 0.300011 0.249308 0.069882
C94   C     C_3   0.699987 0.802033 0.750691 0.073179
C95   C     C_3   0.197967 0.699988 0.249309 0.069873
C96   C     C_3   0.300025 0.197979 0.750686 0.073165
C97   C     C_3   0.697946 0.799992 0.250700 0.073269
C98   C     C_3   0.800003 0.302042 0.749305 0.069918
C99   C     C_3   0.302022 0.199976 0.250686 0.073174
C100  C     C_3   0.199987 0.697967 0.749309 0.069882
C101  C     C_3   0.302032 0.800014 0.749309 0.069877
C102  C     C_3   0.199975 0.302021 0.250686 0.073169
C103  C     C_3   0.697958 0.199996 0.749305 0.069924
C104  C     C_3   0.799993 0.697948 0.250700 0.073235
C105  C     C_R   0.066306 0.499077 0.885046 -0.198228
C106  C     C_R   0.500303 0.933689 0.114954 -0.198684
C107  C     C_R   0.933694 0.500919 0.885046 -0.198292
C108  C     C_R   0.499689 0.066309 0.114953 -0.198697
C109  C     C_R   0.933688 0.500294 0.114954 -0.198693
C110  C     C_R   0.500908 0.933694 0.885046 -0.198308
C111  C     C_R   0.066311 0.499700 0.114953 -0.198696
C112  C     C_R   0.499087 0.066306 0.885046 -0.198236
C113  C     C_R   0.566305 0.999118 0.385046 -0.198399
C114  C     C_R   0.000333 0.433689 0.614954 -0.198732
C115  C     C_R   0.433693 0.000883 0.385046 -0.198212
C116  C     C_R   0.999673 0.566310 0.614954 -0.198666
C117  C     C_R   0.433689 0.000351 0.614954 -0.198674
C118  C     C_R   0.000892 0.433694 0.385046 -0.198226
C119  C     C_R   0.566309 0.999649 0.614953 -0.198730
C120  C     C_R   0.999112 0.566305 0.385046 -0.198413
C121  C     C_R   0.067388 0.497981 0.917687 -0.034074
C122  C     C_R   0.501396 0.932598 0.082313 -0.032911
C123  C     C_R   0.932612 0.502013 0.917687 -0.034059
C124  C     C_R   0.498592 0.067399 0.082313 -0.032902
C125  C     C_R   0.932597 0.501386 0.082313 -0.032915
C126  C     C_R   0.502003 0.932612 0.917687 -0.034047
C127  C     C_R   0.067401 0.498603 0.082313 -0.032903
C128  C     C_R   0.497991 0.067388 0.917687 -0.034080
C129  C     C_R   0.567387 0.998023 0.417688 -0.033995
C130  C     C_R   0.001430 0.432598 0.582313 -0.032903
C131  C     C_R   0.432610 0.001977 0.417687 -0.034053
C132  C     C_R   0.998578 0.567400 0.582313 -0.032918
C133  C     C_R   0.432599 0.001446 0.582313 -0.032911
C134  C     C_R   0.001988 0.432611 0.417687 -0.034055
C135  C     C_R   0.567398 0.998553 0.582312 -0.032903
C136  C     C_R   0.998018 0.567387 0.417687 -0.033994
C137  C     C_R   1.000000 0.499996 0.934261 -0.088900
C138  C     C_R   0.499995 0.999998 0.065735 -0.088010
C139  C     C_R   0.999999 0.499994 0.065735 -0.087997
C140  C     C_R   0.499997 0.000000 0.934261 -0.088903
C141  C     C_R   0.499998 0.000001 0.434261 -0.088886
C142  C     C_R   0.000005 0.499999 0.565735 -0.088007
C143  C     C_R   0.499998 0.000001 0.565735 -0.088019
C144  C     C_R   0.000004 0.499999 0.434261 -0.088894
H1    H     H_    0.126146 0.210822 0.737322 0.157594
H2    H     H_    0.210881 0.873827 0.262796 0.158592
H3    H     H_    0.873801 0.789123 0.737190 0.157645
H4    H     H_    0.789118 0.126189 0.262816 0.158603
H5    H     H_    0.873821 0.210886 0.262809 0.158601
H6    H     H_    0.789116 0.873838 0.737211 0.157626
H7    H     H_    0.126186 0.789123 0.262803 0.158598
H8    H     H_    0.210834 0.126101 0.737350 0.157569
H9    H     H_    0.626308 0.710954 0.236953 0.157768
H10   H     H_    0.710913 0.373776 0.762899 0.158651
H11   H     H_    0.373858 0.289175 0.237326 0.157597
H12   H     H_    0.289133 0.626197 0.762793 0.158600
H13   H     H_    0.373854 0.710878 0.762764 0.158568
H14   H     H_    0.289167 0.373893 0.237346 0.157582
H15   H     H_    0.626211 0.289084 0.762891 0.158639
H16   H     H_    0.710974 0.626230 0.236999 0.157733
H17   H     H_    0.195379 0.283969 0.699821 0.192470
H18   H     H_    0.284158 0.804406 0.300186 0.195590
H19   H     H_    0.804393 0.715805 0.699812 0.192396
H20   H     H_    0.715803 0.195622 0.300188 0.195548
H21   H     H_    0.804382 0.284185 0.300187 0.195573
H22   H     H_    0.715857 0.804412 0.699815 0.192399
H23   H     H_    0.195600 0.715824 0.300187 0.195552
H24   H     H_    0.283900 0.195354 0.699827 0.192497
H25   H     H_    0.696003 0.784615 0.199790 0.192241
H26   H     H_    0.784345 0.304235 0.800195 0.195502
H27   H     H_    0.304626 0.216041 0.199823 0.192476
H28   H     H_    0.215833 0.695573 0.800186 0.195574
H29   H     H_    0.304453 0.784093 0.800181 0.195580
H30   H     H_    0.216091 0.304643 0.199826 0.192491
H31   H     H_    0.695757 0.215678 0.800194 0.195515
H32   H     H_    0.784505 0.695963 0.199798 0.192273
H33   H     H_    0.284221 0.371465 0.769739 0.199067
H34   H     H_    0.371353 0.715853 0.230139 0.199132
H35   H     H_    0.715877 0.628645 0.769878 0.199143
H36   H     H_    0.628657 0.284126 0.230116 0.198849
H37   H     H_    0.715866 0.371342 0.230123 0.199087
H38   H     H_    0.628651 0.715846 0.769855 0.199048
H39   H     H_    0.284135 0.628646 0.230130 0.198834
H40   H     H_    0.371455 0.284264 0.769706 0.199142
H41   H     H_    0.783935 0.871184 0.270135 0.199079
H42   H     H_    0.871278 0.215940 0.730025 0.198838
H43   H     H_    0.215772 0.128538 0.269733 0.199052
H44   H     H_    0.128629 0.784131 0.730140 0.198918
H45   H     H_    0.215823 0.871363 0.730174 0.198806
H46   H     H_    0.128543 0.215744 0.269711 0.199073
H47   H     H_    0.784074 0.128724 0.730036 0.198911
H48   H     H_    0.871171 0.784003 0.270084 0.199090
H49   H     H_    0.234657 0.323096 0.798978 0.231304
H50   H     H_    0.322903 0.765575 0.200972 0.233627
H51   H     H_    0.765593 0.677142 0.799032 0.231213
H52   H     H_    0.677143 0.234393 0.200964 0.233645
H53   H     H_    0.765602 0.322875 0.200966 0.233617
H54   H     H_    0.677080 0.765570 0.799026 0.231174
H55   H     H_    0.234417 0.677121 0.200970 0.233656
H56   H     H_    0.323180 0.234688 0.798968 0.231253
H57   H     H_    0.733976 0.822413 0.299134 0.231069
H58   H     H_    0.822700 0.265764 0.700928 0.233578
H59   H     H_    0.265338 0.176891 0.298976 0.231300
H60   H     H_    0.177117 0.734440 0.700976 0.233678
H61   H     H_    0.265527 0.822971 0.700985 0.233628
H62   H     H_    0.176834 0.265318 0.298969 0.231256
H63   H     H_    0.734246 0.177272 0.700931 0.233566
H64   H     H_    0.822545 0.734025 0.299119 0.230981
H65   H     H_    0.261447 0.350180 0.712648 0.189607
H66   H     H_    0.350341 0.738415 0.287261 0.189686
H67   H     H_    0.738388 0.649652 0.712750 0.189648
H68   H     H_    0.649638 0.261614 0.287246 0.190012
H69   H     H_    0.738396 0.350359 0.287249 0.189776
H70   H     H_    0.649661 0.738429 0.712735 0.189732
H71   H     H_    0.261599 0.649656 0.287255 0.190035
H72   H     H_    0.350168 0.261393 0.712628 0.189499
H73   H     H_    0.761920 0.850637 0.212931 0.189923
H74   H     H_    0.850466 0.238278 0.787181 0.190093
H75   H     H_    0.238561 0.149823 0.212646 0.189622
H76   H     H_    0.149678 0.761593 0.787262 0.189911
H77   H     H_    0.238465 0.850310 0.787284 0.190007
H78   H     H_    0.149831 0.238600 0.212631 0.189579
H79   H     H_    0.761705 0.149538 0.787188 0.190008
H80   H     H_    0.850619 0.761832 0.212899 0.189857
H81   H     H_    0.117699 0.497378 0.872360 0.196587
H82   H     H_    0.501510 0.882280 0.127638 0.195757
H83   H     H_    0.882301 0.502619 0.872360 0.196573
H84   H     H_    0.498481 0.117718 0.127638 0.195748
H85   H     H_    0.882279 0.501494 0.127638 0.195754
H86   H     H_    0.502601 0.882301 0.872360 0.196562
H87   H     H_    0.117721 0.498501 0.127637 0.195742
H88   H     H_    0.497395 0.117699 0.872360 0.196595
H89   H     H_    0.617700 0.997447 0.372361 0.196516
H90   H     H_    0.001558 0.382280 0.627638 0.195734
H91   H     H_    0.382299 0.002553 0.372360 0.196563
H92   H     H_    0.998446 0.617719 0.627638 0.195751
H93   H     H_    0.382282 0.001592 0.627638 0.195743
H94   H     H_    0.002568 0.382301 0.372360 0.196571
H95   H     H_    0.617717 0.998405 0.627637 0.195739
H96   H     H_    0.997435 0.617699 0.372361 0.196517
N1    N     N_R   0.967013 0.444889 0.984497 -0.115601
N2    N     N_R   0.555105 0.032980 0.015492 -0.114683
N3    N     N_R   0.032987 0.555101 0.984497 -0.115616
N4    N     N_R   0.444888 0.967016 0.015491 -0.114681
N5    N     N_R   0.032980 0.555104 0.015491 -0.114690
N6    N     N_R   0.555102 0.032987 0.984497 -0.115610
N7    N     N_R   0.967020 0.444885 0.015491 -0.114680
N8    N     N_R   0.444892 0.967010 0.984497 -0.115613
N9    N     N_R   0.467010 0.944896 0.484498 -0.115620
N10   N     N_R   0.055114 0.532981 0.515492 -0.114675
N11   N     N_R   0.532983 0.055109 0.484498 -0.115609
N12   N     N_R   0.944897 0.467016 0.515492 -0.114682
N13   N     N_R   0.532977 0.055112 0.515492 -0.114674
N14   N     N_R   0.055110 0.532987 0.484497 -0.115606
N15   N     N_R   0.467016 0.944892 0.515492 -0.114673
N16   N     N_R   0.944900 0.467010 0.484497 -0.115623
O1    O     O_3   1.000000 0.500000 0.750000 -0.490229
O2    O     O_3   0.500000 0.000000 0.250000 -0.490230
O3    O     O_3   1.000000 0.500000 0.250000 -0.490220
O4    O     O_3   0.500000 0.000000 0.750000 -0.490214
O5    O     O_R   0.000020 0.438710 0.680680 -0.640367
O6    O     O_R   0.438710 0.999980 0.319320 -0.640205
O7    O     O_R   0.999980 0.561290 0.680680 -0.640316
O8    O     O_R   0.561290 0.000020 0.319320 -0.640308
O9    O     O_R   0.999980 0.438710 0.319320 -0.640208
O10   O     O_R   0.561290 0.999980 0.680680 -0.640352
O11   O     O_R   0.000020 0.561290 0.319320 -0.640320
O12   O     O_R   0.438710 0.000020 0.680680 -0.640332
O13   O     O_R   0.500020 0.938710 0.180680 -0.640317
O14   O     O_R   0.938710 0.499980 0.819320 -0.640248
O15   O     O_R   0.499980 0.061290 0.180680 -0.640342
O16   O     O_R   0.061290 0.500020 0.819320 -0.640216
O17   O     O_R   0.499980 0.938710 0.819320 -0.640260
O18   O     O_R   0.061290 0.499980 0.180680 -0.640340
O19   O     O_R   0.500020 0.061290 0.819320 -0.640212
O20   O     O_R   0.938710 0.500020 0.180680 -0.640324
O21   O     O_R   0.086240 0.647480 0.731820 -0.631173
O22   O     O_R   0.647480 0.913760 0.268180 -0.631977
O23   O     O_R   0.913760 0.352520 0.731820 -0.631265
O24   O     O_R   0.352520 0.086240 0.268180 -0.631883
O25   O     O_R   0.913760 0.647480 0.268180 -0.632006
O26   O     O_R   0.352520 0.913760 0.731820 -0.631250
O27   O     O_R   0.086240 0.352520 0.268180 -0.631891
O28   O     O_R   0.647480 0.086240 0.731820 -0.631219
O29   O     O_R   0.586240 0.147480 0.231820 -0.631236
O30   O     O_R   0.147480 0.413760 0.768180 -0.631884
O31   O     O_R   0.413760 0.852520 0.231820 -0.631086
O32   O     O_R   0.852520 0.586240 0.768180 -0.631878
O33   O     O_R   0.413760 0.147480 0.768180 -0.631860
O34   O     O_R   0.852520 0.413760 0.231820 -0.631109
O35   O     O_R   0.586240 0.852520 0.768180 -0.631947
O36   O     O_R   0.147480 0.586240 0.231820 -0.631240
O37   O     O_R   0.852520 0.413810 0.768170 -0.640884
O38   O     O_R   0.413810 0.147480 0.231830 -0.642005
O39   O     O_R   0.147480 0.586190 0.768170 -0.640945
O40   O     O_R   0.586190 0.852520 0.231830 -0.641871
O41   O     O_R   0.147480 0.413810 0.231830 -0.641996
O42   O     O_R   0.586190 0.147480 0.768170 -0.640905
O43   O     O_R   0.852520 0.586190 0.231830 -0.641858
O44   O     O_R   0.413810 0.852520 0.768170 -0.640927
O45   O     O_R   0.352520 0.913810 0.268170 -0.640953
O46   O     O_R   0.913810 0.647480 0.731830 -0.641964
O47   O     O_R   0.647480 0.086190 0.268170 -0.640919
O48   O     O_R   0.086190 0.352520 0.731830 -0.641996
O49   O     O_R   0.647480 0.913810 0.731830 -0.641945
O50   O     O_R   0.086190 0.647480 0.268170 -0.640914
O51   O     O_R   0.352520 0.086190 0.731830 -0.642004
O52   O     O_R   0.913810 0.352520 0.268170 -0.640942
Zn1   Zn    Zn3+2 0.087550 0.500010 0.775970 1.006318
Zn2   Zn    Zn3+2 0.500010 0.912450 0.224030 1.006088
Zn3   Zn    Zn3+2 0.912450 0.499990 0.775970 1.006319
Zn4   Zn    Zn3+2 0.499990 0.087550 0.224030 1.005926
Zn5   Zn    Zn3+2 0.912450 0.500010 0.224030 1.006069
Zn6   Zn    Zn3+2 0.499990 0.912450 0.775970 1.006248
Zn7   Zn    Zn3+2 0.087550 0.499990 0.224030 1.005931
Zn8   Zn    Zn3+2 0.500010 0.087550 0.775970 1.006347
Zn9   Zn    Zn3+2 0.587550 0.000010 0.275970 1.006186
Zn10  Zn    Zn3+2 0.000010 0.412450 0.724030 1.005888
Zn11  Zn    Zn3+2 0.412450 0.999990 0.275970 1.006303
Zn12  Zn    Zn3+2 0.999990 0.587550 0.724030 1.005987
Zn13  Zn    Zn3+2 0.412450 0.000010 0.724030 1.005911
Zn14  Zn    Zn3+2 0.999990 0.412450 0.275970 1.006299
Zn15  Zn    Zn3+2 0.587550 0.999990 0.724030 1.005937
Zn16  Zn    Zn3+2 0.000010 0.587550 0.275970 1.006163
C145  C     C_2   0.111287 0.223162 0.785553 0.925005
O53   O     O_2   0.133442 0.240127 0.811439 -0.584682
O54   O     O_R   0.037543 0.204403 0.781320 -0.807966
H97   H     H_    0.008270 0.206845 0.801375 0.342922
C146  C     C_2   0.222992 0.888850 0.214566 0.924909
O55   O     O_2   0.239814 0.866778 0.188650 -0.580745
O56   O     O_R   0.204279 0.962584 0.218862 -0.808197
H98   H     H_    0.206629 0.991927 0.198824 0.342529
C147  C     C_2   0.888887 0.777015 0.785415 0.925021
O57   O     O_2   0.866855 0.760175 0.811335 -0.584773
O58   O     O_R   0.962608 0.795751 0.781102 -0.807911
H99   H     H_    0.991979 0.793400 0.801133 0.342857
C148  C     C_2   0.777032 0.111113 0.214587 0.924924
O59   O     O_2   0.760209 0.133151 0.188666 -0.580772
O60   O     O_R   0.795764 0.037387 0.218898 -0.808129
H100  H     H_    0.793428 0.008023 0.198865 0.342504
C149  C     C_2   0.888869 0.222974 0.214580 0.924895
O61   O     O_2   0.866810 0.239778 0.188660 -0.580758
O62   O     O_R   0.962603 0.204268 0.218885 -0.808188
H101  H     H_    0.991955 0.206607 0.198849 0.342522
C150  C     C_2   0.777004 0.888832 0.785443 0.925062
O63   O     O_2   0.760193 0.866741 0.811357 -0.584742
O64   O     O_R   0.795703 0.962572 0.781154 -0.807930
H102  H     H_    0.793352 0.991901 0.801196 0.342875
C151  C     C_2   0.111132 0.777013 0.214575 0.924911
O65   O     O_2   0.133183 0.760181 0.188658 -0.580762
O66   O     O_R   0.037405 0.795741 0.218880 -0.808136
H103  H     H_    0.008049 0.793392 0.198846 0.342506
C152  C     C_2   0.223181 0.111361 0.785586 0.925055
O67   O     O_2   0.240126 0.133586 0.811463 -0.584655
O68   O     O_R   0.204455 0.037601 0.781383 -0.808025
H104  H     H_    0.206910 0.008375 0.801450 0.342950
C153  C     C_2   0.610767 0.722673 0.285173 0.925047
O69   O     O_2   0.632554 0.739295 0.311156 -0.584899
O70   O     O_R   0.537081 0.703977 0.280708 -0.807757
H105  H     H_    0.507523 0.706152 0.300692 0.342728
C154  C     C_2   0.722857 0.389001 0.714672 0.924899
O71   O     O_2   0.739581 0.367037 0.688729 -0.580837
O72   O     O_R   0.704165 0.462720 0.719037 -0.808112
H106  H     H_    0.706439 0.492146 0.699020 0.342464
C155  C     C_2   0.388701 0.276835 0.285555 0.925019
O73   O     O_2   0.366541 0.259858 0.311439 -0.584695
O74   O     O_R   0.462442 0.295606 0.281327 -0.807968
H107  H     H_    0.491710 0.293159 0.301383 0.342921
C156  C     C_2   0.276989 0.611132 0.714569 0.924861
O75   O     O_2   0.260128 0.633175 0.688654 -0.580769
O76   O     O_R   0.295731 0.537409 0.718875 -0.808176
H108  H     H_    0.293365 0.508048 0.698841 0.342512
C157  C     C_2   0.388792 0.723027 0.714531 0.924938
O77   O     O_2   0.366670 0.739859 0.688624 -0.580722
O78   O     O_R   0.462537 0.704326 0.718801 -0.808205
H109  H     H_    0.491844 0.706696 0.698754 0.342539
C158  C     C_2   0.276823 0.388650 0.285581 0.925044
O79   O     O_2   0.259881 0.366432 0.311460 -0.584663
O80   O     O_R   0.295548 0.462410 0.281375 -0.808002
H110  H     H_    0.293100 0.491640 0.301441 0.342939
C159  C     C_2   0.611016 0.277138 0.714663 0.924930
O81   O     O_2   0.632994 0.260402 0.688723 -0.580831
O82   O     O_R   0.537298 0.295840 0.719019 -0.808138
H111  H     H_    0.507883 0.293561 0.698998 0.342479
C160  C     C_2   0.722702 0.610888 0.285231 0.925110
O83   O     O_2   0.739266 0.632799 0.311201 -0.584842
O84   O     O_R   0.704081 0.537167 0.280815 -0.807832
H112  H     H_    0.706258 0.507694 0.300822 0.342773
C161  C     C_2   0.139828 0.492003 0.933545 0.934162
O85   O     O_2   0.194433 0.518782 0.921471 -0.596888
O86   O     O_R   0.146484 0.453881 0.961668 -0.768432
H113  H     H_    0.198750 0.453148 0.969752 0.362162
C162  C     C_2   0.506744 0.860107 0.066462 0.929427
O87   O     O_2   0.479295 0.805784 0.078492 -0.591408
O88   O     O_R   0.545036 0.853067 0.038397 -0.771066
H114  H     H_    0.545273 0.800803 0.030305 0.361550
C163  C     C_2   0.860171 0.507989 0.933545 0.934128
O89   O     O_2   0.805566 0.481215 0.921469 -0.596903
O90   O     O_R   0.853514 0.546102 0.961670 -0.768435
H115  H     H_    0.801248 0.546834 0.969754 0.362161
C164  C     C_2   0.493228 0.139887 0.066461 0.929419
O91   O     O_2   0.520660 0.194217 0.078493 -0.591434
O92   O     O_R   0.454940 0.146916 0.038395 -0.771066
H116  H     H_    0.454687 0.199181 0.030303 0.361551
C165  C     C_2   0.860105 0.506729 0.066461 0.929426
O93   O     O_2   0.805784 0.479275 0.078492 -0.591412
O94   O     O_R   0.853060 0.545019 0.038396 -0.771062
H117  H     H_    0.800796 0.545251 0.030305 0.361547
C166  C     C_2   0.507968 0.860170 0.933544 0.934126
O95   O     O_2   0.481176 0.805572 0.921471 -0.596909
O96   O     O_R   0.546091 0.853507 0.961667 -0.768437
H118  H     H_    0.546812 0.801240 0.969752 0.362159
C167  C     C_2   0.139891 0.493254 0.066461 0.929422
O97   O     O_2   0.194215 0.520705 0.078490 -0.591422
O98   O     O_R   0.146931 0.454957 0.038397 -0.771066
H119  H     H_    0.199194 0.454722 0.030304 0.361549
C168  C     C_2   0.492024 0.139830 0.933545 0.934170
O99   O     O_2   0.518807 0.194430 0.921469 -0.596885
O100  O     O_R   0.453910 0.146492 0.961670 -0.768433
H120  H     H_    0.453185 0.198759 0.969754 0.362158
C169  C     C_2   0.639830 0.992084 0.433545 0.934080
O101  O     O_2   0.694417 0.018904 0.421474 -0.596943
O102  O     O_R   0.646507 0.953950 0.461665 -0.768451
H121  H     H_    0.698773 0.953245 0.469749 0.362136
C170  C     C_2   0.006813 0.360110 0.566461 0.929406
O103  O     O_2   0.979404 0.305770 0.578496 -0.591487
O104  O     O_R   0.045092 0.353090 0.538392 -0.771060
H122  H     H_    0.045358 0.300825 0.530301 0.361555
C171  C     C_2   0.360166 0.007907 0.433544 0.934165
O105  O     O_2   0.305585 0.981068 0.421475 -0.596885
O106  O     O_R   0.353479 0.046048 0.461661 -0.768432
H123  H     H_    0.301213 0.046740 0.469747 0.362148
C172  C     C_2   0.993197 0.639888 0.566461 0.929414
O107  O     O_2   0.020608 0.694227 0.578495 -0.591435
O108  O     O_R   0.954916 0.646908 0.538393 -0.771068
H124  H     H_    0.954651 0.699173 0.530301 0.361550
C173  C     C_2   0.360113 0.006844 0.566461 0.929403
O109  O     O_2   0.305769 0.979445 0.578496 -0.591445
O110  O     O_R   0.353100 0.045123 0.538392 -0.771063
H125  H     H_    0.300835 0.045398 0.530301 0.361558
C174  C     C_2   0.007928 0.360169 0.433543 0.934164
O111  O     O_2   0.981103 0.305583 0.421473 -0.596891
O112  O     O_R   0.046065 0.353490 0.461662 -0.768431
H126  H     H_    0.046768 0.301223 0.469747 0.362150
C175  C     C_2   0.639884 0.993146 0.566460 0.929400
O113  O     O_2   0.694234 0.020530 0.578496 -0.591489
O114  O     O_R   0.646888 0.954873 0.538389 -0.771062
H127  H     H_    0.699153 0.954587 0.530298 0.361552
C176  C     C_2   0.992072 0.639828 0.433545 0.934071
O115  O     O_2   0.018887 0.694418 0.421474 -0.596938
O116  O     O_R   0.953940 0.646502 0.461665 -0.768454
H128  H     H_    0.953232 0.698768 0.469750 0.362142

loop_
_geom_bond_atom_site_label_1
_geom_bond_atom_site_label_2
_ccdc_geom_bond_type
O104  H122  S    
C74   H50   S    
C153  O69   D    
C6    O14   A    
C170  O103  D    
O3    Zn16  S    
O36   Zn7   S    
C117  C133  A    
C148  O59   D    
C21   N7    A    
C173  O109  D    
C49   H9    S    
C39   O49   A    
C54   C158  S    
C163  O90   S    
O4    Zn13  S    
C85   H45   S    
C82   C87   S    
C72   H80   S    
C30   O26   A    
C35   O31   A    
O51   Zn13  S    
C110  H86   S    
C168  O100  S    
C1    O7    A    
C2    O8    A    
O44   Zn6   S    
C176  O116  S    
C77   H37   S    
C24   N2    A    
C75   H35   S    
C44   C92   S    
O2    Zn9   S    
C84   H60   S    
C60   C92   S    
C117  H93   S    
C167  O98   S    
C132  C142  A    
C114  C130  A    
O25   Zn16  S    
C69   H29   S    
C108  C124  A    
C128  C168  S    
C152  O68   S    
C28   O24   A    
O30   Zn1   S    
C57   H65   S    
C50   C98   S    
C39   O35   A    
C84   C100  S    
C126  C166  S    
O41   Zn7   S    
C114  H90   S    
O2    Zn2   S    
C33   C92   S    
C82   H58   S    
C108  H84   S    
C18   N16   A    
C147  O57   D    
C37   C96   S    
O46   Zn12  S    
C31   O27   A    
C39   C94   S    
C16   C118  A    
C25   C100  S    
C20   N10   A    
O68   H104  S    
C74   H34   S    
C59   C91   S    
C48   C152  S    
C60   H68   S    
C8    O20   A    
C125  C165  S    
C87   C103  S    
C36   C91   S    
C33   O29   A    
N9    N15   A    
O33   Zn8   S    
C74   C79   S    
C49   C153  S    
C159  O81   D    
C53   C157  S    
O3    Zn14  S    
C36   O32   A    
C40   C95   S    
C23   N3    A    
O84   H112  S    
C58   H18   S    
O49   Zn15  S    
C26   O22   A    
O52   Zn14  S    
C48   C96   S    
C68   H76   S    
N1    N7    A    
C55   C159  S    
O39   Zn1   S    
O4    Zn15  S    
C21   N5    A    
O78   H109  S    
C69   C101  S    
C162  O87   D    
C132  C172  S    
C67   H27   S    
O15   Zn4   S    
C74   C90   S    
C155  O73   D    
C29   O43   A    
C65   H73   S    
C30   O44   A    
C2    O6    A    
C78   C94   S    
O45   Zn11  S    
O5    Zn10  S    
C24   N4    A    
C69   H77   S    
C175  O113  D    
O7    Zn12  S    
C81   C88   S    
C49   C97   S    
O58   H99   S    
C83   C86   S    
C34   O48   A    
C64   H24   S    
O70   H105  S    
C78   H54   S    
C42   C90   S    
C166  O95   D    
C165  O93   D    
O50   Zn16  S    
C131  C171  S    
C64   H72   S    
C160  O84   S    
C5    O15   A    
C41   C89   S    
C151  O65   D    
C63   C95   S    
C111  H87   S    
C10   C108  A    
O66   H103  S    
C28   O38   A    
C45   C93   S    
C6    C9    S    
C12   C110  A    
C164  O91   D    
C85   H61   S    
C171  O105  D    
C18   N14   A    
C51   H11   S    
C16   C120  A    
C136  C144  A    
C20   N12   A    
C9    C105  A    
O90   H115  S    
C41   H1    S    
C121  C137  A    
C145  O54   S    
O16   Zn1   S    
O21   Zn12  S    
C107  H83   S    
O34   Zn5   S    
C105  H81   S    
C23   N1    A    
C31   O41   A    
C131  C141  A    
C75   C91   S    
O8    Zn9   S    
C63   H23   S    
O31   Zn2   S    
C25   O39   A    
C146  O56   S    
C26   O40   A    
C61   H69   S    
C27   O37   A    
C40   O50   A    
C88   C104  S    
C59   H67   S    
C149  O62   S    
C7    C12   S    
C86   H46   S    
O28   Zn15  S    
C64   C96   S    
O42   Zn8   S    
C22   N6    A    
C32   O42   A    
C52   C100  S    
C29   C104  S    
C78   H38   S    
O6    Zn11  S    
C68   C100  S    
O106  H123  S    
C46   C94   S    
C106  C122  A    
C57   H17   S    
C52   C156  S    
C70   H30   S    
C110  C126  A    
C28   C99   S    
C62   H22   S    
C37   O51   A    
C10   C106  A    
C38   O52   A    
C86   C102  S    
C12   C112  A    
C52   C53   S    
C159  O82   S    
O13   Zn2   S    
C71   C103  S    
C135  C175  S    
O26   Zn13  S    
O19   Zn8   S    
C9    C107  A    
C65   C72   S    
C123  C137  A    
C67   C70   S    
C66   C98   S    
C67   H75   S    
C128  C140  A    
C34   C89   S    
C51   C155  S    
C163  O89   D    
C134  C174  S    
C119  H95   S    
C34   O30   A    
C38   C93   S    
C55   H15   S    
C60   H20   S    
C15   C119  A    
C61   H21   S    
C80   H40   S    
C130  C142  A    
C158  O80   S    
C59   H19   S    
C26   C97   S    
C134  C144  A    
O116  H128  S    
C19   C141  S    
C44   C148  S    
O4    Zn6   S    
C1    C14   S    
C3    C16   S    
C156  O76   S    
O3    Zn7   S    
N10   N14   A    
C167  O97   D    
C73   H49   S    
C155  O74   S    
C82   C98   S    
C45   C149  S    
C107  C123  A    
C115  H91   S    
C152  O67   D    
O80   H110  S    
O11   Zn16  S    
C113  H89   S    
C154  O72   S    
C43   C46   S    
N2    N6    A    
C57   C89   S    
C82   H42   S    
C124  C138  A    
C88   H64   S    
C157  O78   S    
C33   O47   A    
C61   C93   S    
C174  O112  S    
C129  C141  A    
C4    O10   A    
O76   H108  S    
C35   O45   A    
C22   C140  S    
C42   C146  S    
C76   H52   S    
C109  H85   S    
O23   Zn10  S    
O100  H120  S    
C53   C101  S    
C68   C69   S    
C172  O108  S    
O72   H106  S    
C150  O64   S    
C124  C164  S    
O32   Zn3   S    
C67   C99   S    
C118  H94   S    
C173  O110  S    
O14   Zn3   S    
C136  C176  S    
C153  O70   S    
C83   C99   S    
C170  O104  S    
C123  C163  S    
C148  O60   S    
C23   C137  S    
C147  O58   S    
C79   H55   S    
C62   H70   S    
C11   C111  A    
O114  H127  S    
C31   C102  S    
C3    O11   A    
C84   C85   S    
C56   C104  S    
C83   H59   S    
O64   H102  S    
C19   N9    A    
C81   H57   S    
C72   C104  S    
C121  C161  S    
O10   Zn15  S    
C119  C135  A    
N4    N8    A    
C65   H25   S    
C60   C61   S    
C120  C136  A    
C166  O96   S    
O110  H125  S    
C79   C95   S    
O48   Zn10  S    
C66   C71   S    
C126  C140  A    
O4    Zn8   S    
C32   C103  S    
C58   C90   S    
C122  C138  A    
C120  H96   S    
O3    Zn5   S    
C83   H43   S    
C47   H7    S    
O24   Zn11  S    
O40   Zn2   S    
C62   C94   S    
C84   H44   S    
C130  C170  S    
C42   H2    S    
C44   C45   S    
C87   H47   S    
C160  O83   D    
C154  O71   D    
C88   H48   S    
C127  C167  S    
C54   C102  S    
C21   C139  S    
C76   H36   S    
C50   C154  S    
O88   H114  S    
C70   C102  S    
C36   O46   A    
C4    O12   A    
C5    O13   A    
C56   C160  S    
C112  H88   S    
C17   C143  S    
C18   C144  S    
C73   C89   S    
O54   H97   S    
C66   H74   S    
O27   Zn14  S    
C14   C114  A    
C22   N8    A    
O22   Zn9   S    
C68   H28   S    
C30   C101  S    
C77   C93   S    
C70   H78   S    
C71   H31   S    
C40   O36   A    
C72   H32   S    
C169  O101  D    
C145  O53   D    
C112  C128  A    
O37   Zn3   S    
C35   C90   S    
C15   C117  A    
C5    C10   S    
O38   Zn4   S    
C29   O25   A    
O96   H118  S    
C161  O86   S    
C63   H71   S    
C32   O28   A    
C77   H53   S    
C75   H51   S    
O62   H101  S    
C27   C98   S    
C116  C132  A    
C3    O9    A    
C11   C109  A    
C146  O55   D    
O92   H116  S    
O56   H98   S    
C19   N11   A    
O1    Zn10  S    
C86   H62   S    
C168  O99   D    
C47   C151  S    
O86   H113  S    
C115  C131  A    
C149  O61   D    
C125  C139  A    
C162  O88   S    
C17   N13   A    
C113  C129  A    
O35   Zn6   S    
C133  C173  S    
C7    O19   A    
C165  O94   S    
N11   N13   A    
C80   H56   S    
C55   C103  S    
C38   O34   A    
C41   C145  S    
C175  O114  S    
C2    C13   S    
O1    Zn1   S    
O9    Zn14  S    
C41   C48   S    
O60   H100  S    
C122  C162  S    
C79   H39   S    
N3    N5    A    
O94   H117  S    
C106  H82   S    
C80   C96   S    
O17   Zn6   S    
N12   N16   A    
C73   H33   S    
C169  O102  S    
C116  H92   S    
C127  C139  A    
C81   H41   S    
C164  O92   S    
C58   H66   S    
C37   O33   A    
C51   C99   S    
C133  C143  A    
C71   H79   S    
C171  O106  S    
C6    O16   A    
C20   C142  S    
C76   C77   S    
C25   O21   A    
O102  H121  S    
C27   O23   A    
C24   C138  S    
C43   C91   S    
C54   H14   S    
O74   H107  S    
O98   H119  S    
C105  C121  A    
C46   C150  S    
C13   C115  A    
C87   H63   S    
C158  O79   D    
C76   C92   S    
C1    O5    A    
C109  C125  A    
C46   H6    S    
C176  O115  D    
C111  C127  A    
C43   C147  S    
O1    Zn12  S    
C85   C101  S    
O2    Zn11  S    
C57   C64   S    
C156  O75   D    
C58   C63   S    
C17   N15   A    
C59   C62   S    
C66   H26   S    
C7    O17   A    
C118  C134  A    
O47   Zn9   S    
O20   Zn5   S    
O29   Zn4   S    
C129  C169  S    
C52   H12   S    
C49   C56   S    
O12   Zn13  S    
C53   H13   S    
C50   C55   S    
C51   C54   S    
C4    C15   S    
C48   H8    S    
O1    Zn3   S    
C65   C97   S    
O112  H126  S    
C56   H16   S    
O2    Zn4   S    
C157  O77   D    
C174  O111  D    
C161  O85   D    
C81   C97   S    
C50   H10   S    
C8    C11   S    
C14   C116  A    
C135  C143  A    
C44   H4    S    
C73   C80   S    
C45   H5    S    
C42   C47   S    
C75   C78   S    
C8    O18   A    
C43   H3    S    
O43   Zn5   S    
O108  H124  S    
O18   Zn7   S    
C151  O66   S    
C172  O107  D    
C47   C95   S    
C150  O63   D    
C13   C113  A    
O82   H111  S    
