data_mof_unit_39068.cif
_audit_creation_date              2013-03-05T15:47:08-0500
_audit_creation_method            fapswitch 2.2
_symmetry_space_group_name_H-M    P1
_symmetry_Int_Tables_number       1
_space_group_crystal_system       triclinic
_cell_length_a                    10.503447
_cell_length_b                    10.873011
_cell_length_c                    13.573018
_cell_angle_alpha                 96.225486
_cell_angle_beta                  102.036058
_cell_angle_gamma                 91.680625
_cell_volume                      1504.92539733

loop_
_atom_site_label
_atom_site_type_symbol
_atom_site_description
_atom_site_fract_x
_atom_site_fract_y
_atom_site_fract_z
_atom_type_partial_charge
O1    O     O_R   0.935190 0.693030 0.507870 -0.530600
O2    O     O_R   0.064810 0.306970 0.492130 -0.601643
O3    O     O_R   0.142080 0.658430 0.482770 -0.599928
O4    O     O_R   0.857920 0.341570 0.517230 -0.600715
C1    C     C_R   0.048020 0.731841 0.495946 0.976928
C2    C     C_R   0.953858 0.269557 0.508018 0.994387
O5    O     O_R   0.969700 0.527180 0.651960 -0.663687
O6    O     O_R   0.030300 0.472820 0.348040 -0.604868
O7    O     O_R   0.176600 0.492580 0.626860 -0.567538
O8    O     O_R   0.823400 0.507420 0.373140 -0.601641
C3    C     C_R   0.094109 0.514324 0.686256 0.905295
C4    C     C_R   0.905927 0.484488 0.313947 0.884039
Zn1   Zn    Zn3+2 0.861850 0.523100 0.516760 1.028836
Zn2   Zn    Zn3+2 0.138150 0.476900 0.483240 1.029730
C5    C     C_R   0.149361 0.545230 0.794619 -0.075496
C6    C     C_R   0.855940 0.469144 0.204454 -0.099517
C7    C     C_R   0.194729 0.703289 0.939765 0.525352
C8    C     C_R   0.876974 0.394323 0.032892 0.525240
C9    C     C_R   0.117398 0.653482 0.845810 -0.326445
C10   C     C_R   0.931543 0.422100 0.137625 -0.349046
C11   C     C_R   0.257736 0.485341 0.837889 -0.168570
C12   C     C_R   0.731684 0.504306 0.166528 -0.155017
C13   C     C_R   0.355282 0.547860 0.914279 0.017463
C14   C     C_R   0.682989 0.498007 0.062554 0.010855
C15   C     C_R   0.319244 0.654020 0.973022 -0.052367
C16   C     C_R   0.745311 0.425703 0.995619 -0.032289
C17   C     C_R   0.485206 0.505732 0.935164 -0.016984
C18   C     C_R   0.567726 0.556448 0.026893 -0.032047
C19   C     C_R   0.536794 0.667168 0.080466 0.093058
C20   C     C_R   0.541556 0.423636 0.866561 0.075164
C21   C     C_R   0.410687 0.709948 0.059425 0.195868
C22   C     C_R   0.672674 0.388187 0.895882 0.164031
H1    H     H_    0.672618 0.540688 0.218453 0.204509
H2    H     H_    0.266999 0.392272 0.806849 0.174523
H3    H     H_    0.032165 0.404752 0.167906 0.172191
H4    H     H_    0.037729 0.704350 0.809705 0.136407
C23   C     C_2   0.067765 0.865105 0.502917 -0.447836
C24   C     C_2   0.937547 0.138991 0.510244 -0.443042
C25   C     C_2   0.997727 0.940834 0.554184 0.372475
C26   C     C_2   0.030923 0.074014 0.561750 0.343091
H5    H     H_    0.846421 0.093476 0.466660 0.142235
H6    H     H_    0.144290 0.902775 0.469979 0.139912
N1    N     N_2   0.322180 0.446120 0.460900 0.045403
N2    N     N_2   0.677820 0.553880 0.539100 0.053707
C27   C     C_2   0.427437 0.521560 0.498425 0.334189
C28   C     C_2   0.568832 0.495594 0.483852 0.272394
I1    I     I_    0.364683 0.848324 0.171237 -0.273307
I2    I     I_    0.754251 0.271137 0.788618 -0.403483
O9    O     O_3   0.161557 0.813294 0.987727 -0.599006
C29   C     C_3   0.030545 0.806543 0.999134 0.109433
H7    H     H_    0.001379 0.714339 0.019080 0.154906
H8    H     H_    0.964204 0.826174 0.928200 0.132156
C30   C     C_3   0.013531 0.905224 0.083175 -0.748966
H9    H     H_    0.057813 0.995617 0.072882 0.254014
H10   H     H_    0.908317 0.915573 0.081102 0.231137
H11   H     H_    0.061020 0.878621 0.158353 0.264929
O10   O     O_3   0.954079 0.352220 0.965519 -0.592820
C31   C     C_3   0.048409 0.270037 0.005569 0.115688
H12   H     H_    0.012926 0.210601 0.057302 0.130301
H13   H     H_    0.139045 0.324138 0.046502 0.160001
C32   C     C_3   0.081586 0.184624 0.919197 -0.793461
H14   H     H_    0.103998 0.239545 0.859999 0.269824
H15   H     H_    0.167491 0.131642 0.948349 0.226234
H16   H     H_    0.997988 0.117905 0.885181 0.258007
I3    I     I_    0.691279 0.793142 0.170575 -0.372598
I4    I     I_    0.456974 0.381259 0.706838 -0.398283
O11   O     O_3   0.146268 0.130329 0.624973 -0.596593
C33   C     C_3   0.207437 0.048565 0.693912 0.084557
H17   H     H_    0.239943 0.965410 0.652960 0.167213
H18   H     H_    0.140143 0.019675 0.741570 0.154307
C34   C     C_3   0.330000 0.107338 0.764841 -0.759669
H19   H     H_    0.309129 0.194559 0.806652 0.251405
H20   H     H_    0.367870 0.043299 0.821250 0.223108
H21   H     H_    0.406041 0.122475 0.721158 0.283515
O12   O     O_3   0.906262 0.893618 0.604580 -0.584284
C35   C     C_3   0.843239 0.987165 0.654734 0.114186
H22   H     H_    0.771775 0.031598 0.599065 0.186371
H23   H     H_    0.914023 0.057521 0.704077 0.158196
C36   C     C_3   0.767865 0.930606 0.722716 -0.801049
H24   H     H_    0.836503 0.883632 0.778153 0.226301
H25   H     H_    0.720766 0.002154 0.765005 0.243183
H26   H     H_    0.689841 0.866110 0.675519 0.314528
I5    I     I_    0.594867 0.348204 0.371919 -0.291311
I6    I     I_    0.400595 0.686697 0.595145 -0.286538
O13   O     O_3   0.663795 0.640337 0.614369 -0.544199
C37   C     C_3   0.747231 0.617355 0.705092 0.274566
H27   H     H_    0.838825 0.673446 0.713898 0.176042
H28   H     H_    0.764992 0.517231 0.706882 0.192873
C38   C     C_3   0.688294 0.658314 0.796526 -0.912749
H29   H     H_    0.748557 0.627679 0.865915 0.222336
H30   H     H_    0.682187 0.759221 0.810728 0.256732
H31   H     H_    0.587554 0.619912 0.784437 0.306658
O14   O     O_3   0.326607 0.364634 0.379862 -0.552452
C39   C     C_3   0.292068 0.244793 0.400530 0.262307
H32   H     H_    0.270455 0.241025 0.476912 0.188875
H33   H     H_    0.376468 0.186007 0.399707 0.157823
C40   C     C_3   0.180034 0.185624 0.317025 -0.809114
H34   H     H_    0.210715 0.175488 0.243152 0.248011
H35   H     H_    0.151718 0.092487 0.334462 0.212134
H36   H     H_    0.094194 0.243392 0.310243 0.260021

loop_
_geom_bond_atom_site_label_1
_geom_bond_atom_site_label_2
_geom_bond_distance
_ccdc_geom_bond_type
C15   C21   1.417379 A    
C24   C26   1.345951 D    
C16   C22   1.418561 A    
O14   C39   1.414995 S    
C1    C23   1.447740 S    
C8    C16   1.434621 A    
C35   C36   1.501841 S    
O7    Zn2   1.894126 S    
C40   H34   1.110965 S    
O13   C37   1.405808 S    
O5    C3    1.309538 A    
O1    C1    1.293918 A    
C18   C19   1.419577 A    
C14   C16   1.412528 A    
C9    H4    1.077595 S    
C37   H28   1.111896 S    
C31   H13   1.112060 S    
O4    Zn1   1.973728 S    
C23   H6    1.088102 S    
C32   H15   1.110675 S    
N1    O14   1.345137 S    
C10   H3    1.081134 S    
C3    C5    1.462326 S    
C4    C6    1.458711 S    
C33   H17   1.109628 S    
C26   O11   1.409978 S    
C29   H8    1.109757 S    
C2    C24   1.429283 S    
C25   O12   1.405595 S    
C38   H30   1.099292 S    
O6    C4    1.306565 A    
C31   C32   1.520366 S    
C21   I1    2.157222 S    
C17   C20   1.447311 A    
C22   I2    2.157758 S    
O2    C2    1.290785 A    
C40   H35   1.110704 S    
N2    C28   1.330701 D    
C30   H10   1.108931 S    
C29   C30   1.521571 S    
O11   C33   1.428950 S    
C35   H22   1.109791 S    
C24   H5    1.087917 S    
O4    C2    1.312147 A    
C7    O9    1.387793 S    
C25   C26   1.467047 S    
C36   H25   1.106146 S    
C37   H27   1.101639 S    
C11   H2    1.068367 S    
C39   C40   1.524622 S    
C31   H12   1.114898 S    
C27   C28   1.568265 S    
O8    Zn1   1.894125 S    
C28   I5    2.149908 S    
C6    C12   1.380661 A    
C32   H16   1.109665 S    
C5    C9    1.387064 A    
O12   C35   1.418952 S    
C34   H21   1.107919 S    
O7    C3    1.310933 A    
C8    O10   1.393374 S    
O5    Zn1   1.940393 S    
C6    C10   1.392340 A    
C29   H7    1.116983 S    
C39   H32   1.111233 S    
C38   H31   1.098946 S    
C39   H33   1.109213 S    
N1    C27   1.332620 D    
C20   I4    2.158139 S    
O3    Zn2   1.973728 S    
O8    C4    1.310992 A    
C19   I3    2.164154 S    
C33   H18   1.112843 S    
C13   C17   1.433846 A    
C11   C13   1.396466 A    
C12   C14   1.390628 A    
C27   I6    2.167873 S    
O1    Zn1   2.006342 S    
N2    O13   1.345997 S    
C40   H36   1.107722 S    
C34   H20   1.110903 S    
C30   H11   1.110802 S    
C12   H1    1.083692 S    
O6    Zn2   1.940393 S    
C14   C18   1.403988 A    
C35   H23   1.111022 S    
O3    C1    1.316869 A    
C37   C38   1.529193 S    
C36   H26   1.106199 S    
C30   H9    1.109912 S    
C7    C15   1.431256 A    
C34   H19   1.103110 S    
C19   C21   1.399841 A    
C20   C22   1.428086 A    
O10   C31   1.417157 S    
C33   C34   1.514544 S    
C7    C9    1.404181 A    
C8    C10   1.413302 A    
C13   C15   1.436402 A    
C32   H14   1.110093 S    
O2    Zn2   2.006343 S    
C36   H24   1.107029 S    
C5    C11   1.382857 A    
C23   C25   1.352075 D    
O9    C29   1.417155 S    
C17   C18   1.406574 A    
C38   H29   1.109246 S    
Zn1   N2    2.049540 S    
Zn2   N1    2.049540 S    
