data_mof_unit_14147.cif
_audit_creation_date              2012-10-26T19:50:00-0400
_audit_creation_method            fapswitch 2.2
_symmetry_space_group_name_H-M    P1
_symmetry_Int_Tables_number       1
_space_group_crystal_system       triclinic
_cell_length_a                    15.104477
_cell_length_b                    13.912622
_cell_length_c                    10.880688
_cell_angle_alpha                 89.381424
_cell_angle_beta                  91.668776
_cell_angle_gamma                 90.090957
_cell_volume                      2285.39429828

loop_
_atom_site_label
_atom_site_type_symbol
_atom_type_description
_atom_site_fract_x
_atom_site_fract_y
_atom_site_fract_z
_atom_type_partial_charge
C1    C     C_R   0.330420 0.500026 0.499071 0.508858
C2    C     C_R   0.953700 0.495051 0.504429 -0.031334
C3    C     C_R   0.529174 0.107127 0.606311 0.197852
C4    C     C_R   0.472795 0.107656 0.395969 0.203895
C5    C     C_R   0.537944 0.208514 0.597421 0.403700
C6    C     C_R   0.462722 0.208606 0.403303 0.400854
C7    C     C_R   0.501130 0.054274 0.501510 -0.034356
C8    C     C_R   0.424600 0.893803 0.465176 0.172095
C9    C     C_R   0.576127 0.892288 0.539601 0.171817
C10   C     C_R   0.428241 0.792063 0.452890 0.346785
C11   C     C_R   0.571295 0.790692 0.549535 0.362680
C12   C     C_R   0.670502 0.500226 0.497753 0.546870
C13   C     C_R   0.500785 0.945354 0.502023 -0.072717
C14   C     C_R   0.506920 0.500965 0.262297 0.551785
C15   C     C_R   0.491158 0.499713 0.737058 0.545253
C16   C     C_R   0.523246 0.682718 0.109048 -0.094209
C17   C     C_R   0.438900 0.671890 0.879740 -0.094217
C18   C     C_R   0.497242 0.766628 0.046825 -0.137626
C19   C     C_R   0.449896 0.760767 0.935904 -0.137675
C20   C     C_R   0.474645 0.587390 0.935328 -0.030638
C21   C     C_R   0.503400 0.591051 0.059297 -0.037514
C22   C     C_R   0.512381 0.503397 0.127086 -0.016172
C23   C     C_R   0.234513 0.500254 0.497613 -0.024278
C24   C     C_R   0.481958 0.499739 0.871548 -0.014701
C25   C     C_R   0.514154 0.415337 0.064353 0.200359
C26   C     C_R   0.492935 0.413028 0.937917 0.198394
C27   C     C_R   0.092226 0.473673 0.397189 -0.087578
C28   C     C_R   0.909623 0.582356 0.485459 -0.154218
C29   C     C_R   0.183994 0.476079 0.390974 0.204750
C30   C     C_R   0.816913 0.586045 0.479646 0.228349
C31   C     C_3   0.295981 0.945210 0.543640 -0.009693
C32   C     C_3   0.213127 0.004601 0.516744 -0.364474
C33   C     C_3   0.704997 0.951081 0.468282 -0.002750
C34   C     C_R   0.768134 0.500276 0.495524 -0.005494
C35   C     C_3   0.790596 0.002539 0.504265 -0.358365
C36   C     C_3   0.332314 0.775347 0.284247 0.014656
C37   C     C_3   0.294274 0.692073 0.210146 -0.353316
C38   C     C_3   0.647589 0.756074 0.729526 0.026124
C39   C     C_3   0.701888 0.675820 0.790580 -0.350067
C40   C     C_3   0.668052 0.235540 0.705820 0.034005
C41   C     C_3   0.714809 0.313205 0.780886 -0.359127
C42   C     C_3   0.332996 0.239827 0.295779 0.017811
C43   C     C_3   0.299977 0.262574 0.165269 -0.319404
C44   C     C_R   0.192788 0.524208 0.606158 -0.087534
C45   C     C_R   0.813340 0.412573 0.510103 -0.122120
C46   C     C_R   0.100875 0.522390 0.612253 0.243042
C47   C     C_R   0.905347 0.408658 0.515917 0.237841
C48   C     C_R   0.050373 0.496314 0.506159 -0.047296
Cu1   Cu    Cu3+1 0.500000 0.596430 0.500000 1.021903
Cu2   Cu    Cu3+1 0.500000 0.403570 0.500000 1.070634
H1    H     H_    0.561586 0.691497 0.193413 0.155288
H2    H     H_    0.457915 0.278287 0.938528 0.338625
H3    H     H_    0.333403 0.978978 0.621843 0.123656
H4    H     H_    0.275310 0.871229 0.570744 0.152761
H5    H     H_    0.174091 0.972815 0.439175 0.157244
H6    H     H_    0.171641 0.005811 0.599304 0.106806
H7    H     H_    0.231724 0.079506 0.492204 0.147622
H8    H     H_    0.669328 0.995389 0.396751 0.124003
H9    H     H_    0.722150 0.880117 0.428931 0.158797
H10   H     H_    0.828366 0.959467 0.574463 0.161332
H11   H     H_    0.831785 0.012366 0.422176 0.105289
H12   H     H_    0.401808 0.670201 0.793286 0.139023
H13   H     H_    0.775621 0.074169 0.542598 0.159985
H14   H     H_    0.389233 0.806051 0.234285 0.124741
H15   H     H_    0.279790 0.830799 0.289185 0.180979
H16   H     H_    0.233820 0.663999 0.253891 0.175932
H17   H     H_    0.276685 0.716818 0.115194 0.111898
H18   H     H_    0.343604 0.633389 0.205543 0.178283
H19   H     H_    0.581346 0.756416 0.771194 0.125436
H20   H     H_    0.681358 0.825402 0.749470 0.174327
H21   H     H_    0.769641 0.675198 0.753622 0.163217
H22   H     H_    0.706584 0.687133 0.891415 0.099007
H23   H     H_    0.511541 0.836118 0.086666 0.111259
H24   H     H_    0.670028 0.605190 0.772858 0.163224
H25   H     H_    0.285033 0.468747 0.283314 0.323704
H26   H     H_    0.817730 0.724205 0.447693 0.309765
H27   H     H_    0.999100 0.537545 0.717451 0.332995
H28   H     H_    0.009301 0.326393 0.542289 0.334520
H29   H     H_    0.517194 0.000393 0.722221 0.323848
H30   H     H_    0.484593 0.002237 0.281084 0.319578
H31   H     H_    0.699785 0.230693 0.615056 0.095899
H32   H     H_    0.677508 0.166151 0.755809 0.191961
H33   H     H_    0.687955 0.315006 0.874795 0.165222
H34   H     H_    0.425074 0.825394 0.890670 0.106826
H35   H     H_    0.786934 0.297986 0.787989 0.114261
H36   H     H_    0.704554 0.384649 0.736394 0.155289
H37   H     H_    0.298324 0.286782 0.360676 0.155514
H38   H     H_    0.314698 0.163887 0.316554 0.154892
H39   H     H_    0.226700 0.256162 0.159075 0.124196
H40   H     H_    0.319416 0.336712 0.138417 0.185980
H41   H     H_    0.329340 0.211344 0.100360 0.167036
H42   H     H_    0.052988 0.455201 0.315781 0.161772
H43   H     H_    0.947920 0.647655 0.473908 0.115487
H44   H     H_    0.232098 0.543225 0.687325 0.136614
H45   H     H_    0.777202 0.345939 0.517793 0.152280
H46   H     H_    0.568271 0.288227 0.069277 0.335461
N1    N     N_R   0.500000 0.258690 0.500000 -0.279074
N2    N     N_R   0.500000 0.741330 0.500000 -0.266822
O1    O     O_R   0.371460 0.581430 0.500010 -0.452336
O2    O     O_3   0.478953 0.326790 0.878686 -0.638099
O3    O     O_3   0.347143 0.943116 0.437276 -0.550313
O4    O     O_3   0.653533 0.939328 0.573516 -0.542030
O5    O     O_3   0.356118 0.742266 0.404088 -0.516187
O6    O     O_3   0.641976 0.740500 0.601495 -0.466237
O7    O     O_3   0.220510 0.456544 0.279057 -0.730208
O8    O     O_3   0.773596 0.671802 0.455513 -0.649411
O9    O     O_3   0.064138 0.545647 0.722919 -0.694517
O10   O     O_3   0.944280 0.319495 0.533336 -0.708130
O11   O     O_3   0.546867 0.063807 0.719253 -0.675967
O12   O     O_R   0.628540 0.581430 0.499990 -0.391141
O13   O     O_3   0.454209 0.065109 0.283869 -0.665088
O14   O     O_3   0.577135 0.258537 0.693532 -0.448315
O15   O     O_3   0.425125 0.257738 0.304160 -0.456275
O16   O     O_R   0.371470 0.418560 0.500010 -0.515889
O17   O     O_R   0.628530 0.418560 0.499990 -0.527030
O18   O     O_R   0.500000 0.581450 0.319650 -0.530801
O19   O     O_R   0.500000 0.581450 0.680350 -0.537306
O20   O     O_R   0.500010 0.418580 0.319650 -0.391854
O21   O     O_R   0.499990 0.418580 0.680350 -0.390236
O22   O     O_3   0.540724 0.332932 0.127227 -0.642008

loop_
_geom_bond_atom_site_label_1
_geom_bond_atom_site_label_2
_ccdc_geom_bond_type
C27   C48   A    
C38   H20   S    
C8    C13   A    
C27   C29   A    
C16   H1    S    
C1    O1    A    
C12   O12   A    
C40   O14   S    
C41   H36   S    
C43   H39   S    
C36   O5    S    
C31   O3    S    
C10   O5    S    
C24   C26   A    
Cu2   O17   S    
C3    C7    A    
C38   C39   S    
C41   H33   S    
C37   H18   S    
C17   C20   A    
H28   O10   S    
C18   C19   A    
C39   H24   S    
C10   N2    A    
C9    C13   A    
C38   O6    S    
C17   C19   A    
Cu1   N2    S    
Cu1   O19   S    
C20   C24   A    
C9    O4    S    
C14   O20   A    
C22   C25   A    
C36   C37   S    
C39   H22   S    
C11   O6    S    
C8    O3    S    
C32   H5    S    
C12   O17   A    
C38   H19   S    
C33   H9    S    
C21   C22   A    
C30   O8    S    
C29   O7    S    
C32   H7    S    
C4    C7    A    
C44   C46   A    
C45   C47   A    
C46   C48   A    
C43   H40   S    
H29   O11   S    
C33   O4    S    
C6    N1    A    
C40   H32   S    
H27   O9    S    
C4    C6    A    
C30   C34   A    
C36   H15   S    
C2    C48   S    
C25   C26   A    
H2    O2    S    
C43   H41   S    
C23   C44   A    
Cu2   O21   S    
C28   H43   S    
Cu2   O16   S    
C6    O15   S    
C17   H12   S    
Cu1   O1    S    
C42   O15   S    
C31   C32   S    
C37   H16   S    
C27   H42   S    
C35   H11   S    
C34   C45   A    
C31   H3    S    
C9    C11   A    
C8    C10   A    
C40   C41   S    
C4    O13   S    
C5    N1    A    
C1    C23   S    
C18   H23   S    
C11   N2    A    
C46   O9    S    
C42   H38   S    
C1    O16   A    
C12   C34   S    
C19   H34   S    
C45   H45   S    
C25   O22   S    
C23   C29   A    
C47   O10   S    
C15   C24   S    
Cu2   N1    S    
H26   O8    S    
Cu2   O20   S    
C40   H31   S    
H46   O22   S    
C3    C5    A    
C2    C28   A    
C16   C21   A    
H25   O7    S    
C5    O14   S    
C2    C47   A    
C41   H35   S    
C33   H8    S    
C14   C22   S    
C28   C30   A    
C3    O11   S    
C14   O18   A    
C37   H17   S    
H30   O13   S    
C33   C35   S    
C15   O21   A    
C31   H4    S    
C44   H44   S    
C15   O19   A    
C7    C13   S    
Cu1   O18   S    
C20   C21   A    
C16   C18   A    
Cu1   Cu2   S    
C42   C43   S    
C39   H21   S    
C35   H10   S    
C35   H13   S    
C42   H37   S    
C36   H14   S    
C32   H6    S    
C26   O2    S    
Cu1   O12   S    
