data_mof_unit_55515.cif
_audit_creation_date              2012-10-26T20:18:37-0400
_audit_creation_method            fapswitch 2.2
_symmetry_space_group_name_H-M    P1
_symmetry_Int_Tables_number       1
_space_group_crystal_system       triclinic
_cell_length_a                    10.726181
_cell_length_b                    11.041185
_cell_length_c                    9.852458
_cell_angle_alpha                 111.490667
_cell_angle_beta                  98.429285
_cell_angle_gamma                 91.473183
_cell_volume                      1069.97037119

loop_
_atom_site_label
_atom_site_type_symbol
_atom_type_description
_atom_site_fract_x
_atom_site_fract_y
_atom_site_fract_z
_atom_type_partial_charge
C1    C     C_R   0.490772 0.253903 0.440126 0.544862
C2    C     C_2   0.490648 0.487860 0.917467 -0.002043
C3    C     C_R   0.259900 0.498181 0.500493 0.535483
C4    C     C_R   0.507972 0.746192 0.560222 0.570574
C5    C     C_R   0.739910 0.495194 0.498727 0.566289
C6    C     C_3   0.093350 0.505310 0.654506 -0.174023
C7    C     C_3   0.949887 0.489649 0.650626 0.172278
C8    C     C_3   0.070728 0.615160 0.470732 -0.203435
C9    C     C_3   0.053081 0.368808 0.380381 -0.257252
C10   C     C_3   0.122198 0.496546 0.501587 -0.011017
C11   C     C_3   0.280162 0.293801 0.062528 0.076881
C12   C     C_3   0.878444 0.493709 0.500682 0.086458
C13   C     C_3   0.218137 0.172022 0.931511 -0.287523
C14   C     C_3   0.113112 0.102810 0.972618 -0.496322
C15   C     C_3   0.838912 0.372588 0.763390 0.021134
C16   C     C_3   0.885404 0.291795 0.854233 -0.300913
C17   C     C_3   0.787204 0.277626 0.946232 -0.450731
C18   C     C_3   0.832377 0.817296 0.552818 0.011555
C19   C     C_3   0.910969 0.904620 0.500738 -0.287339
C20   C     C_3   0.828918 0.996659 0.451079 -0.466285
C21   C     C_3   0.927847 0.618559 0.478660 0.116403
C22   C     C_3   0.908545 0.371916 0.372623 -0.254493
C23   C     C_2   0.486070 0.114190 0.406499 -0.154383
C24   C     C_2   0.499877 0.071175 0.517246 -0.152684
C25   C     C_2   0.510902 0.886458 0.596859 0.186444
C26   C     C_2   0.497399 0.932163 0.487557 -0.148946
C27   C     C_2   0.505038 0.516055 0.082384 0.080352
Cl1   Cl    Cl    0.532085 0.989857 0.786243 -0.673099
Cu1   Cu    Cu3+1 0.522160 0.521810 0.644910 0.935834
Cu2   Cu    Cu3+1 0.477840 0.478190 0.355090 0.954288
H1    H     H_    0.133600 0.601380 0.740717 0.108115
H2    H     H_    0.620640 0.627758 0.936456 0.202020
H3    H     H_    0.140184 0.428730 0.686967 0.156555
H4    H     H_    0.928350 0.575380 0.745053 0.141602
H5    H     H_    0.123909 0.707347 0.551880 0.155578
H6    H     H_    0.076732 0.356996 0.270296 0.111062
H7    H     H_    0.084348 0.282800 0.405418 0.134022
H8    H     H_    0.867249 0.280622 0.377924 0.158767
H9    H     H_    0.218568 0.375415 0.072489 0.111412
H10   H     H_    0.287855 0.271683 0.163889 0.191478
H11   H     H_    0.178760 0.200463 0.837718 0.150977
H12   H     H_    0.865674 0.375610 0.264793 0.107519
H13   H     H_    0.290128 0.101946 0.894314 0.240848
H14   H     H_    0.153999 0.060325 0.053754 0.155706
H15   H     H_    0.062548 0.022635 0.872219 0.173708
H16   H     H_    0.044486 0.172129 0.022224 0.136452
H17   H     H_    0.744380 0.328235 0.698652 0.194637
H18   H     H_    0.828529 0.472593 0.842453 0.126642
H19   H     H_    0.904054 0.193173 0.779662 0.182986
H20   H     H_    0.975132 0.340830 0.928958 0.151361
H21   H     H_    0.770956 0.375042 0.025835 0.142150
H22   H     H_    0.820668 0.215366 0.008255 0.163366
H23   H     H_    0.085942 0.608751 0.358966 0.090467
H24   H     H_    0.696213 0.231058 0.873277 0.212932
H25   H     H_    0.792431 0.880988 0.649763 0.185637
H26   H     H_    0.750078 0.763527 0.466189 0.126878
H27   H     H_    0.987230 0.963260 0.592715 0.170128
H28   H     H_    0.955672 0.843430 0.406639 0.152043
H29   H     H_    0.755807 0.939760 0.354402 0.147129
H30   H     H_    0.888959 0.061467 0.418668 0.162426
H31   H     H_    0.781490 0.058256 0.542226 0.169997
H32   H     H_    0.878774 0.615557 0.368954 0.092013
H33   H     H_    0.484855 0.865392 0.372561 0.118328
H34   H     H_    0.513810 0.139911 0.631073 0.210202
H35   H     H_    0.471684 0.046702 0.291794 0.122241
H36   H     H_    0.420861 0.410982 0.841751 0.188601
H37   H     H_    0.564128 0.602442 0.158118 0.077705
N1    N     N_2   0.444530 0.445420 0.137360 -0.055657
N2    N     N_2   0.555520 0.554510 0.862630 -0.384577
O1    O     O_R   0.511820 0.332340 0.577400 -0.522582
O2    O     O_3   0.921638 0.367036 0.661980 -0.604461
O3    O     O_3   0.908852 0.732517 0.599476 -0.593305
O4    O     O_R   0.474400 0.295500 0.332650 -0.474628
O5    O     O_R   0.336400 0.518400 0.622370 -0.503121
O6    O     O_R   0.298980 0.481560 0.377620 -0.531426
O7    O     O_R   0.525600 0.704500 0.667350 -0.430490
O8    O     O_R   0.488180 0.667660 0.422600 -0.552339
O9    O     O_R   0.701020 0.518440 0.622380 -0.506073
O10   O     O_R   0.663600 0.481600 0.377630 -0.521804
O11   O     O_3   0.400931 0.324867 0.038200 -0.481573

loop_
_geom_bond_atom_site_label_1
_geom_bond_atom_site_label_2
_ccdc_geom_bond_type
N1    O11   S    
C19   C20   S    
C15   H17   S    
C17   H21   S    
C13   H11   S    
C4    C25   S    
C14   H16   S    
Cu1   O7    S    
C19   H27   S    
C25   Cl1   S    
C24   C26   S    
C7    O2    S    
C9    C22   S    
C15   C16   S    
C22   H8    S    
C12   C22   S    
C18   C19   S    
C20   H31   S    
C3    O5    A    
C27   N1    D    
Cu2   O8    S    
Cu1   O9    S    
C16   C17   S    
C9    H6    S    
C23   C24   D    
C2    C27   S    
C20   H30   S    
C2    N2    D    
C3    O6    A    
C9    C10   S    
C18   H26   S    
C6    H1    S    
C24   H34   S    
C13   C14   S    
C15   H18   S    
C17   H22   S    
C14   H15   S    
Cu1   N2    S    
C19   H28   S    
C18   O3    S    
C7    C12   S    
C21   O3    S    
C16   H19   S    
C5    C12   S    
Cu2   O4    S    
Cu1   O5    S    
C25   C26   D    
C12   C21   S    
C8    H5    S    
C26   H33   S    
Cu1   Cu2   S    
C9    H7    S    
C8    C21   S    
C20   H29   S    
C11   H9    S    
C21   H32   S    
H2    N2    S    
C18   H25   S    
Cu2   O10   S    
C1    C23   S    
C7    H4    S    
C5    O10   A    
C13   H13   S    
C14   H14   S    
Cu1   O1    S    
C16   H20   S    
C2    H36   S    
C8    H23   S    
C6    C10   S    
C6    C7    S    
C15   O2    S    
C1    O1    A    
C6    H3    S    
C1    O4    A    
C23   H35   S    
C4    O8    A    
C3    C10   S    
Cu2   O6    S    
C11   C13   S    
C22   H12   S    
C11   H10   S    
C4    O7    A    
C27   H37   S    
C11   O11   S    
C8    C10   S    
C5    O9    A    
C17   H24   S    
Cu2   N1    S    
