data_mof_unit_39222.cif
_audit_creation_date              2012-12-11T17:23:12-0500
_audit_creation_method            fapswitch 2.2
_symmetry_space_group_name_H-M    P1
_symmetry_Int_Tables_number       1
_space_group_crystal_system       triclinic
_cell_length_a                    22.411549
_cell_length_b                    7.096458
_cell_length_c                    19.397631
_cell_angle_alpha                 90.001427
_cell_angle_beta                  99.538181
_cell_angle_gamma                 89.999549
_cell_volume                      3042.40039137

loop_
_atom_site_label
_atom_site_type_symbol
_atom_type_description
_atom_site_fract_x
_atom_site_fract_y
_atom_site_fract_z
_atom_type_partial_charge
O1    O     O_R   0.443980 0.494320 0.557430 -0.533746
O2    O     O_R   0.556020 0.994320 0.442570 -0.533748
O3    O     O_R   0.441210 0.822520 0.414610 -0.537305
O4    O     O_R   0.558790 0.322520 0.585390 -0.537307
C1    C     C_R   0.426679 0.655382 0.388794 0.691013
C2    C     C_R   0.573321 0.155385 0.611207 0.691010
O5    O     O_R   0.436920 0.823940 0.555180 -0.536651
O6    O     O_R   0.563080 0.323940 0.444820 -0.536649
O7    O     O_R   0.551700 0.995760 0.584140 -0.534799
O8    O     O_R   0.448300 0.495760 0.415860 -0.534802
C3    C     C_R   0.421614 0.655400 0.574887 0.719120
C4    C     C_R   0.578386 0.155396 0.425113 0.719122
O9    O     O_3   0.537660 0.661290 0.509340 -0.370406
O10   O     O_3   0.462340 0.161290 0.490660 -0.370406
V1    V     V_3+5 0.493010 0.935560 0.498270 1.425007
V2    V     V_3+5 0.506990 0.435560 0.501730 1.425007
H1    H     H_    0.707748 0.817564 0.293935 0.112278
H2    H     H_    0.292249 0.317570 0.706049 0.112278
C5    C     C_R   0.769013 0.931975 0.230100 -0.155488
C6    C     C_R   0.230985 0.431972 0.769891 -0.155488
H3    H     H_    0.783369 0.794086 0.215324 0.111749
H4    H     H_    0.216629 0.294081 0.784659 0.111749
C7    C     C_R   0.793338 0.095287 0.204641 0.135663
C8    C     C_R   0.206662 0.595281 0.795358 0.135663
C9    C     C_R   0.773900 0.272182 0.224769 -0.155957
C10   C     C_R   0.226101 0.772179 0.775240 -0.155958
H5    H     H_    0.792087 0.399995 0.205816 0.112459
H6    H     H_    0.207916 0.899989 0.794200 0.112459
C11   C     C_R   0.730810 0.285587 0.269639 -0.155679
C12   C     C_R   0.269191 0.785590 0.730370 -0.155679
H7    H     H_    0.716467 0.423478 0.284428 0.111609
H8    H     H_    0.283535 0.923483 0.715587 0.111609
C13   C     C_R   0.706501 0.122274 0.295118 0.135977
C14   C     C_R   0.293498 0.622281 0.704881 0.135977
C15   C     C_R   0.725923 0.945380 0.274969 -0.155823
C16   C     C_R   0.274075 0.445383 0.725022 -0.155824
C17   C     C_1   0.838311 0.081688 0.158444 -0.060026
C18   C     C_1   0.161689 0.581676 0.841556 -0.060025
C19   C     C_1   0.661621 0.135867 0.341438 -0.060561
C20   C     C_1   0.338379 0.635878 0.658562 -0.060560
C21   C     C_1   0.623917 0.145880 0.379818 -0.186752
C22   C     C_1   0.376083 0.645892 0.620182 -0.186752
C23   C     C_1   0.876119 0.071655 0.120202 -0.185879
C24   C     C_1   0.123881 0.571643 0.879798 -0.185879
C25   C     C_R   0.632859 0.172543 0.804212 -0.158786
C26   C     C_R   0.367138 0.672582 0.195790 -0.158787
H9    H     H_    0.545651 0.196164 0.739960 0.107001
H10   H     H_    0.454347 0.696184 0.260042 0.107000
H11   H     H_    0.715010 0.165795 0.919315 0.126196
H12   H     H_    0.284985 0.665902 0.080689 0.126196
H13   H     H_    0.614343 0.192784 0.851875 0.114219
H14   H     H_    0.385654 0.692851 0.148128 0.114218
C27   C     C_R   0.615710 0.148019 0.678077 -0.037273
C28   C     C_R   0.384289 0.648009 0.321923 -0.037271
C29   C     C_R   0.910258 0.045207 0.760420 -0.161674
C30   C     C_R   0.089744 0.545156 0.239578 -0.161673
C31   C     C_R   0.873692 0.045732 0.695128 -0.118632
C32   C     C_R   0.126312 0.545637 0.304870 -0.118632
C33   C     C_R   0.811343 0.070444 0.688965 -0.156814
C34   C     C_R   0.188659 0.570363 0.311034 -0.156816
C35   C     C_R   0.783574 0.095872 0.748700 0.077182
C36   C     C_R   0.216425 0.595859 0.251300 0.077182
C37   C     C_R   0.821638 0.096486 0.815855 0.068533
C38   C     C_R   0.178360 0.596512 0.184146 0.068534
C39   C     C_R   0.719425 0.120465 0.744019 0.074081
C40   C     C_R   0.280574 0.620467 0.255982 0.074080
C41   C     C_R   0.695271 0.146284 0.806660 0.137960
C42   C     C_R   0.304726 0.646322 0.193342 0.137962
C43   C     C_R   0.733396 0.146349 0.871515 -0.198980
C44   C     C_R   0.266600 0.646423 0.128488 -0.198981
C45   C     C_R   0.795447 0.121630 0.876157 -0.191007
C46   C     C_R   0.204549 0.621702 0.123846 -0.191012
C47   C     C_R   0.678135 0.120977 0.679641 -0.214759
C48   C     C_R   0.321865 0.620965 0.320360 -0.214761
C49   C     C_R   0.593576 0.174191 0.740541 -0.166598
C50   C     C_R   0.406423 0.674204 0.259461 -0.166596
C51   C     C_R   0.885249 0.070656 0.821142 -0.080734
C52   C     C_R   0.114751 0.570663 0.178858 -0.080737
H15   H     H_    0.958555 0.024493 0.763656 0.105672
H16   H     H_    0.041447 0.524421 0.236341 0.105673
H17   H     H_    0.786192 0.068789 0.636616 0.108482
H18   H     H_    0.213813 0.568661 0.363381 0.108483
H19   H     H_    0.822865 0.122639 0.927668 0.110163
H20   H     H_    0.177130 0.622741 0.072336 0.110169
O11   O     O_R   0.051730 0.724670 0.084120 -0.533760
O12   O     O_R   0.948270 0.224670 0.915880 -0.533755
O13   O     O_R   0.063080 0.393540 0.944820 -0.536078
O14   O     O_R   0.936920 0.893540 0.055180 -0.536077
C53   C     C_R   0.078230 0.562115 0.924925 0.715594
C54   C     C_R   0.921770 0.062120 0.075075 0.715594
O15   O     O_R   0.058800 0.395030 0.085390 -0.535853
O16   O     O_R   0.941200 0.895030 0.914610 -0.535856
O17   O     O_R   0.943980 0.223310 0.057440 -0.534044
O18   O     O_R   0.056020 0.723310 0.942560 -0.534043
C55   C     C_R   0.072977 0.563522 0.111236 0.680347
C56   C     C_R   0.927023 0.063519 0.888764 0.680347
O19   O     O_3   0.962360 0.556290 0.990650 -0.369296
O20   O     O_3   0.037640 0.056290 0.009350 -0.369297
V3    V     V_3+5 0.006980 0.281990 0.001730 1.429922
V4    V     V_3+5 0.993020 0.781990 0.998270 1.429919
H21   H     H_    0.893883 0.026133 0.648647 0.120030
H22   H     H_    0.106122 0.525983 0.351349 0.120031
H23   H     H_    0.692858 0.102431 0.629943 0.093109
H24   H     H_    0.307142 0.602410 0.370058 0.093109

loop_
_geom_bond_atom_site_label_1
_geom_bond_atom_site_label_2
_ccdc_geom_bond_type
C40   C42   A    
C17   C23   T    
C26   H14   S    
H10   C50   S    
O1    C3    A    
O2    C4    A    
C2    O7    A    
C26   C50   A    
C39   C47   A    
C19   C21   T    
O5    C3    A    
C13   C19   S    
C14   C20   S    
C5    H3    S    
C8    C10   A    
C29   C51   A    
C31   C33   A    
C25   H13   S    
C32   C34   A    
C40   C48   A    
C11   C13   A    
O16   C56   A    
C30   C52   A    
C3    C22   S    
C34   C36   A    
C53   O18   A    
C35   C37   A    
C36   C38   A    
C28   C48   A    
C34   H18   S    
C6    C8    A    
C39   C41   A    
C25   C41   A    
C8    C18   S    
C32   H22   S    
O17   V3    S    
C45   H19   S    
C20   C22   T    
O6    V2    S    
H11   C43   S    
C27   C49   A    
O19   V3    S    
C18   C24   T    
O13   V3    S    
C9    C11   A    
C33   C35   A    
C23   C54   S    
C43   C45   A    
C12   C14   A    
C1    C28   S    
O4    C2    A    
C36   C40   A    
C7    C17   S    
C41   C43   A    
O4    V2    S    
C5    C7    A    
C26   C42   A    
C4    C21   S    
O12   V3    S    
C29   H15   S    
O18   V4    S    
C52   C55   S    
O6    C4    A    
O1    V2    S    
C46   H20   S    
O2    V1    S    
O14   V4    S    
O12   C56   A    
C28   C50   A    
O14   C54   A    
C10   C12   A    
O20   V4    S    
C29   C31   A    
C2    C27   S    
O19   V4    S    
O3    V1    S    
O16   V4    S    
C54   O17   A    
C48   H24   S    
C37   C51   A    
C38   C52   A    
C27   C47   A    
C33   H17   S    
C6    H4    S    
O3    C1    A    
C44   C46   A    
C9    H5    S    
C31   H21   S    
C51   C56   S    
C10   H6    S    
C30   H16   S    
C25   C49   A    
O13   C53   A    
H12   C44   S    
H9    C49   S    
C1    O8    A    
C11   H7    S    
O11   V4    S    
C5    C15   A    
C12   H8    S    
O11   C55   A    
O5    V1    S    
C13   C15   A    
C30   C32   A    
C14   C16   A    
C38   C46   A    
O7    V1    S    
O15   C55   A    
C6    C16   A    
C35   C39   A    
C47   H23   S    
C7    C9    A    
C42   C44   A    
O20   V3    S    
O9    V2    S    
O10   V1    S    
O8    V2    S    
H1    C15   S    
O15   V3    S    
H2    C16   S    
C37   C45   A    
C24   C53   S    
