data_mof_unit_24671.cif
_audit_creation_date              2013-03-05T15:41:54-0500
_audit_creation_method            fapswitch 2.2
_symmetry_space_group_name_H-M    P1
_symmetry_Int_Tables_number       1
_space_group_crystal_system       triclinic
_cell_length_a                    23.535738
_cell_length_b                    8.722017
_cell_length_c                    7.48297
_cell_angle_alpha                 103.288451
_cell_angle_beta                  95.058967
_cell_angle_gamma                 93.501168
_cell_volume                      1483.89431548

loop_
_atom_site_label
_atom_site_type_symbol
_atom_site_description
_atom_site_fract_x
_atom_site_fract_y
_atom_site_fract_z
_atom_type_partial_charge
O1    O     O_R   0.504120 0.286130 0.619770 -0.532401
O2    O     O_R   0.495880 0.713870 0.380230 -0.528267
O3    O     O_R   0.493410 0.256770 0.308360 -0.610517
O4    O     O_R   0.506590 0.743230 0.691640 -0.617370
C1    C     C_R   0.497528 0.200180 0.453673 0.847092
C2    C     C_R   0.502387 0.799812 0.546361 0.845041
O5    O     O_R   0.423230 0.514630 0.655730 -0.563415
O6    O     O_R   0.576770 0.485370 0.344270 -0.563718
O7    O     O_R   0.412530 0.485280 0.344320 -0.580808
O8    O     O_R   0.587470 0.514720 0.655680 -0.594906
C3    C     C_R   0.391116 0.496155 0.499811 0.769756
C4    C     C_R   0.609217 0.506881 0.500122 0.785818
Cu1   Cu    Cu3+1 0.506340 0.517380 0.684380 0.995983
Cu2   Cu    Cu3+1 0.493660 0.482620 0.315620 1.001725
C5    C     C_R   0.885918 0.649162 0.511477 0.568462
C6    C     C_R   0.113255 0.376199 0.367586 0.543964
N1    N     N_R   0.852395 0.509981 0.472771 -0.491570
N2    N     N_R   0.147847 0.504594 0.465571 -0.511354
C7    C     C_R   0.875592 0.367896 0.433036 0.507192
C8    C     C_R   0.125942 0.635783 0.562794 0.549629
C9    C     C_R   0.934842 0.362085 0.415706 -0.038337
C10   C     C_R   0.066162 0.643891 0.558230 0.000597
C11   C     C_R   0.970395 0.505246 0.477666 -0.058262
C12   C     C_R   0.030275 0.504421 0.475675 -0.088680
C13   C     C_R   0.945900 0.649751 0.540548 -0.053053
C14   C     C_R   0.054369 0.364546 0.390050 -0.080219
C15   C     C_R   0.959660 0.219459 0.341831 0.044953
C16   C     C_R   0.041743 0.784846 0.637881 0.102271
C17   C     C_R   0.018941 0.220453 0.328122 -0.010902
C18   C     C_R   0.981738 0.788729 0.627728 -0.074509
O9    O     O_2   0.860850 0.785301 0.519972 -0.470921
O10   O     O_2   0.136162 0.262803 0.247549 -0.469089
O11   O     O_2   0.840951 0.234501 0.410430 -0.513416
O12   O     O_2   0.162310 0.757346 0.661575 -0.429049
C19   C     C_R   0.241461 0.593618 0.383097 0.023411
C20   C     C_R   0.753370 0.455877 0.319590 0.059431
C21   C     C_R   0.300893 0.590995 0.397932 -0.150664
C22   C     C_R   0.694462 0.455337 0.331346 -0.142279
H1    H     H_    0.326249 0.665279 0.331468 0.190043
H2    H     H_    0.665396 0.406462 0.207949 0.204432
C23   C     C_R   0.328517 0.493368 0.496020 -0.151957
C24   C     C_R   0.672339 0.517371 0.498469 -0.183972
C25   C     C_R   0.296327 0.391142 0.578332 -0.061715
C26   C     C_R   0.710435 0.585605 0.659151 -0.042495
C27   C     C_R   0.235983 0.396024 0.568954 -0.004555
C28   C     C_R   0.770222 0.577832 0.651538 0.006773
C29   C     C_R   0.209012 0.498876 0.473033 0.152466
C30   C     C_R   0.791441 0.513448 0.481161 0.153431
C31   C     C_2   0.489962 0.032605 0.431017 -0.049712
C32   C     C_2   0.509853 0.967400 0.569188 -0.039968
N3    N     N_2   0.484110 0.456420 0.038520 0.004668
N4    N     N_2   0.515890 0.543580 0.961480 0.006353
N5    N     N_3   0.925758 0.070924 0.276871 -0.555964
H3    H     H_    0.893662 0.080570 0.175203 0.315828
H4    H     H_    0.908351 0.038221 0.387657 0.295164
N6    N     N_3   0.078085 0.923502 0.732673 -0.454216
H5    H     H_    0.069635 0.016710 0.670961 0.242547
H6    H     H_    0.069286 0.954770 0.870143 0.218476
C33   C     C_2   0.042072 0.064644 0.260755 0.437137
H7    H     H_    0.018797 0.977694 0.146243 0.093708
O13   O     O_2   0.084887 0.027714 0.339627 -0.495718
C34   C     C_2   0.958307 0.935568 0.726187 0.411277
H8    H     H_    0.974507 0.049979 0.709386 0.049449
O14   O     O_2   0.922707 0.930203 0.834222 -0.493260
C35   C     C_2   0.213357 0.692702 0.269808 0.501889
H9    H     H_    0.167091 0.686366 0.244620 0.086385
O15   O     O_2   0.241590 0.782410 0.201802 -0.497024
C36   C     C_2   0.774902 0.398016 0.137167 0.518338
H10   H     H_    0.819804 0.418334 0.120129 0.047123
O16   O     O_2   0.742652 0.327166 0.002763 -0.526560
C37   C     C_2   0.326104 0.277033 0.665589 0.444059
H11   H     H_    0.364190 0.228438 0.611594 0.049696
O17   O     O_2   0.309740 0.239624 0.801214 -0.511202
C38   C     C_2   0.687725 0.669820 0.830695 0.490856
H12   H     H_    0.654395 0.749423 0.822588 0.039691
O18   O     O_2   0.704645 0.648064 0.981089 -0.529210
C39   C     C_2   0.199370 0.292251 0.652386 0.568563
H13   H     H_    0.164743 0.340352 0.728555 0.026349
O19   O     O_2   0.205097 0.150884 0.626745 -0.416911
C40   C     C_2   0.811976 0.637460 0.818341 0.541304
H14   H     H_    0.848492 0.571480 0.841098 0.031079
O20   O     O_2   0.807987 0.764231 0.925281 -0.457961
N7    N     N_3   0.457002 0.940741 0.265471 -0.556971
H15   H     H_    0.477713 0.955346 0.151762 0.226828
H16   H     H_    0.416903 0.985372 0.255352 0.226808
N8    N     N_3   0.542761 0.059230 0.734876 -0.553177
H17   H     H_    0.522058 0.044327 0.848485 0.221534
H18   H     H_    0.582879 0.014709 0.745041 0.219794
N9    N     N_3   0.441768 0.355069 0.923489 -0.409297
H19   H     H_    0.403357 0.384628 0.976785 0.246771
H20   H     H_    0.448178 0.241506 0.939990 0.212541
N10   N     N_3   0.557316 0.647442 0.078593 -0.400523
H21   H     H_    0.596851 0.611905 0.040051 0.236132
H22   H     H_    0.553274 0.758379 0.050540 0.203256

loop_
_geom_bond_atom_site_label_1
_geom_bond_atom_site_label_2
_geom_bond_distance
_ccdc_geom_bond_type
C22   H2    1.083680 S    
C15   C17   1.407626 A    
N1    C30   1.443331 S    
C19   C29   1.410052 A    
N2    C29   1.440069 S    
C16   N6    1.438609 S    
C39   H13   1.085748 S    
O5    C3    1.304484 A    
C38   O18   1.220436 D    
O1    C1    1.286196 A    
C7    C9    1.414758 A    
C12   C14   1.417640 A    
C22   C24   1.402144 A    
N8    H18   1.045848 S    
C5    C13   1.408804 A    
C19   C35   1.486860 S    
N6    H5    1.043954 S    
C27   C29   1.417070 A    
O4    Cu1   1.957727 S    
C34   O14   1.220585 D    
N7    H15   1.045578 S    
C36   H10   1.084315 S    
C35   O15   1.221422 D    
C4    C24   1.484181 S    
C11   C12   1.411161 A    
C3    C23   1.469687 S    
N9    H20   1.044159 S    
C8    O12   1.349253 S    
N5    H4    1.044415 S    
C9    C15   1.422612 A    
C33   H7    1.084989 S    
C10   C16   1.416630 A    
Cu1   Cu2   2.693418 S    
C23   C25   1.414425 A    
C1    C31   1.430279 S    
O2    C2    1.286384 A    
C24   C26   1.421112 A    
N10   H22   1.044249 S    
C26   C28   1.418408 A    
C39   O19   1.221220 D    
C9    C11   1.418477 A    
C6    C14   1.411077 A    
C28   C30   1.416902 A    
C33   O13   1.220513 D    
C38   H12   1.085619 S    
N3    N4    1.295290 D    
C17   C33   1.490345 S    
O4    C2    1.291818 A    
C7    O11   1.347716 S    
C37   O17   1.220890 D    
N8    H17   1.045546 S    
O6    Cu2   1.946953 S    
N5    H3    1.045141 S    
O7    Cu2   1.941167 S    
C34   H8    1.084730 S    
Cu1   N4    2.023852 S    
C25   C27   1.419517 A    
Cu2   N3    2.023852 S    
O6    C4    1.305114 A    
C20   C36   1.487102 S    
C6    N2    1.363977 A    
C2    C32   1.430109 S    
C26   C38   1.486104 S    
O7    C3    1.294347 A    
O3    Cu2   1.957727 S    
O8    C4    1.301680 A    
C40   O20   1.221032 D    
N7    H16   1.045835 S    
C8    C10   1.410857 A    
C35   H9    1.084421 S    
C18   C34   1.487069 S    
C10   C12   1.418386 A    
N4    N10   1.384095 S    
O1    Cu1   1.959342 S    
C13   C18   1.421600 A    
C5    N1    1.364232 A    
C25   C37   1.487020 S    
C19   C21   1.395368 A    
C40   H14   1.085559 S    
O3    C1    1.292043 A    
O8    Cu1   1.941167 S    
C15   N5    1.437759 S    
C5    O9    1.348912 S    
C6    O10   1.348258 S    
C31   N7    1.441048 S    
C16   C18   1.410486 A    
C37   H11   1.085340 S    
C21   H1    1.084680 S    
N3    N9    1.380874 S    
C28   C40   1.488961 S    
C20   C22   1.396732 A    
N10   H21   1.042358 S    
N1    C7    1.365338 A    
N6    H6    1.044487 S    
C20   C30   1.411266 A    
N2    C8    1.363775 A    
C11   C13   1.416433 A    
C21   C23   1.399038 A    
O2    Cu2   1.959342 S    
C32   N8    1.441158 S    
O5    Cu1   1.946953 S    
C14   C17   1.423249 A    
C36   O16   1.221426 D    
C31   C32   1.352437 D    
C27   C39   1.486915 S    
N9    H19   1.042859 S    
