data_mof_unit_5220.cif
_audit_creation_date              2012-12-10T19:00:43-0500
_audit_creation_method            fapswitch 2.2
_symmetry_space_group_name_H-M    P1
_symmetry_Int_Tables_number       1
_space_group_crystal_system       triclinic
_cell_length_a                    15.084003
_cell_length_b                    10.808262
_cell_length_c                    9.588559
_cell_angle_alpha                 90.310523
_cell_angle_beta                  90.678989
_cell_angle_gamma                 91.450803
_cell_volume                      1562.6041393

loop_
_atom_site_label
_atom_site_type_symbol
_atom_type_description
_atom_site_fract_x
_atom_site_fract_y
_atom_site_fract_z
_atom_type_partial_charge
C1    C     C_R   0.502805 0.262504 0.499846 0.793704
C2    C     C_R   0.908884 0.523738 0.624753 0.110450
C3    C     C_R   0.950907 0.447661 0.252022 -0.213432
C4    C     C_R   0.043398 0.449624 0.251173 -0.214169
C5    C     C_R   0.091661 0.474965 0.374340 0.111456
C6    C     C_R   0.046717 0.498913 0.499531 0.062732
C7    C     C_R   0.094618 0.523665 0.624254 0.107511
C8    C     C_R   0.049461 0.548115 0.747960 -0.215527
C9    C     C_R   0.957050 0.548588 0.748103 -0.213607
C10   C     C_R   0.184123 0.476554 0.374668 -0.250557
C11   C     C_R   0.231891 0.500202 0.498759 -0.068930
C12   C     C_R   0.328743 0.499986 0.499407 0.804991
C13   C     C_R   0.186929 0.523563 0.623107 -0.250281
C14   C     C_R   0.513604 0.064513 0.625328 0.137248
C15   C     C_R   0.514225 0.129810 0.500231 -0.091857
C16   C     C_R   0.530451 0.064894 0.376145 -0.219234
C17   C     C_R   0.529501 0.935677 0.375972 -0.218717
C18   C     C_R   0.513599 0.870994 0.500605 -0.099100
C19   C     C_R   0.513354 0.937347 0.625657 0.120969
C20   C     C_3   0.451846 0.929561 0.746367 -0.459170
C21   C     C_3   0.452611 0.070181 0.746253 -0.484590
C22   C     C_R   0.546567 0.589015 0.075088 0.219801
C23   C     C_R   0.502586 0.737618 0.500230 0.803906
C24   C     C_R   0.444600 0.421114 0.069871 0.222919
C25   C     C_R   0.445182 0.423295 0.921579 -0.083226
C26   C     C_R   0.546866 0.588493 0.928190 0.246305
C27   C     C_3   0.644325 0.612902 0.925082 -0.508349
C28   C     C_3   0.643861 0.615255 0.083129 -0.490989
C29   C     C_R   0.671365 0.499481 0.500525 0.810591
C30   C     C_R   0.816532 0.524487 0.623859 -0.248366
C31   C     C_R   0.768417 0.498020 0.500911 -0.071563
C32   C     C_R   0.813368 0.470642 0.377597 -0.244249
C33   C     C_R   0.905763 0.471964 0.375814 0.108952
C34   C     C_R   0.953767 0.498182 0.500026 0.061808
Cu1   Cu    Cu3+1 0.500000 0.499980 0.640670 0.935334
Cu2   Cu    Cu3+1 0.500000 0.500020 0.359330 0.931921
H1    H     H_    0.782485 0.547003 0.718600 0.145411
H2    H     H_    0.537002 0.887174 0.277827 0.162952
H3    H     H_    0.386201 0.886887 0.717855 0.199776
H4    H     H_    0.484183 0.890378 0.840510 0.196617
H5    H     H_    0.387358 0.109605 0.718588 0.194391
H6    H     H_    0.486557 0.111928 0.839144 0.204757
H7    H     H_    0.401924 0.361360 0.861471 0.155368
H8    H     H_    0.680124 0.532513 0.883691 0.210382
H9    H     H_    0.661780 0.703943 0.878047 0.193918
H10   H     H_    0.681029 0.538015 0.129042 0.212938
H11   H     H_    0.776684 0.447394 0.283046 0.144102
H12   H     H_    0.659846 0.708188 0.128349 0.192816
H13   H     H_    0.914704 0.427721 0.155866 0.141583
H14   H     H_    0.077161 0.431081 0.154409 0.140089
H15   H     H_    0.218718 0.458312 0.278643 0.143494
H16   H     H_    0.223689 0.542545 0.719058 0.153753
H17   H     H_    0.085599 0.567150 0.844390 0.140922
H18   H     H_    0.923257 0.568060 0.844607 0.143405
H19   H     H_    0.539907 0.113080 0.278883 0.169531
N1    N     N_R   0.500570 0.500930 0.147930 -0.207632
N2    N     N_R   0.500570 0.500890 0.852020 -0.205330
O1    O     O_R   0.500000 0.319640 0.618810 -0.578797
O2    O     O_R   0.500010 0.319680 0.381230 -0.590699
O3    O     O_R   0.370250 0.499950 0.618800 -0.589260
O4    O     O_R   0.370260 0.499990 0.381220 -0.607530
O5    O     O_R   0.499990 0.680320 0.618770 -0.576910
O6    O     O_R   0.500000 0.680360 0.381190 -0.581110
O7    O     O_R   0.629740 0.500010 0.618780 -0.583158
O8    O     O_R   0.629750 0.500050 0.381200 -0.586787
C35   C     C_3   0.377980 0.330265 0.132517 -0.363689
C36   C     C_3   0.393431 0.196616 0.087549 -0.895526
H20   H     H_    0.363399 0.178532 0.983050 0.243482
H21   H     H_    0.465342 0.178056 0.084165 0.251960
H22   H     H_    0.361377 0.131575 0.162019 0.254144
H23   H     H_    0.376604 0.331062 0.245685 0.264648
H24   H     H_    0.310324 0.355867 0.097909 0.161301

loop_
_geom_bond_atom_site_label_1
_geom_bond_atom_site_label_2
_ccdc_geom_bond_type
C19   C20   S    
Cu2   O2    S    
C25   H7    S    
C3    H13   S    
C7    C8    A    
C28   H10   S    
C26   C27   S    
Cu1   O1    S    
C14   C21   S    
C1    O2    A    
C30   C31   A    
C20   H4    S    
C3    C33   A    
C15   C16   A    
C18   C19   A    
C27   H8    S    
C23   O5    A    
C35   H24   S    
C31   C32   A    
C8    C9    A    
Cu1   O7    S    
C1    C15   S    
Cu2   O6    S    
C24   C35   S    
C27   H9    S    
C23   O6    A    
C35   C36   S    
C29   O7    A    
C22   C28   S    
C25   N2    A    
C10   H15   S    
C17   C18   A    
C36   H20   S    
C24   C25   A    
C20   H3    S    
Cu2   O8    S    
C16   C17   A    
C22   N1    A    
C18   C23   S    
C30   H1    S    
C4    H14   S    
Cu1   O3    S    
C36   H21   S    
Cu1   Cu2   S    
Cu2   N1    S    
C13   H16   S    
C35   H23   S    
C33   C34   A    
C29   O8    A    
C32   H11   S    
C21   H5    S    
Cu2   O4    S    
C28   H12   S    
C14   C19   A    
C4    C5    A    
C8    H17   S    
C11   C12   S    
C6    C7    A    
C24   N1    A    
C2    C30   A    
Cu1   N2    S    
C36   H22   S    
C32   C33   A    
C16   H19   S    
C5    C10   A    
C29   C31   S    
C1    O1    A    
C12   O4    A    
C11   C13   A    
C2    C34   A    
C5    C6    A    
Cu1   O5    S    
C17   H2    S    
C26   N2    A    
C10   C11   A    
C21   H6    S    
C12   O3    A    
C6    C34   A    
C7    C13   A    
C20   C21   S    
C22   C26   A    
C27   C28   S    
C14   C15   A    
C9    H18   S    
C2    C9    A    
C3    C4    A    
