data_mof_unit_22709.cif
_audit_creation_date              2012-12-10T17:28:30-0500
_audit_creation_method            fapswitch 2.2
_symmetry_space_group_name_H-M    P1
_symmetry_Int_Tables_number       1
_space_group_crystal_system       triclinic
_cell_length_a                    10.702314
_cell_length_b                    12.015861
_cell_length_c                    12.868513
_cell_angle_alpha                 94.077771
_cell_angle_beta                  91.081367
_cell_angle_gamma                 85.985859
_cell_volume                      1646.45949928

loop_
_atom_site_label
_atom_site_type_symbol
_atom_type_description
_atom_site_fract_x
_atom_site_fract_y
_atom_site_fract_z
_atom_type_partial_charge
C1    C     C_R   0.495859 0.522774 0.700234 1.036666
C2    C     C_R   0.555612 0.541212 0.132760 0.520487
C3    C     C_R   0.464006 0.457905 0.974453 -0.128862
C4    C     C_R   0.535979 0.542110 0.025550 -0.128829
C5    C     C_R   0.380314 0.953634 0.403330 0.625061
C6    C     C_R   0.619687 0.046366 0.596670 0.625064
C7    C     C_R   0.392266 0.837790 0.412663 0.556087
C8    C     C_R   0.607734 0.162210 0.587337 0.556092
C9    C     C_R   0.552079 0.858180 0.541440 0.763533
C10   C     C_R   0.447921 0.141819 0.458560 0.763528
C11   C     C_R   0.543689 0.975826 0.535128 -0.458369
C12   C     C_R   0.504144 0.477226 0.299766 1.036659
C13   C     C_R   0.456311 0.024174 0.464872 -0.458367
C14   C     C_R   0.739248 0.500243 0.503559 0.952206
C15   C     C_R   0.260752 0.499757 0.496440 0.952225
C16   C     C_R   0.882070 0.497772 0.696888 0.575248
C17   C     C_R   0.117932 0.502221 0.303107 0.575262
C18   C     C_R   0.953089 0.502453 0.788907 0.655451
C19   C     C_R   0.046911 0.497549 0.211088 0.655410
C20   C     C_R   0.081734 0.508547 0.785318 -0.238957
C21   C     C_R   0.918260 0.491470 0.214674 -0.238910
C22   C     C_R   0.139936 0.508672 0.689693 -0.227820
C23   C     C_R   0.501864 0.462130 0.188336 -0.284876
C24   C     C_R   0.860057 0.491347 0.310300 -0.227830
C25   C     C_R   0.070024 0.502954 0.594892 -0.022974
C26   C     C_R   0.929973 0.497047 0.405102 -0.022979
C27   C     C_R   0.939680 0.499680 0.598115 -0.128849
C28   C     C_R   0.060319 0.500313 0.401880 -0.128841
C29   C     C_R   0.128203 0.501317 0.497295 -0.032965
C30   C     C_R   0.871794 0.498680 0.502699 -0.032967
C31   C     C_1   0.657138 0.713907 0.014364 0.519263
C32   C     C_1   0.342778 0.286157 0.985651 0.519301
C33   C     C_R   0.498137 0.537872 0.811665 -0.284852
C34   C     C_R   0.584559 0.625434 0.967995 -0.140203
C35   C     C_R   0.415412 0.374593 0.032012 -0.140215
C36   C     C_R   0.564930 0.622430 0.861229 0.591271
C37   C     C_R   0.435055 0.377583 0.138773 0.591293
C38   C     C_R   0.444385 0.458794 0.867240 0.520479
F1    F     F_    0.294859 0.995701 0.334570 -0.524598
F2    F     F_    0.617195 0.698358 0.804842 -0.563144
F3    F     F_    0.365049 0.191028 0.392030 -0.517772
F4    F     F_    0.634952 0.808972 0.607969 -0.517772
F5    F     F_    0.681458 0.229465 0.646656 -0.553103
F6    F     F_    0.318542 0.770534 0.353344 -0.553113
F7    F     F_    0.705140 0.004299 0.665430 -0.524595
F8    F     F_    0.757760 0.489385 0.706295 -0.626359
F9    F     F_    0.242243 0.510600 0.293708 -0.626368
F10   F     F_    0.896501 0.501077 0.882233 -0.607989
F11   F     F_    0.103498 0.498923 0.117761 -0.608015
F12   F     F_    0.625232 0.617961 0.185273 -0.674032
F13   F     F_    0.374771 0.382039 0.814726 -0.674018
F14   F     F_    0.382781 0.301660 0.195161 -0.563140
H1    H     H_    0.863154 0.487258 0.143228 0.232322
H2    H     H_    0.136837 0.512772 0.856763 0.232303
H3    H     H_    0.240092 0.514091 0.691036 0.169611
H4    H     H_    0.759899 0.485946 0.308958 0.169637
N1    N     N_R   0.523130 0.207800 0.519340 -0.261620
N2    N     N_R   0.476870 0.792200 0.480660 -0.261618
N3    N     N_1   0.715257 0.784754 0.051004 -0.088690
N4    N     N_1   0.284608 0.215341 0.949017 -0.088676
O1    O     O_R   0.506170 0.421700 0.658830 -0.516565
O2    O     O_R   0.493830 0.578300 0.341170 -0.516576
O3    O     O_R   0.491330 0.609310 0.646410 -0.575287
O4    O     O_R   0.508670 0.390690 0.353590 -0.575277
O5    O     O_R   0.690650 0.406190 0.506220 -0.584166
O6    O     O_R   0.309350 0.593810 0.493780 -0.584168
O7    O     O_R   0.675800 0.593810 0.493800 -0.575977
O8    O     O_R   0.324200 0.406190 0.506200 -0.575968
Zn1   Zn    Zn3+2 0.509910 0.374730 0.508290 1.135910
Zn2   Zn    Zn3+2 0.490090 0.625270 0.491710 1.135901

loop_
_geom_bond_atom_site_label_1
_geom_bond_atom_site_label_2
_ccdc_geom_bond_type
C2    C4    A    
C14   O7    A    
O3    Zn2   S    
C15   C29   S    
C22   H3    S    
C6    F7    S    
C8    N1    A    
C24   H4    S    
C12   O2    A    
C19   F11   S    
C7    N2    A    
C5    C13   A    
C33   C38   A    
C6    C11   A    
C8    F5    S    
C3    C35   A    
O7    Zn2   S    
N1    Zn1   S    
C33   C36   A    
C16   C27   A    
C31   C34   S    
C1    C33   S    
C23   C37   A    
C7    F6    S    
C15   O6    A    
C27   C30   A    
C21   H1    S    
C9    C11   A    
C12   C23   S    
O2    Zn2   S    
C9    F4    S    
O6    Zn2   S    
C14   C30   S    
O5    Zn1   S    
C15   O8    A    
C1    O3    A    
C16   C18   A    
C28   C29   A    
C19   C21   A    
C14   O5    A    
C24   C26   A    
C26   C30   A    
C34   C36   A    
C5    F1    S    
C25   C29   A    
C12   O4    A    
C4    C34   A    
C25   C27   A    
C32   N4    T    
O1    Zn1   S    
C3    C4    A    
C32   C35   S    
C11   C13   A    
C10   N1    A    
C1    O1    A    
C35   C37   A    
C18   C20   A    
C20   H2    S    
C9    N2    A    
C21   C24   A    
C31   N3    T    
C2    C23   A    
C5    C7    A    
C37   F14   S    
C16   F8    S    
C36   F2    S    
C6    C8    A    
C38   F13   S    
C2    F12   S    
C17   C19   A    
O4    Zn1   S    
C17   C28   A    
C26   C28   A    
C10   C13   A    
N2    Zn2   S    
C17   F9    S    
C3    C38   A    
C20   C22   A    
O8    Zn1   S    
C10   F3    S    
C22   C25   A    
C18   F10   S    
