data_mof_unit_54778.cif
_audit_creation_date              2013-03-05T15:57:46-0500
_audit_creation_method            fapswitch 2.2
_symmetry_space_group_name_H-M    P1
_symmetry_Int_Tables_number       1
_space_group_crystal_system       triclinic
_cell_length_a                    15.58629
_cell_length_b                    14.84916
_cell_length_c                    15.092385
_cell_angle_alpha                 109.467002
_cell_angle_beta                  121.435402
_cell_angle_gamma                 59.595812
_cell_volume                      2559.05803683

loop_
_atom_site_label
_atom_site_type_symbol
_atom_site_description
_atom_site_fract_x
_atom_site_fract_y
_atom_site_fract_z
_atom_type_partial_charge
C1    C     C_R   0.801384 0.939424 0.773955 -0.119501
C2    C     C_R   0.243041 0.008004 0.209285 -0.073814
H1    H     H_    0.828020 0.883046 0.823151 0.101249
H2    H     H_    0.229771 0.042112 0.147925 0.111294
N1    N     N_R   0.705410 0.966550 0.689210 -0.052757
N2    N     N_R   0.294590 0.033450 0.310790 -0.042310
C3    C     C_R   0.198043 0.271906 0.436338 0.329520
C4    C     C_R   0.751537 0.710223 0.505583 0.350410
N3    N     N_R   0.294590 0.188320 0.465660 -0.098570
N4    N     N_R   0.705410 0.811680 0.534340 -0.101437
C5    C     C_R   0.594382 0.230734 0.557424 -0.078226
C6    C     C_R   0.405421 0.783568 0.510151 -0.118039
H3    H     H_    0.680432 0.215712 0.598457 0.132775
H4    H     H_    0.319572 0.809633 0.488671 0.140286
N5    N     N_R   0.556610 0.157790 0.497330 -0.044410
N6    N     N_R   0.443390 0.842210 0.502670 -0.053942
C7    C     C_R   0.408802 0.040618 0.732002 0.316528
C8    C     C_R   0.592052 0.018870 0.288615 0.285562
N7    N     N_R   0.443390 0.997080 0.657540 -0.083375
N8    N     N_R   0.556610 0.002920 0.342460 -0.091473
C9    C     C_R   0.410838 0.304722 0.486523 -0.107821
C10   C     C_R   0.586663 0.714487 0.592706 -0.008634
H5    H     H_    0.326832 0.360044 0.465293 0.159316
H6    H     H_    0.666667 0.680230 0.655281 0.151038
N9    N     N_R   0.443390 0.203250 0.451380 -0.038741
N10   N     N_R   0.556610 0.796750 0.548620 -0.067027
C11   C     C_R   0.593482 0.975606 0.805765 -0.172037
C12   C     C_R   0.409094 0.086626 0.209690 -0.134169
H7    H     H_    0.679071 0.950133 0.861710 0.127237
H8    H     H_    0.324201 0.132021 0.159652 0.170531
N11   N     N_R   0.556610 0.951620 0.703500 -0.064145
N12   N     N_R   0.443390 0.048380 0.296500 -0.066540
C13   C     C_R   0.197968 0.183124 0.528967 -0.141038
C14   C     C_R   0.747180 0.800530 0.410042 -0.122702
H9    H     H_    0.166412 0.153187 0.555913 0.213640
H10   H     H_    0.754485 0.821027 0.352788 0.148802
N13   N     N_R   0.294590 0.131500 0.522480 -0.081507
N14   N     N_R   0.705410 0.868500 0.477520 -0.050853
C15   C     C_R   0.803203 0.030535 0.684624 -0.083733
C16   C     C_R   0.241880 0.915545 0.299542 -0.122067
H11   H     H_    0.834074 0.057129 0.653173 0.173776
H12   H     H_    0.228119 0.862266 0.319804 0.106522
N15   N     N_R   0.705410 0.023370 0.632390 -0.051409
N16   N     N_R   0.294590 0.976630 0.367610 -0.049323
C17   C     C_R   0.865142 0.977951 0.773172 0.096467
C18   C     C_R   0.210982 0.932044 0.199622 0.113409
C19   C     C_R   0.135469 0.270504 0.475047 -0.054238
C20   C     C_R   0.777391 0.700051 0.426414 -0.061832
C21   C     C_R   0.504064 0.324325 0.556051 0.000248
C22   C     C_R   0.494202 0.701951 0.568215 0.028976
C23   C     C_R   0.502129 0.030848 0.825852 -0.107200
C24   C     C_R   0.501416 0.069967 0.204582 -0.119394
H13   H     H_    0.176883 0.934322 0.007331 0.157007
H14   H     H_    0.005699 0.838150 0.915342 0.132779
Ni1   Ni    Ni4+2 0.629830 0.882720 0.617850 0.236107
Ni2   Ni    Ni4+2 0.370170 0.117280 0.382150 0.281453
Ni3   Ni    Ni4+2 0.629830 0.013030 0.487540 0.285896
Ni4   Ni    Ni4+2 0.370170 0.986970 0.512460 0.250398
H15   H     H_    0.104824 0.847188 0.103901 0.136313
H16   H     H_    0.015611 0.004830 0.846898 0.189062
H17   H     H_    0.765595 0.546991 0.881507 0.126466
H18   H     H_    0.220933 0.535544 0.209709 0.101211
C25   C     C_R   0.610543 0.676894 0.868860 -0.134305
C26   C     C_R   0.376614 0.400438 0.244388 -0.085199
H19   H     H_    0.564473 0.628886 0.832100 0.131092
H20   H     H_    0.414271 0.429429 0.325041 0.126467
C27   C     C_R   0.556824 0.784837 0.889799 -0.136179
C28   C     C_R   0.437038 0.303131 0.205365 -0.116482
H21   H     H_    0.469616 0.819491 0.869973 0.151652
H22   H     H_    0.521649 0.258212 0.256697 0.152007
C29   C     C_R   0.616846 0.846896 0.941535 0.131025
C30   C     C_R   0.388373 0.264169 0.100932 0.071737
C31   C     C_R   0.730976 0.799952 0.971339 -0.171771
C32   C     C_R   0.279032 0.325609 0.035973 -0.102306
H23   H     H_    0.779061 0.846270 0.014745 0.119886
H24   H     H_    0.239566 0.297383 0.955457 0.191068
C33   C     C_R   0.783896 0.692384 0.947547 -0.087054
C34   C     C_R   0.219049 0.423061 0.075246 -0.087094
H25   H     H_    0.871850 0.656404 0.970466 0.118621
H26   H     H_    0.134604 0.469511 0.024994 0.124949
C35   C     C_R   0.723927 0.630705 0.897294 -0.084275
C36   C     C_R   0.267653 0.460274 0.179415 -0.058890
C37   C     C_R   0.562618 0.970050 0.074396 -0.160135
C38   C     C_R   0.453097 0.144833 0.965763 -0.150747
C39   C     C_R   0.505813 0.069097 0.112881 0.144272
C40   C     C_R   0.507888 0.044150 0.926248 0.117598
C41   C     C_R   0.450293 0.158581 0.060182 0.038132
C42   C     C_R   0.564140 0.956117 0.981189 0.004369
H27   H     H_    0.937608 0.538579 0.519763 0.162698
H28   H     H_    0.959969 0.398936 0.321217 0.174847
C43   C     C_2   0.026920 0.346315 0.467467 -0.145487
C44   C     C_2   0.832578 0.601207 0.376072 -0.154339
C45   C     C_2   0.959947 0.415620 0.396832 -0.072063
C46   C     C_2   0.908398 0.522656 0.435618 0.011340
H29   H     H_    0.809108 0.591859 0.293082 0.142405
H30   H     H_    0.015546 0.361418 0.537183 0.188005
C47   C     C_2   0.981081 0.956088 0.845058 -0.152272
C48   C     C_2   0.149045 0.883663 0.101740 -0.219006
H31   H     H_    0.990332 0.918578 0.488661 0.213093
H32   H     H_    0.981078 0.184391 0.933272 0.160966
C49   C     C_R   0.156816 0.854774 0.610184 0.455993
C50   C     C_R   0.908977 0.274698 0.805790 0.418867
C51   C     C_R   0.264106 0.775743 0.631407 -0.230407
C52   C     C_R   0.809260 0.341477 0.733413 -0.290952
C53   C     C_R   0.287125 0.700634 0.551826 0.042405
C54   C     C_R   0.707641 0.368215 0.731069 0.036313
C55   C     C_R   0.202118 0.703661 0.450472 -0.159021
C56   C     C_R   0.706680 0.326423 0.801333 -0.146745
H33   H     H_    0.218274 0.644612 0.388904 0.131627
H34   H     H_    0.629620 0.346344 0.801495 0.126856
C57   C     C_R   0.096053 0.783084 0.428317 -0.147423
C58   C     C_R   0.805146 0.260052 0.873036 -0.154259
C59   C     C_R   0.073358 0.858300 0.507506 -0.183726
C60   C     C_R   0.905747 0.234931 0.875971 -0.225967
C61   C     C_R   0.403028 0.515698 0.578056 -0.245984
C62   C     C_R   0.596658 0.536537 0.650209 -0.226634
H35   H     H_    0.327152 0.508902 0.551589 0.155260
H36   H     H_    0.673093 0.543757 0.681781 0.147378
C63   C     C_R   0.504170 0.427983 0.605143 0.055037
C64   C     C_R   0.494336 0.619035 0.601674 0.057496
C65   C     C_R   0.602253 0.443168 0.659035 0.067655
C66   C     C_R   0.396786 0.612120 0.577458 0.050242
C67   C     C_2   0.038756 0.887663 0.916239 -0.111325
C68   C     C_2   0.133654 0.897513 0.010485 -0.093935
H37   H     H_    0.602439 0.901665 0.115536 0.119518
H38   H     H_    0.411308 0.211546 0.921985 0.131362
N17   N     N_R   0.158081 0.330723 0.354192 0.206330
O1    O     O_R   0.184471 0.283092 0.276738 -0.432887
O2    O     O_R   0.119128 0.432626 0.368533 -0.452106
N18   N     N_R   0.778244 0.627567 0.556177 0.200681
O3    O     O_R   0.749734 0.550368 0.501684 -0.417152
O4    O     O_R   0.843670 0.622511 0.655416 -0.452168
N19   N     N_R   0.132873 0.930985 0.692215 0.259963
O5    O     O_R   0.036800 0.010007 0.670983 -0.382978
O6    O     O_R   0.207607 0.923311 0.788597 -0.380520
N20   N     N_R   0.012885 0.247830 0.808469 0.255203
O7    O     O_R   0.104878 0.185724 0.875161 -0.356185
O8    O     O_R   0.016570 0.285064 0.744293 -0.357661
H39   H     H_    0.329402 0.771136 0.709958 0.151114
H40   H     H_    0.810536 0.372268 0.678612 0.196591
H41   H     H_    0.030941 0.785751 0.349809 0.155313
H42   H     H_    0.803589 0.228529 0.927080 0.145856
N21   N     N_R   0.305063 0.054169 0.718026 0.228971
O9    O     O_R   0.254843 0.998464 0.642729 -0.434464
O10   O     O_R   0.264046 0.115591 0.783672 -0.325483
N22   N     N_R   0.699333 0.017814 0.331685 0.219940
O11   O     O_R   0.726533 0.041302 0.276902 -0.416477
O12   O     O_R   0.766090 0.004321 0.429655 -0.442155

loop_
_geom_bond_atom_site_label_1
_geom_bond_atom_site_label_2
_geom_bond_distance
_ccdc_geom_bond_type
H14   C67   1.084322 S    
C25   H19   1.081934 S    
C45   C46   1.446454 S    
C11   H7    1.078340 S    
C49   C59   1.406685 A    
N18   O4    1.301202 A    
C38   C41   1.391497 A    
N7    N11   1.371303 A    
N10   Ni1   1.834557 S    
C7    C23   1.384730 A    
C58   C60   1.395076 A    
C48   C68   1.338242 D    
C8    C24   1.366561 A    
C67   C68   1.455388 S    
C15   H11   1.080878 S    
C2    C18   1.388529 A    
C16   C18   1.391194 A    
C53   C55   1.403184 A    
C32   H24   1.082826 S    
C25   C35   1.398554 A    
C1    N1    1.331764 A    
C26   C28   1.398427 A    
C10   H6    1.074885 S    
C24   C39   1.416476 S    
C38   C40   1.401704 A    
C34   H26   1.082513 S    
N5    N9    1.371302 A    
N21   O9    1.299739 A    
C5    H3    1.074692 S    
C40   C42   1.403267 A    
C3    N3    1.334835 A    
C58   H42   1.082417 S    
H27   C46   1.087058 S    
C7    N7    1.329073 A    
C43   H30   1.088974 S    
C5    N5    1.332722 A    
C51   C53   1.402425 A    
C6    N6    1.333443 A    
N16   Ni4   1.861073 S    
C61   H35   1.081454 S    
N9    Ni2   1.834556 S    
C62   C64   1.408096 A    
C8    N8    1.323112 A    
N13   Ni4   1.851220 S    
C10   C22   1.384978 A    
C33   H25   1.082406 S    
C37   C42   1.363117 A    
C18   C48   1.462003 S    
C49   C51   1.407723 A    
C61   C66   1.387898 A    
N2    N16   1.389075 A    
N6    N10   1.371302 A    
N5    Ni3   1.850944 S    
C2    N2    1.331462 A    
C19   C43   1.448763 S    
C37   H37   1.087312 S    
C23   C40   1.421104 S    
C9    C21   1.389710 A    
C11   C23   1.376379 A    
C55   H33   1.083135 S    
N22   O12   1.300279 A    
C63   C65   1.406826 A    
N7    Ni4   1.862029 S    
C38   H38   1.084622 S    
C25   C27   1.396443 A    
C62   C65   1.391482 A    
C39   C41   1.403447 A    
C11   N11   1.324714 A    
C12   N12   1.335282 A    
H32   C60   1.082236 S    
C50   C60   1.405611 A    
N20   O8    1.301613 A    
H16   C47   1.086086 S    
C29   C31   1.404227 A    
N15   Ni3   1.861073 S    
C15   N15   1.345717 A    
C44   H29   1.086035 S    
C13   N13   1.341805 A    
C56   C58   1.394735 A    
C27   H21   1.082732 S    
C26   H20   1.082944 S    
C2    H2    1.078755 S    
C4    C20   1.390400 A    
N17   O2    1.301544 A    
C5    C21   1.386379 A    
C51   H39   1.082117 S    
C43   C45   1.329792 D    
N14   Ni3   1.851220 S    
C34   C36   1.397598 A    
C33   C35   1.397061 A    
C28   C30   1.408428 A    
N3    N13   1.389073 A    
C57   C59   1.397261 A    
N3    Ni2   1.869144 S    
N6    Ni4   1.850946 S    
C50   C52   1.408279 A    
N4    Ni1   1.869141 S    
C26   C36   1.396974 A    
C62   H36   1.077463 S    
N11   Ni1   1.869640 S    
C30   C32   1.406246 A    
C37   C39   1.390454 A    
C6    H4    1.073449 S    
C61   C63   1.397540 A    
C9    H5    1.068179 S    
C32   C34   1.398698 A    
N19   O5    1.301316 A    
C13   C19   1.375605 A    
C22   C64   1.477052 S    
C14   C20   1.386411 A    
C31   H23   1.083155 S    
N17   O1    1.300743 A    
C30   C41   1.487515 S    
C7    N21   1.429198 S    
C64   C66   1.417478 A    
H28   C45   1.084270 S    
N22   O11   1.300961 A    
N8    N12   1.371302 A    
N21   O10   1.300130 A    
C9    N9    1.335409 A    
C14   N14   1.349462 A    
C55   C57   1.395862 A    
N1    Ni1   1.834259 S    
C4    N4    1.329764 A    
N2    Ni2   1.834260 S    
N20   O7    1.301683 A    
C8    N22   1.437097 S    
H13   C68   1.085633 S    
H31   C59   1.081687 S    
C6    C22   1.377351 A    
C52   C54   1.407806 A    
C49   N19   1.439900 S    
C15   C17   1.383633 A    
N4    N14   1.389076 A    
C3    N17   1.432971 S    
C12   H8    1.081515 S    
N18   O3    1.301521 A    
C47   C67   1.338006 D    
C17   C47   1.464210 S    
C4    N18   1.427835 S    
C12   C24   1.371295 A    
C1    C17   1.381018 A    
C44   C46   1.326809 D    
C21   C63   1.469472 S    
C54   C56   1.405166 A    
C54   C65   1.487320 S    
C16   H12   1.080213 S    
C13   H9    1.074874 S    
C14   H10   1.079474 S    
C56   H34   1.083082 S    
C53   C66   1.474415 S    
C27   C29   1.401847 A    
H18   C36   1.082307 S    
C50   N20   1.439494 S    
C57   H41   1.082470 S    
C10   N10   1.338552 A    
C29   C42   1.476704 S    
C52   H40   1.082554 S    
C16   N16   1.343844 A    
C28   H22   1.082881 S    
C20   C44   1.460122 S    
N19   O6    1.301739 A    
H15   C48   1.087459 S    
C31   C33   1.397754 A    
N1    N15   1.389074 A    
H17   C35   1.081961 S    
C1    H1    1.079574 S    
N8    Ni3   1.862029 S    
N12   Ni2   1.869640 S    
C3    C19   1.384176 A    
