data_mof_unit_35703.cif
_audit_creation_date              2012-12-10T18:05:40-0500
_audit_creation_method            fapswitch 2.2
_symmetry_space_group_name_H-M    P1
_symmetry_Int_Tables_number       1
_space_group_crystal_system       triclinic
_cell_length_a                    10.797444
_cell_length_b                    10.804072
_cell_length_c                    9.518294
_cell_angle_alpha                 90.065627
_cell_angle_beta                  89.893507
_cell_angle_gamma                 89.948863
_cell_volume                      1110.36646354

loop_
_atom_site_label
_atom_site_type_symbol
_atom_type_description
_atom_site_fract_x
_atom_site_fract_y
_atom_site_fract_z
_atom_type_partial_charge
C1    C     C_R   0.499669 0.262106 0.499875 0.819417
C2    C     C_R   0.500331 0.737894 0.500124 0.819419
C3    C     C_R   0.871380 0.500230 0.500397 -0.149265
C4    C     C_R   0.128621 0.499768 0.499602 -0.149253
C5    C     C_R   0.935519 0.401817 0.564759 -0.068886
C6    C     C_R   0.064483 0.598189 0.435254 -0.068871
C7    C     C_R   0.528230 0.063853 0.376290 -0.217540
C8    C     C_R   0.471774 0.936146 0.623708 -0.217544
C9    C     C_R   0.529542 0.935896 0.376718 -0.162204
C10   C     C_R   0.470461 0.064103 0.623279 -0.162259
C11   C     C_R   0.501036 0.871715 0.500330 -0.005052
C12   C     C_R   0.498967 0.128284 0.499668 -0.005076
C13   C     C_R   0.422511 0.423781 0.074478 -0.038024
C14   C     C_R   0.577490 0.576219 0.925522 -0.038018
C15   C     C_R   0.422646 0.423739 0.925670 -0.019835
C16   C     C_R   0.577355 0.576260 0.074330 -0.019854
C17   C     C_R   0.262447 0.499676 0.499989 0.853313
C18   C     C_R   0.737553 0.500323 0.500011 0.853308
C19   C     C_R   0.210187 0.912864 0.380923 -0.105199
C20   C     C_R   0.789721 0.087210 0.619330 -0.105221
C21   C     C_R   0.153264 0.811730 0.445835 -0.141811
C22   C     C_R   0.846677 0.188288 0.554339 -0.141797
C23   C     C_R   0.131879 0.702568 0.369544 0.127621
C24   C     C_R   0.868121 0.297480 0.630555 0.127661
C25   C     C_R   0.169794 0.694983 0.228607 -0.060755
C26   C     C_R   0.830243 0.305148 0.771498 -0.060748
C27   C     C_R   0.228379 0.795686 0.164743 -0.128583
C28   C     C_R   0.771623 0.204505 0.835441 -0.128528
C29   C     C_R   0.247722 0.904843 0.240531 -0.110292
C30   C     C_R   0.752210 0.095319 0.759726 -0.110334
C31   C     C_R   0.935058 0.598666 0.436441 0.102392
C32   C     C_R   0.064943 0.401334 0.563560 0.102381
Cu1   Cu    Cu3+1 0.500000 0.500020 0.640660 0.957197
Cu2   Cu    Cu3+1 0.500000 0.499980 0.359340 0.957184
H1    H     H_    0.292300 0.983056 0.190695 0.130780
H2    H     H_    0.707599 0.017152 0.809621 0.130746
H3    H     H_    0.360916 0.362434 0.869726 0.153072
H4    H     H_    0.639086 0.637565 0.130274 0.153071
H5    H     H_    0.225649 0.997321 0.439528 0.170956
H6    H     H_    0.774210 0.002729 0.560784 0.170926
H7    H     H_    0.124082 0.818978 0.554467 0.145960
H8    H     H_    0.875831 0.180976 0.445702 0.145963
H9    H     H_    0.153470 0.611433 0.168434 0.128741
H10   H     H_    0.846614 0.388722 0.831613 0.128721
H11   H     H_    0.257894 0.789444 0.056220 0.127970
H12   H     H_    0.742127 0.210813 0.943967 0.127973
H13   H     H_    0.551113 0.112104 0.279997 0.152347
H14   H     H_    0.448887 0.887895 0.720000 0.152354
H15   H     H_    0.552610 0.887389 0.280487 0.164515
H16   H     H_    0.447389 0.112610 0.719509 0.164527
H17   H     H_    0.360498 0.362644 0.130595 0.129692
H18   H     H_    0.639503 0.637354 0.869405 0.129690
N1    N     N_R   0.500030 0.500030 0.852070 -0.161241
N2    N     N_R   0.499970 0.499970 0.147930 -0.161246
O1    O     O_R   0.499990 0.319660 0.618740 -0.576001
O2    O     O_R   0.500010 0.680340 0.381260 -0.576012
O3    O     O_R   0.499990 0.319630 0.381170 -0.595877
O4    O     O_R   0.500010 0.680370 0.618830 -0.595874
O5    O     O_R   0.319650 0.500020 0.618780 -0.564642
O6    O     O_R   0.680350 0.499980 0.381220 -0.564644
O7    O     O_R   0.319640 0.500000 0.381210 -0.586773
O8    O     O_R   0.680360 0.500000 0.618790 -0.586766
I1    I     I_    0.836765 0.752690 0.347956 -0.471907
I2    I     I_    0.163236 0.247311 0.652054 -0.471968

loop_
_geom_bond_atom_site_label_1
_geom_bond_atom_site_label_2
_ccdc_geom_bond_type
Cu1   O1    S    
Cu2   O3    S    
C3    C31   A    
C16   H4    S    
C8    H14   S    
Cu2   O2    S    
Cu1   O4    S    
C14   C16   A    
C1    O3    A    
C27   C29   A    
C7    H13   S    
C29   H1    S    
C26   C28   A    
C13   C15   A    
C30   H2    S    
C5    C32   A    
C25   H9    S    
C2    O4    A    
Cu1   Cu2   S    
C1    O1    A    
C26   H10   S    
Cu1   O5    S    
C10   H16   S    
C2    O2    A    
C23   C25   A    
Cu2   O6    S    
C9    C11   A    
Cu2   N2    S    
C28   H12   S    
C22   H8    S    
C1    C12   S    
C19   H5    S    
C17   O5    A    
C8    C11   A    
C21   H7    S    
C2    C11   S    
C15   N1    A    
C28   C30   A    
C19   C21   A    
C20   C22   A    
C6    C31   A    
C22   C24   A    
C21   C23   A    
Cu1   N1    S    
C7    C12   A    
C10   C12   A    
C16   N2    A    
C4    C6    A    
C25   C27   A    
C27   H11   S    
C6    C23   S    
C4    C32   A    
C19   C29   A    
C31   I1    S    
C14   N1    A    
C9    H15   S    
C18   O8    A    
C32   I2    S    
C3    C18   S    
C8    C10   A    
C13   N2    A    
C15   H3    S    
C18   O6    A    
C7    C9    A    
C5    C24   S    
C20   C30   A    
C17   O7    A    
C13   H17   S    
C20   H6    S    
Cu2   O7    S    
C14   H18   S    
C24   C26   A    
Cu1   O8    S    
C3    C5    A    
C4    C17   S    
