data_mof_unit_47401.cif
_audit_creation_date              2012-12-10T17:18:56-0500
_audit_creation_method            fapswitch 2.2
_symmetry_space_group_name_H-M    P1
_symmetry_Int_Tables_number       1
_space_group_crystal_system       triclinic
_cell_length_a                    10.201804
_cell_length_b                    10.840263
_cell_length_c                    13.462671
_cell_angle_alpha                 92.943762
_cell_angle_beta                  99.392747
_cell_angle_gamma                 96.384539
_cell_volume                      1456.09645518

loop_
_atom_site_label
_atom_site_type_symbol
_atom_type_description
_atom_site_fract_x
_atom_site_fract_y
_atom_site_fract_z
_atom_type_partial_charge
C1    C     C_R   0.054640 0.732608 0.496093 0.951474
C2    C     C_R   0.947329 0.267766 0.508434 0.953920
C3    C     C_R   0.579248 0.674643 0.011156 -0.236410
C4    C     C_R   0.406624 0.356255 0.007888 -0.216965
C5    C     C_R   0.471776 0.738600 0.978190 -0.157628
C6    C     C_R   0.512317 0.289221 0.036422 -0.166932
C7    C     C_2   0.089140 0.865525 0.500937 -0.379667
C8    C     C_2   0.920582 0.136568 0.520940 -0.358443
C9    C     C_2   0.999969 0.936784 0.527038 -0.122284
C10   C     C_2   0.021723 0.068292 0.521273 -0.135867
C11   C     C_2   0.430806 0.512482 0.507962 -0.141177
C12   C     C_2   0.569177 0.487839 0.491688 -0.128559
C13   C     C_R   0.093413 0.518115 0.686190 0.895696
C14   C     C_R   0.907443 0.485436 0.313697 0.902999
C15   C     C_R   0.146140 0.550806 0.793167 -0.175757
C16   C     C_R   0.855661 0.461030 0.205993 -0.173093
C17   C     C_R   0.236971 0.735205 0.903308 0.125922
C18   C     C_R   0.749792 0.284530 0.093509 0.132620
C19   C     C_R   0.131415 0.670941 0.833333 0.104757
C20   C     C_R   0.860840 0.341146 0.161954 0.104774
C21   C     C_R   0.241302 0.479930 0.844245 -0.002702
C22   C     C_R   0.765752 0.539767 0.159326 0.033105
C23   C     C_R   0.334840 0.541186 0.927201 0.043576
C24   C     C_R   0.658181 0.483843 0.083284 0.037634
C25   C     C_R   0.346384 0.672777 0.939541 0.031379
C26   C     C_R   0.641010 0.351714 0.067832 0.023638
C27   C     C_R   0.431989 0.480930 0.987281 0.081263
C28   C     C_R   0.557820 0.548280 0.029530 0.084341
H1    H     H_    0.490840 0.838287 0.974758 0.200126
H2    H     H_    0.491032 0.189790 0.040624 0.200519
H3    H     H_    0.677735 0.725940 0.023478 0.188781
H4    H     H_    0.305914 0.309811 0.000019 0.182085
H5    H     H_    0.121180 0.108196 0.511907 0.188201
H6    H     H_    0.905587 0.897847 0.547075 0.204130
H7    H     H_    0.821001 0.096010 0.529413 0.155765
H8    H     H_    0.183325 0.904899 0.481000 0.158519
H9    H     H_    0.578355 0.412252 0.438182 0.170909
H10   H     H_    0.421609 0.588333 0.561218 0.165523
H11   H     H_    0.664873 0.624815 0.589214 0.181411
H12   H     H_    0.335129 0.374689 0.411249 0.183061
N1    N     N_2   0.322180 0.446120 0.460900 -0.182729
N2    N     N_2   0.677820 0.553880 0.539100 -0.185307
O1    O     O_R   0.935190 0.693030 0.507870 -0.606567
O2    O     O_R   0.064810 0.306970 0.492130 -0.605188
O3    O     O_R   0.142080 0.658430 0.482770 -0.607803
O4    O     O_R   0.857920 0.341570 0.517230 -0.608144
O5    O     O_R   0.969700 0.527180 0.651960 -0.576288
O6    O     O_R   0.030300 0.472820 0.348040 -0.574251
O7    O     O_R   0.176600 0.492580 0.626860 -0.613493
O8    O     O_R   0.823400 0.507420 0.373140 -0.618283
Zn1   Zn    Zn3+2 0.861850 0.523100 0.516760 0.961631
Zn2   Zn    Zn3+2 0.138150 0.476900 0.483240 0.959442
C29   C     C_3   0.779470 0.675120 0.203552 -0.437141
C30   C     C_3   0.903749 0.750923 0.176835 -0.370526
C31   C     C_3   0.920195 0.884541 0.222304 -0.763865
H13   H     H_    0.829795 0.929692 0.195697 0.286417
H14   H     H_    0.935699 0.886302 0.305842 0.253521
H15   H     H_    0.008477 0.937689 0.199384 0.287574
H16   H     H_    0.994752 0.707858 0.206789 0.230036
H17   H     H_    0.897006 0.751422 0.093712 0.254130
H18   H     H_    0.688748 0.721384 0.184471 0.213180
H19   H     H_    0.789116 0.681130 0.286501 0.226949
C32   C     C_3   0.257049 0.351017 0.796368 -0.361982
C33   C     C_3   0.389506 0.351996 0.755254 -0.298476
C34   C     C_3   0.390389 0.235231 0.687231 -0.833629
H20   H     H_    0.373272 0.150593 0.728789 0.276448
H21   H     H_    0.311402 0.231714 0.619525 0.260889
H22   H     H_    0.488872 0.236964 0.661988 0.249808
H23   H     H_    0.405466 0.434808 0.711511 0.237266
H24   H     H_    0.475290 0.357215 0.818179 0.233287
H25   H     H_    0.246223 0.275219 0.846693 0.203482
H26   H     H_    0.172833 0.318474 0.734307 0.201277
I1    I     I_    0.024857 0.238655 0.209921 -0.339513
I2    I     I_    0.961739 0.763917 0.778571 -0.311800
I3    I     I_    0.235152 0.926654 0.952007 -0.358261
I4    I     I_    0.742854 0.098942 0.028274 -0.372736

loop_
_geom_bond_atom_site_label_1
_geom_bond_atom_site_label_2
_ccdc_geom_bond_type
C2    O2    A    
C11   H10   S    
C15   C19   A    
C11   C12   S    
C14   C16   S    
C23   C27   A    
C22   C29   S    
C33   H23   S    
C9    C10   S    
N1    Zn2   S    
C18   C20   A    
C18   C26   A    
C13   C15   S    
C15   C21   A    
N2    Zn1   S    
C16   C20   A    
C34   H22   S    
C17   C25   A    
C33   C34   S    
O7    Zn2   S    
C31   H13   S    
C31   H14   S    
O8    Zn1   S    
C3    C5    A    
C1    O3    A    
C32   H25   S    
C4    H4    S    
C29   C30   S    
C2    O4    A    
C3    H3    S    
O2    Zn2   S    
C6    C26   A    
C7    H8    S    
C29   H18   S    
O1    Zn1   S    
C13   O7    A    
C2    C8    S    
C22   C24   A    
C4    C6    A    
C3    C28   A    
C6    H2    S    
C24   C26   A    
C20   I1    S    
C11   N1    D    
C10   H5    S    
C5    H1    S    
C30   H16   S    
C23   C25   A    
C21   C23   A    
C9    H6    S    
C33   H24   S    
C5    C25   A    
C21   C32   S    
C34   H21   S    
C14   O8    A    
C12   N2    D    
C32   C33   S    
C7    C9    D    
O6    Zn2   S    
C4    C27   A    
C32   H26   S    
C8    C10   D    
C34   H20   S    
C29   H19   S    
C31   H15   S    
C18   I4    S    
C12   H9    S    
C17   I3    S    
C14   O6    A    
H11   N2    S    
H12   N1    S    
C1    C7    S    
C30   H17   S    
O3    Zn2   S    
C17   C19   A    
C30   C31   S    
C13   O5    A    
O4    Zn1   S    
C1    O1    A    
C19   I2    S    
O5    Zn1   S    
C24   C28   A    
C16   C22   A    
C27   C28   A    
C8    H7    S    
