data_mof_unit_10493.cif
_audit_creation_date              2012-12-10T17:09:51-0500
_audit_creation_method            fapswitch 2.2
_symmetry_space_group_name_H-M    P1
_symmetry_Int_Tables_number       1
_space_group_crystal_system       triclinic
_cell_length_a                    10.775494
_cell_length_b                    12.999807
_cell_length_c                    11.671535
_cell_angle_alpha                 99.656967
_cell_angle_beta                  93.629987
_cell_angle_gamma                 90.365156
_cell_volume                      1608.29978152

loop_
_atom_site_label
_atom_site_type_symbol
_atom_type_description
_atom_site_fract_x
_atom_site_fract_y
_atom_site_fract_z
_atom_type_partial_charge
C1    C     C_R   0.498040 0.299097 0.478788 0.811632
C2    C     C_R   0.071378 0.592819 0.573035 0.033504
C3    C     C_R   0.128963 0.510217 0.501863 -0.044815
C4    C     C_R   0.058364 0.433199 0.427725 -0.205014
C5    C     C_R   0.930385 0.433899 0.426804 -0.199069
C6    C     C_R   0.871288 0.511505 0.500191 -0.047859
C7    C     C_R   0.504909 0.814186 0.533568 -0.050819
C8    C     C_R   0.496190 0.185730 0.466627 -0.053964
C9    C     C_R   0.475764 0.015529 0.345049 -0.210641
C10   C     C_R   0.478237 0.123600 0.356069 -0.196230
C11   C     C_R   0.512016 0.139107 0.566210 -0.254398
C12   C     C_R   0.262514 0.502985 0.500742 0.792183
C13   C     C_R   0.509932 0.031070 0.555880 0.169882
C14   C     C_R   0.491454 0.968836 0.444431 0.175185
C15   C     C_R   0.488948 0.860837 0.434078 -0.259957
C16   C     C_R   0.523931 0.876221 0.644087 -0.163531
C17   C     C_R   0.526162 0.984308 0.655204 -0.173460
C18   C     C_R   0.390111 0.396352 0.021684 -0.338227
C19   C     C_R   0.399739 0.406936 0.143923 0.090519
C20   C     C_R   0.546075 0.545907 0.157156 0.024955
C21   C     C_R   0.539309 0.538194 0.034281 0.069663
C22   C     C_R   0.460372 0.462171 0.965744 0.064008
C23   C     C_R   0.502309 0.700880 0.521253 0.788393
C24   C     C_R   0.453867 0.454196 0.842875 0.027595
C25   C     C_R   0.599488 0.593616 0.856048 0.079084
C26   C     C_R   0.609196 0.604283 0.978301 -0.344938
C27   C     C_R   0.737536 0.504036 0.500020 0.794873
C28   C     C_R   0.140851 0.676864 0.640221 -0.366116
C29   C     C_R   0.082276 0.758053 0.711183 0.470136
C30   C     C_R   0.952103 0.757970 0.710105 0.480583
C31   C     C_R   0.882156 0.677627 0.639897 -0.363226
C32   C     C_R   0.940376 0.593341 0.572475 0.027391
Cu1   Cu    Cu3+1 0.509250 0.507730 0.615930 0.932469
Cu2   Cu    Cu3+1 0.490750 0.492270 0.384070 0.939095
H1    H     H_    0.102838 0.370944 0.371985 0.143013
H2    H     H_    0.540760 0.031164 0.741098 0.136231
H3    H     H_    0.465644 0.158404 0.278157 0.155111
H4    H     H_    0.526164 0.186645 0.651845 0.153808
H5    H     H_    0.393015 0.396240 0.789336 0.124057
H6    H     H_    0.652953 0.645175 0.813686 0.123840
H7    H     H_    0.328344 0.337064 0.971437 0.143201
H8    H     H_    0.670629 0.663860 0.028497 0.132827
H9    H     H_    0.345397 0.355708 0.186098 0.121727
H10   H     H_    0.607027 0.603784 0.210700 0.121624
H11   H     H_    0.240243 0.682217 0.634960 0.179805
H12   H     H_    0.782036 0.683591 0.637664 0.179409
H13   H     H_    0.877138 0.372005 0.370667 0.150043
H14   H     H_    0.474416 0.813341 0.348452 0.151123
H15   H     H_    0.537545 0.841350 0.721863 0.149116
H16   H     H_    0.461576 0.968617 0.259141 0.131713
N1    N     N_R   0.523180 0.519350 0.790130 -0.180036
N2    N     N_R   0.476820 0.480650 0.209890 -0.180366
O1    O     O_R   0.506570 0.354460 0.582000 -0.585718
O2    O     O_R   0.490940 0.341410 0.386200 -0.594308
O3    O     O_R   0.327470 0.506530 0.597920 -0.586731
O4    O     O_R   0.311840 0.493480 0.402120 -0.581467
O5    O     O_R   0.509060 0.658590 0.613800 -0.610341
O6    O     O_R   0.493430 0.645540 0.418000 -0.587422
O7    O     O_R   0.688160 0.506520 0.597880 -0.580397
O8    O     O_R   0.672530 0.493470 0.402080 -0.581516
O9    O     O_3   0.148370 0.843601 0.773681 -0.547553
C33   C     C_3   0.246707 0.811226 0.844554 -0.331237
H17   H     H_    0.328733 0.789374 0.793358 0.173498
H18   H     H_    0.218315 0.746036 0.888854 0.147806
H19   H     H_    0.275794 0.877950 0.913614 0.187027
O10   O     O_3   0.891424 0.840667 0.771583 -0.549136
C34   C     C_3   0.884903 0.823432 0.887152 -0.304038
H20   H     H_    0.978856 0.827531 0.933164 0.184097
H21   H     H_    0.838627 0.747365 0.890779 0.127353
H22   H     H_    0.828471 0.885770 0.934491 0.184952

loop_
_geom_bond_atom_site_label_1
_geom_bond_atom_site_label_2
_ccdc_geom_bond_type
Cu1   O3    S    
C11   H4    S    
C2    C28   A    
C9    C14   A    
C25   N1    A    
Cu2   O4    S    
C33   H17   S    
C17   H2    S    
C13   C14   A    
Cu1   N1    S    
C1    C8    S    
C11   C13   A    
C9    C10   A    
Cu2   N2    S    
C31   C32   A    
C27   O7    A    
C6    C27   S    
C13   C17   A    
C30   C31   A    
C1    O2    A    
C34   H22   S    
C24   N1    A    
C7    C15   A    
C2    C3    A    
C4    H1    S    
Cu1   O7    S    
C12   O4    A    
C21   C22   A    
C20   C21   A    
Cu2   O8    S    
C5    H13   S    
C29   C30   A    
C15   H14   S    
C8    C11   A    
C7    C23   S    
C5    C6    A    
C2    C32   A    
C8    C10   A    
C28   C29   A    
C30   O10   S    
C21   C26   A    
C19   H9    S    
Cu2   O2    S    
C23   O6    A    
C29   O9    S    
C27   O8    A    
C10   H3    S    
C25   H6    S    
Cu1   O1    S    
O9    C33   S    
Cu2   O6    S    
C22   C24   A    
C28   H11   S    
C12   O3    A    
C16   C17   A    
C33   H18   S    
C34   H20   S    
C24   H5    S    
Cu1   Cu2   S    
C16   H15   S    
C26   H8    S    
C20   N2    A    
C18   C19   A    
C18   H7    S    
C34   H21   S    
O10   C34   S    
C23   O5    A    
C1    O1    A    
C14   C15   A    
C7    C16   A    
Cu1   O5    S    
C3    C12   S    
C33   H19   S    
C20   H10   S    
C25   C26   A    
C18   C22   A    
C19   N2    A    
C9    H16   S    
C3    C4    A    
C4    C5    A    
C6    C32   A    
C31   H12   S    
