data_mof_unit_48038.cif
_audit_creation_date              2012-12-10T17:02:55-0500
_audit_creation_method            fapswitch 2.2
_symmetry_space_group_name_H-M    P1
_symmetry_Int_Tables_number       1
_space_group_crystal_system       triclinic
_cell_length_a                    9.858152
_cell_length_b                    10.905859
_cell_length_c                    13.4181
_cell_angle_alpha                 94.83399
_cell_angle_beta                  81.417703
_cell_angle_gamma                 110.338584
_cell_volume                      1336.69933731

loop_
_atom_site_label
_atom_site_type_symbol
_atom_type_description
_atom_site_fract_x
_atom_site_fract_y
_atom_site_fract_z
_atom_type_partial_charge
C1    C     C_R   0.557059 0.745859 0.501384 0.863132
C2    C     C_R   0.453970 0.449691 0.962610 0.002020
C3    C     C_R   0.473546 0.511667 0.869934 -0.035069
C4    C     C_R   0.555378 0.509912 0.032740 0.033201
C5    C     C_R   0.688025 0.611826 0.002373 0.055805
C6    C     C_R   0.705863 0.670499 0.910129 0.379143
C7    C     C_R   0.595314 0.626162 0.848809 -0.151895
C8    C     C_R   0.521892 0.481323 0.135206 -0.210423
C9    C     C_R   0.764416 0.617378 0.167324 -0.161827
C10   C     C_R   0.373976 0.456108 0.798320 -0.160590
C11   C     C_2   0.585937 0.885887 0.491910 -0.366007
C12   C     C_R   0.421988 0.485873 0.690506 0.801860
C13   C     C_2   0.509119 0.928895 0.436059 0.421183
C14   C     C_2   0.422277 0.113681 0.481049 0.145531
C15   C     C_2   0.529349 0.068063 0.437493 0.225827
C16   C     C_2   0.917916 0.478421 0.500046 -0.098838
C17   C     C_2   0.069240 0.494653 0.519423 0.049677
C18   C     C_R   0.446449 0.254215 0.489458 0.854866
C19   C     C_R   0.577743 0.513647 0.309938 0.815484
C20   C     C_R   0.794866 0.658884 0.068533 -0.086059
C21   C     C_R   0.624869 0.533799 0.202220 -0.029624
C22   C     C_R   0.245050 0.350475 0.826011 0.360378
C23   C     C_R   0.227438 0.289008 0.915915 -0.114706
C24   C     C_R   0.336191 0.328841 0.979607 -0.080888
Cu1   Cu    Cu3+1 0.362000 0.479240 0.482530 1.051025
Cu2   Cu    Cu3+1 0.638000 0.520760 0.517470 1.038580
H1    H     H_    0.845456 0.659265 0.218396 0.174170
H2    H     H_    0.667966 0.955431 0.533725 0.178169
H3    H     H_    0.863107 0.395322 0.453665 0.221034
H4    H     H_    0.115528 0.402759 0.390657 0.227379
H5    H     H_    0.899896 0.731826 0.046083 0.207560
H6    H     H_    0.411948 0.424653 0.165367 0.162916
H7    H     H_    0.134575 0.200296 0.930515 0.233325
H8    H     H_    0.606890 0.682125 0.783289 0.198223
N1    N     N_2   0.845330 0.551960 0.543750 -0.240696
N2    N     N_2   0.154690 0.448120 0.456210 -0.289278
O1    O     O_R   0.426290 0.668220 0.490680 -0.568411
O2    O     O_R   0.659360 0.703290 0.520190 -0.554214
O3    O     O_R   0.326580 0.473880 0.629020 -0.555843
O4    O     O_R   0.559660 0.508940 0.658530 -0.553087
O5    O     O_R   0.340640 0.296710 0.479810 -0.514976
O6    O     O_R   0.573710 0.331780 0.509320 -0.566604
O7    O     O_R   0.440340 0.491060 0.341470 -0.566087
O8    O     O_R   0.673420 0.526120 0.370980 -0.588364
Cl1   Cl    Cl    0.391290 0.827251 0.351835 -0.527235
Cl2   Cl    Cl    0.252508 0.007819 0.536708 -0.531051
C25   C     C_2   0.115955 0.560871 0.615605 0.508036
H9    H     H_    0.218842 0.639956 0.616943 0.088798
O9    O     O_2   0.035633 0.530435 0.694787 -0.489341
C26   C     C_2   0.923391 0.683998 0.572163 0.707532
H10   H     H_    0.033092 0.734507 0.536260 0.037285
O10   O     O_2   0.866986 0.742307 0.637341 -0.460374
Cl3   Cl    Cl    0.858538 0.808687 0.872644 -0.491092
Cl4   Cl    Cl    0.112438 0.274914 0.744344 -0.455869
C27   C     C_2   0.335218 0.231258 0.051051 0.400997
H11   H     H_    0.436226 0.233533 0.075360 0.099588
O11   O     O_2   0.222070 0.145674 0.082126 -0.486482
Cl5   Cl    Cl    0.691983 0.167366 0.368667 -0.607794

loop_
_geom_bond_atom_site_label_1
_geom_bond_atom_site_label_2
_ccdc_geom_bond_type
C12   O4    A    
C2    C4    A    
C23   C24   A    
C6    C7    A    
C14   Cl2   S    
C17   N2    D    
C1    O1    A    
C14   C18   S    
C9    C20   A    
C26   O10   D    
C25   H9    S    
C1    C11   S    
C13   C15   S    
H4    N2    S    
C19   O8    A    
C4    C8    A    
C9    C21   A    
Cu1   O7    S    
C27   H11   S    
C18   O6    A    
C26   H10   S    
Cu1   Cu2   S    
Cu2   O8    S    
C25   O9    D    
C3    C10   A    
C10   C22   A    
C24   C27   S    
C13   Cl1   S    
C11   C13   D    
Cu2   O4    S    
C10   C12   S    
C1    O2    A    
N1    C26   S    
C11   H2    S    
C19   C21   S    
C19   O7    A    
C2    C3    A    
C3    C7    A    
C27   O11   D    
C16   N1    D    
C2    C24   A    
C5    C6    A    
C15   Cl5   S    
C5    C20   A    
Cu1   N2    S    
C8    H6    S    
Cu2   N1    S    
C4    C5    A    
C7    H8    S    
C9    H1    S    
C22   Cl4   S    
C18   O5    A    
Cu1   O5    S    
Cu2   O6    S    
C14   C15   D    
Cu2   O2    S    
C6    Cl3   S    
Cu1   O1    S    
C16   H3    S    
C22   C23   A    
C12   O3    A    
Cu1   O3    S    
C17   C25   S    
C16   C17   S    
C23   H7    S    
C20   H5    S    
C8    C21   A    
