data_mof_unit_39558.cif
_audit_creation_date              2012-12-10T16:58:59-0500
_audit_creation_method            fapswitch 2.2
_symmetry_space_group_name_H-M    P1
_symmetry_Int_Tables_number       1
_space_group_crystal_system       triclinic
_cell_length_a                    9.670338
_cell_length_b                    10.926414
_cell_length_c                    17.326351
_cell_angle_alpha                 90.413396
_cell_angle_beta                  85.390828
_cell_angle_gamma                 90.718237
_cell_volume                      1824.63959077

loop_
_atom_site_label
_atom_site_type_symbol
_atom_type_description
_atom_site_fract_x
_atom_site_fract_y
_atom_site_fract_z
_atom_type_partial_charge
C1    C     C_R   0.500874 0.734712 0.501950 0.792558
C2    C     C_R   0.358938 0.445862 0.777381 0.386274
C3    C     C_R   0.423693 0.455636 0.146241 -0.158625
C4    C     C_R   0.414895 0.458546 0.226485 -0.197184
C5    C     C_R   0.656003 0.523987 0.223278 -0.187457
C6    C     C_R   0.664402 0.522232 0.142656 -0.154842
C7    C     C_R   0.547463 0.490908 0.103771 0.158667
C8    C     C_2   0.446126 0.519436 0.980177 -0.136565
C9    C     C_2   0.556846 0.495610 0.018961 -0.200450
C10   C     C_R   0.530328 0.494122 0.265532 -0.023978
C11   C     C_2   0.611883 0.068489 0.492530 -0.210892
C12   C     C_R   0.481068 0.500663 0.649829 0.887770
C13   C     C_2   0.496882 0.133844 0.488950 -0.293048
C14   C     C_2   0.609596 0.935002 0.482258 0.351867
C15   C     C_2   0.502978 0.866588 0.514839 0.249051
C16   C     C_2   0.071326 0.555537 0.552719 -0.203731
C17   C     C_2   0.913957 0.568252 0.548215 0.568521
C18   C     C_R   0.499382 0.265366 0.497601 0.852029
C19   C     C_R   0.518808 0.498674 0.350035 0.789015
C20   C     C_R   0.468858 0.505886 0.734148 -0.270412
C21   C     C_R   0.567359 0.573993 0.771534 -0.378627
C22   C     C_R   0.557459 0.583919 0.851885 0.482300
C23   C     C_R   0.454841 0.515845 0.895588 -0.112550
C24   C     C_R   0.357936 0.443789 0.858417 0.322568
Cu1   Cu    Cu3+1 0.361370 0.499980 0.499980 0.957115
Cu2   Cu    Cu3+1 0.638630 0.500020 0.500020 0.985220
H1    H     H_    0.649839 0.622986 0.738296 0.220015
H2    H     H_    0.761152 0.547895 0.110636 0.134762
H3    H     H_    0.710783 0.113744 0.499240 0.156583
H4    H     H_    0.399191 0.090736 0.476666 0.190683
H5    H     H_    0.119892 0.596001 0.601004 0.168791
H6    H     H_    0.112071 0.470179 0.451385 0.184925
H7    H     H_    0.899177 0.434369 0.469090 0.139395
H8    H     H_    0.317911 0.432042 0.257930 0.148453
H9    H     H_    0.746751 0.550729 0.252423 0.153823
H10   H     H_    0.657349 0.481099 0.987649 0.184695
H11   H     H_    0.333670 0.424930 0.117903 0.124649
H12   H     H_    0.344802 0.534277 0.010143 0.162768
N1    N     N_2   0.152990 0.501340 0.500850 -0.294944
N2    N     N_2   0.846850 0.501370 0.500880 -0.313973
O1    O     O_R   0.382960 0.678040 0.499990 -0.575735
O2    O     O_R   0.617100 0.678080 0.500010 -0.532391
O3    O     O_R   0.369350 0.500000 0.613580 -0.556010
O4    O     O_R   0.603500 0.500040 0.613610 -0.540660
O5    O     O_R   0.382900 0.321920 0.499990 -0.565433
O6    O     O_R   0.617040 0.321960 0.500010 -0.588831
O7    O     O_R   0.396500 0.499960 0.386390 -0.590418
O8    O     O_R   0.630650 0.500000 0.386420 -0.584259
O9    O     O_3   0.713257 0.881224 0.433551 -0.619025
C25   C     C_3   0.843121 0.889840 0.465855 0.101959
H13   H     H_    0.884781 0.795881 0.468016 0.190801
H14   H     H_    0.837949 0.926667 0.526352 0.116796
C26   C     C_3   0.944864 0.966692 0.413606 -0.389038
H15   H     H_    0.954964 0.925526 0.354595 0.233524
H16   H     H_    0.904899 0.061005 0.409113 0.218121
C27   C     C_3   0.087792 0.972841 0.445225 -0.878590
H17   H     H_    0.080758 0.016146 0.503598 0.265415
H18   H     H_    0.159550 0.028444 0.405963 0.252229
H19   H     H_    0.130967 0.879511 0.449104 0.269897
O10   O     O_3   0.397703 0.920068 0.562663 -0.598001
C28   C     C_3   0.395012 0.870283 0.637771 -0.337286
H20   H     H_    0.500215 0.869345 0.659737 0.145288
H21   H     H_    0.348418 0.776762 0.639433 0.166056
H22   H     H_    0.328609 0.928549 0.677785 0.195940
O11   O     O_3   0.833568 0.647488 0.596477 -0.540381
C29   C     C_3   0.911178 0.730115 0.639063 -0.440350
H23   H     H_    0.990807 0.780491 0.601262 0.167150
H24   H     H_    0.957825 0.682204 0.686808 0.171493
H25   H     H_    0.839381 0.799341 0.666191 0.193516
O12   O     O_3   0.259448 0.373283 0.900954 -0.611518
C30   C     C_3   0.319204 0.262290 0.923005 0.061233
H26   H     H_    0.261510 0.232053 0.977725 0.162291
H27   H     H_    0.430034 0.272433 0.935868 0.131333
C31   C     C_3   0.304816 0.162690 0.861233 -0.295392
H28   H     H_    0.194622 0.154781 0.847699 0.238196
H29   H     H_    0.368922 0.187727 0.807487 0.234831
C32   C     C_3   0.352828 0.038871 0.888502 -0.985143
H30   H     H_    0.463353 0.044530 0.901539 0.255499
H31   H     H_    0.342530 0.969233 0.842236 0.253049
H32   H     H_    0.288391 0.009299 0.941187 0.263449
O13   O     O_3   0.261817 0.378598 0.739905 -0.567528
C33   C     C_3   0.133468 0.439361 0.748356 -0.221235
H33   H     H_    0.064636 0.399363 0.706319 0.176401
H34   H     H_    0.144678 0.539031 0.735791 0.118721
H35   H     H_    0.081480 0.425577 0.807194 0.195032
O14   O     O_3   0.651838 0.656405 0.887675 -0.569079
C34   C     C_3   0.606010 0.778392 0.887746 -0.321116
H36   H     H_    0.501689 0.787327 0.919382 0.172172
H37   H     H_    0.604718 0.814032 0.827775 0.151704
H38   H     H_    0.679447 0.836377 0.918299 0.190102

loop_
_geom_bond_atom_site_label_1
_geom_bond_atom_site_label_2
_ccdc_geom_bond_type
C29   H24   S    
C34   H36   S    
C15   O10   S    
Cu1   O3    S    
O13   C33   S    
C24   O12   S    
C26   H15   S    
C16   H5    S    
C31   H29   S    
C13   C18   S    
C12   O3    A    
C3    C7    A    
C5    C6    A    
C11   C14   S    
C19   O7    A    
C26   C27   S    
C29   H25   S    
C8    C23   S    
C27   H17   S    
H6    N1    S    
C28   H21   S    
C6    H2    S    
C8    C9    D    
C31   C32   S    
C9    H10   S    
C25   H14   S    
C23   C24   A    
O12   C30   S    
C1    C15   S    
Cu1   O7    S    
Cu2   O8    S    
C32   H31   S    
C29   H23   S    
C21   H1    S    
C21   C22   A    
C8    H12   S    
C18   O6    A    
C26   H16   S    
C4    H8    S    
C25   C26   S    
C31   H28   S    
Cu2   O4    S    
H7    N2    S    
C13   H4    S    
Cu1   O1    S    
C30   H27   S    
O14   C34   S    
C16   C17   S    
Cu1   Cu2   S    
C32   H30   S    
C2    C20   A    
O10   C28   S    
C17   N2    D    
C28   H22   S    
C14   C15   D    
C10   C19   S    
C12   C20   S    
C25   H13   S    
C3    H11   S    
C1    O1    A    
C33   H33   S    
C33   H34   S    
C34   H37   S    
C2    C24   A    
O11   C29   S    
C4    C10   A    
C3    C4    A    
C18   O5    A    
Cu1   O5    S    
Cu2   O2    S    
C32   H32   S    
C7    C9    S    
C19   O8    A    
C30   C31   S    
C6    C7    A    
C33   H35   S    
C17   O11   S    
C27   H19   S    
C30   H26   S    
C12   O4    A    
Cu1   N1    S    
C11   C13   D    
Cu2   N2    S    
C5    H9    S    
C27   H18   S    
C22   O14   S    
C28   H20   S    
Cu2   O6    S    
C16   N1    D    
C14   O9    S    
C1    O2    A    
C5    C10   A    
C20   C21   A    
C11   H3    S    
O9    C25   S    
C34   H38   S    
C22   C23   A    
C2    O13   S    
