data_mof_unit_57236.cif
_audit_creation_date              2012-12-10T20:14:07-0500
_audit_creation_method            fapswitch 2.2
_symmetry_space_group_name_H-M    P1
_symmetry_Int_Tables_number       1
_space_group_crystal_system       triclinic
_cell_length_a                    19.302491
_cell_length_b                    18.411557
_cell_length_c                    10.504942
_cell_angle_alpha                 89.211336
_cell_angle_beta                  90.380596
_cell_angle_gamma                 90.003441
_cell_volume                      3732.90389029

loop_
_atom_site_label
_atom_site_type_symbol
_atom_type_description
_atom_site_fract_x
_atom_site_fract_y
_atom_site_fract_z
_atom_type_partial_charge
C1    C     C_R   0.365582 0.499914 0.501223 0.872110
C2    C     C_R   0.634433 0.499935 0.500627 0.838305
C3    C     C_R   0.963994 0.538777 0.617312 -0.189725
C4    C     C_R   0.036138 0.452145 0.446140 -0.187938
C5    C     C_R   0.035859 0.538429 0.619323 -0.187450
C6    C     C_R   0.964495 0.452429 0.444257 -0.184611
C7    C     C_R   0.072001 0.495316 0.533286 0.109815
C8    C     C_R   0.928302 0.495975 0.529339 0.112076
C9    C     C_R   0.546420 0.725175 0.573849 -0.020224
C10   C     C_R   0.454294 0.275214 0.423922 -0.024982
C11   C     C_R   0.453981 0.726010 0.424780 0.007721
C12   C     C_R   0.546365 0.273415 0.573578 -0.026828
C13   C     C_R   0.548798 0.801959 0.574534 0.065756
C14   C     C_R   0.453044 0.198386 0.419299 0.054862
C15   C     C_R   0.452410 0.802798 0.421246 0.059619
C16   C     C_R   0.548704 0.197005 0.573179 0.082063
C17   C     C_R   0.500812 0.841368 0.497145 -0.043241
C18   C     C_R   0.501259 0.158450 0.495421 -0.007841
C19   C     C_R   0.531607 0.962281 0.396010 -0.197354
C20   C     C_R   0.469938 0.037517 0.595145 -0.203877
C21   C     C_R   0.469838 0.961219 0.595626 -0.201163
C22   C     C_R   0.531514 0.038610 0.395340 -0.203188
C23   C     C_R   0.501096 0.077003 0.495368 0.143294
C24   C     C_R   0.500881 0.922839 0.496300 0.118323
C25   C     C_R   0.499785 0.500527 0.257323 0.992812
C26   C     C_R   0.500013 0.499513 0.742696 0.941447
C27   C     C_3   0.501679 0.568788 0.036598 0.498738
C28   C     C_3   0.499166 0.431212 0.964211 0.444613
C29   C     C_3   0.557534 0.532045 0.957988 0.453044
C30   C     C_3   0.442897 0.468110 0.041848 0.420399
C31   C     C_3   0.442774 0.536375 0.955008 -0.514510
C32   C     C_3   0.557832 0.464187 0.045944 -0.490211
C33   C     C_3   0.499838 0.498853 0.876854 -0.265631
C34   C     C_3   0.500528 0.501388 0.123233 -0.221885
C35   C     C_R   0.744932 0.432835 0.512120 -0.196693
C36   C     C_R   0.253767 0.564572 0.517850 -0.200949
C37   C     C_R   0.255320 0.432587 0.513203 -0.201529
C38   C     C_R   0.746456 0.564912 0.510251 -0.205781
C39   C     C_R   0.816466 0.431876 0.520826 -0.184255
C40   C     C_R   0.182232 0.563291 0.528602 -0.178736
C41   C     C_R   0.183954 0.431395 0.524095 -0.187571
C42   C     C_R   0.818122 0.563861 0.519326 -0.185869
C43   C     C_R   0.853177 0.497327 0.524190 0.109762
C44   C     C_R   0.147211 0.496699 0.530875 0.120669
C45   C     C_R   0.709592 0.499349 0.506457 -0.036291
C46   C     C_R   0.290552 0.499187 0.509543 -0.028154
H1    H     H_    0.397374 0.565031 0.912829 0.165744
H2    H     H_    0.603129 0.435432 0.088141 0.168282
H3    H     H_    0.717445 0.381555 0.510451 0.154450
H4    H     H_    0.280097 0.616531 0.515635 0.152513
H5    H     H_    0.282756 0.381402 0.507909 0.158715
H6    H     H_    0.720039 0.616814 0.506686 0.157993
H7    H     H_    0.843188 0.380156 0.525823 0.132991
H8    H     H_    0.154135 0.614144 0.532248 0.130697
H9    H     H_    0.157350 0.379586 0.526922 0.133283
H10   H     H_    0.846253 0.614762 0.520803 0.135252
H11   H     H_    0.936250 0.572034 0.684300 0.132607
H12   H     H_    0.063583 0.419525 0.377787 0.133280
H13   H     H_    0.063231 0.571496 0.687759 0.131232
H14   H     H_    0.937302 0.419901 0.374764 0.133335
H15   H     H_    0.581653 0.692764 0.631112 0.162102
H16   H     H_    0.419126 0.307939 0.367095 0.167962
H17   H     H_    0.418787 0.694277 0.367823 0.161847
H18   H     H_    0.582358 0.303722 0.631828 0.141200
H19   H     H_    0.555683 0.933857 0.318316 0.135197
H20   H     H_    0.445804 0.065914 0.672807 0.132835
H21   H     H_    0.445594 0.931967 0.673608 0.139538
H22   H     H_    0.555590 0.067868 0.317196 0.138369
N1    N     N_R   0.500000 0.689440 0.500000 -0.133540
N2    N     N_R   0.500000 0.310560 0.500000 -0.125847
O1    O     O_R   0.398180 0.560840 0.499970 -0.637948
O2    O     O_R   0.601820 0.439160 0.500030 -0.635069
O3    O     O_R   0.601820 0.560840 0.500030 -0.626898
O4    O     O_R   0.398180 0.439160 0.499970 -0.625786
O5    O     O_R   0.499980 0.560800 0.313940 -0.584558
O6    O     O_R   0.500020 0.439200 0.686060 -0.587669
O7    O     O_R   0.500020 0.560800 0.686060 -0.628118
O8    O     O_R   0.499980 0.439200 0.313940 -0.627446
Zn1   Zn    Zn3+2 0.500000 0.581210 0.500000 0.953289
Zn2   Zn    Zn3+2 0.500000 0.418790 0.500000 0.951871
O9    O     O_3   0.507848 0.639611 0.085130 -0.614691
C47   C     C_3   0.484055 0.690624 0.993591 0.106991
H23   H     H_    0.426418 0.689442 0.990118 0.134748
H24   H     H_    0.504951 0.679350 0.897008 0.161842
C48   C     C_3   0.507960 0.766386 0.032003 -0.316988
H25   H     H_    0.493912 0.776277 0.132659 0.237037
H26   H     H_    0.565263 0.769783 0.024160 0.227178
C49   C     C_3   0.474896 0.825019 0.947406 -1.008409
H27   H     H_    0.485701 0.814502 0.845651 0.273029
H28   H     H_    0.496412 0.878951 0.972345 0.266280
H29   H     H_    0.417942 0.826055 0.961758 0.269485
O10   O     O_3   0.496382 0.359816 0.917147 -0.637523
C50   C     C_3   0.496762 0.308467 0.018697 0.102618
H30   H     H_    0.454403 0.268981 0.000867 0.147486
H31   H     H_    0.486857 0.331933 0.114305 0.165430
C51   C     C_3   0.565691 0.267579 0.021397 -0.350391
H32   H     H_    0.572419 0.239030 0.929877 0.217102
H33   H     H_    0.609055 0.306672 0.032568 0.219589
C52   C     C_3   0.568408 0.212126 0.130694 -0.973154
H34   H     H_    0.563908 0.239828 0.223542 0.276687
H35   H     H_    0.618555 0.182644 0.128982 0.261940
H36   H     H_    0.525736 0.172081 0.121030 0.260784
O11   O     O_3   0.614855 0.571425 0.910857 -0.639659
C53   C     C_3   0.662738 0.524831 0.851814 0.096175
H37   H     H_    0.678785 0.551547 0.761411 0.162551
H38   H     H_    0.641190 0.470654 0.826107 0.121770
C54   C     C_3   0.726778 0.515240 0.936924 -0.336784
H39   H     H_    0.748652 0.569436 0.959580 0.234442
H40   H     H_    0.712010 0.487941 0.027630 0.217315
C55   C     C_3   0.782178 0.470106 0.871835 -0.959530
H41   H     H_    0.761267 0.415978 0.846246 0.265181
H42   H     H_    0.827038 0.462290 0.937286 0.264128
H43   H     H_    0.800397 0.498573 0.784515 0.279538
O12   O     O_3   0.384649 0.433619 0.096310 -0.656881
C56   C     C_3   0.337285 0.412737 0.000125 0.104375
H44   H     H_    0.321011 0.355934 0.020839 0.148235
H45   H     H_    0.359484 0.412796 0.902170 0.154985
C57   C     C_3   0.273238 0.461667 0.003154 -0.352199
H46   H     H_    0.246488 0.454081 0.095785 0.230625
H47   H     H_    0.289097 0.519480 0.994421 0.222828
C58   C     C_3   0.223006 0.444300 0.894916 -0.957546
H48   H     H_    0.248207 0.453989 0.801457 0.276341
H49   H     H_    0.176766 0.479948 0.900689 0.267185
H50   H     H_    0.205919 0.386779 0.901785 0.262837
C59   C     C_3   0.602028 0.843036 0.653717 -0.399018
C60   C     C_3   0.651762 0.796137 0.733628 -0.897193
H51   H     H_    0.622643 0.762201 0.803218 0.270890
H52   H     H_    0.683387 0.761067 0.671381 0.255815
H53   H     H_    0.687463 0.831841 0.787555 0.255425
H54   H     H_    0.633540 0.877597 0.588660 0.220157
H55   H     H_    0.574457 0.879564 0.719627 0.218109
C61   C     C_3   0.401315 0.157866 0.336115 -0.389948
C62   C     C_3   0.350071 0.205178 0.260345 -0.919551
H56   H     H_    0.317954 0.237917 0.325562 0.260973
H57   H     H_    0.377979 0.241407 0.192651 0.252915
H58   H     H_    0.314960 0.169809 0.204481 0.254063
H59   H     H_    0.430304 0.124500 0.267152 0.209665
H60   H     H_    0.370827 0.120336 0.397731 0.216632
C63   C     C_3   0.400340 0.844784 0.338958 -0.395569
C64   C     C_3   0.346064 0.799052 0.269723 -0.921057
H61   H     H_    0.371027 0.762725 0.200114 0.263057
H62   H     H_    0.315413 0.766488 0.339089 0.258231
H63   H     H_    0.310018 0.835566 0.216518 0.256833
H64   H     H_    0.372052 0.883342 0.400369 0.219987
H65   H     H_    0.428990 0.877115 0.266396 0.215831
C65   C     C_3   0.603177 0.158782 0.653817 -0.413976
C66   C     C_3   0.665988 0.138612 0.574289 -0.854932
H66   H     H_    0.651337 0.100102 0.498498 0.266095
H67   H     H_    0.688882 0.188120 0.529900 0.251413
H68   H     H_    0.705723 0.112338 0.636403 0.245708
H69   H     H_    0.621099 0.194691 0.731553 0.189653
H70   H     H_    0.581515 0.109502 0.700716 0.216161

loop_
_geom_bond_atom_site_label_1
_geom_bond_atom_site_label_2
_ccdc_geom_bond_type
C60   H51   S    
C27   C29   S    
C54   H40   S    
C14   C18   A    
C66   H66   S    
C64   H63   S    
C57   H47   S    
O1    Zn1   S    
O9    C47   S    
C14   C61   S    
C48   H25   S    
C39   H7    S    
C1    O1    A    
C9    H15   S    
C1    O4    A    
C20   H20   S    
C66   H67   S    
C9    N1    A    
C38   C42   A    
C29   C32   S    
C11   H17   S    
C30   C31   S    
C37   H5    S    
O8    Zn2   S    
C1    C46   S    
C38   H6    S    
C61   H60   S    
C56   H44   S    
C51   C52   S    
C29   C33   S    
C29   O11   S    
C16   C65   S    
C9    C13   A    
C55   H41   S    
C41   H9    S    
C38   C45   A    
C42   H10   S    
C57   H46   S    
C11   C15   A    
C59   H54   S    
C12   C16   A    
C61   C62   S    
C56   H45   S    
C51   H33   S    
C35   H3    S    
C62   H58   S    
C26   O6    A    
C54   H39   S    
C49   H29   S    
C36   C46   A    
C25   C34   S    
C13   C59   S    
C48   H26   S    
C50   H31   S    
C31   H1    S    
C21   H21   S    
C32   H2    S    
C10   H16   S    
C4    C7    A    
C2    O2    A    
C53   H38   S    
C53   H37   S    
O12   C56   S    
C15   C63   S    
O7    Zn1   S    
C27   C34   S    
C26   O7    A    
C5    H13   S    
C27   C31   S    
C18   C23   S    
C17   C24   S    
C6    H14   S    
C27   O9    S    
C19   C22   A    
C64   H61   S    
C4    C6    A    
C3    C8    A    
C10   C14   A    
C5    C7    A    
C30   C34   S    
C39   C43   A    
C60   H53   S    
C61   H59   S    
N2    Zn2   S    
C25   O8    A    
C25   O5    A    
C57   C58   S    
C32   C34   S    
C35   C39   A    
C63   H64   S    
C59   H55   S    
C26   C33   S    
C52   H34   S    
C20   C23   A    
C28   C32   S    
C56   C57   S    
C51   H32   S    
C66   H68   S    
C31   C33   S    
O3    Zn1   S    
C28   O10   S    
C50   H30   S    
C7    C44   S    
C20   C21   A    
C55   H43   S    
C22   H22   S    
C58   H48   S    
C2    O3    A    
C65   H70   S    
C10   N2    A    
C52   H35   S    
C49   H28   S    
C28   C33   S    
C50   C51   S    
C47   H24   S    
C59   C60   S    
C41   C44   A    
N1    Zn1   S    
C42   C43   A    
C35   C45   A    
C3    H11   S    
C36   C40   A    
C36   H4    S    
C62   H57   S    
C65   C66   S    
C30   O12   S    
C48   C49   S    
C15   C17   A    
C12   N2    A    
C63   H65   S    
C60   H52   S    
O6    Zn2   S    
C64   H62   S    
C3    C5    A    
C6    C8    A    
C63   C64   S    
C11   N1    A    
C47   C48   S    
C40   H8    S    
C13   C17   A    
C28   C30   S    
C19   C24   A    
O2    Zn2   S    
C62   H56   S    
C12   H18   S    
C8    C43   S    
O10   C50   S    
C54   C55   S    
C19   H19   S    
C37   C41   A    
C55   H42   S    
C58   H49   S    
C2    C45   S    
C65   H69   S    
C40   C44   A    
C52   H36   S    
C49   H27   S    
C16   C18   A    
C47   H23   S    
C21   C24   A    
C4    H12   S    
O11   C53   S    
C58   H50   S    
C22   C23   A    
O4    Zn2   S    
C37   C46   A    
O5    Zn1   S    
C53   C54   S    
