data_mof_unit_20079.cif
_audit_creation_date              2012-12-11T17:14:59-0500
_audit_creation_method            fapswitch 2.2
_symmetry_space_group_name_H-M    P1
_symmetry_Int_Tables_number       1
_space_group_crystal_system       monoclinic
_cell_length_a                    7.23881
_cell_length_b                    12.231759
_cell_length_c                    21.257204
_cell_angle_alpha                 90.0
_cell_angle_beta                  90.304537
_cell_angle_gamma                 90.0
_cell_volume                      1882.15809125

loop_
_atom_site_label
_atom_site_type_symbol
_atom_type_description
_atom_site_fract_x
_atom_site_fract_y
_atom_site_fract_z
_atom_type_partial_charge
O1    O     O_R   0.354460 0.152320 0.595720 -0.534302
O2    O     O_R   0.645540 0.847680 0.404280 -0.534302
O3    O     O_R   0.145540 0.652320 0.404280 -0.534302
O4    O     O_R   0.854460 0.347680 0.595720 -0.534302
O5    O     O_R   0.683670 0.140090 0.727290 -0.537710
O6    O     O_R   0.316330 0.859910 0.272710 -0.537710
O7    O     O_R   0.816330 0.640090 0.272710 -0.537710
O8    O     O_R   0.183670 0.359910 0.727290 -0.537710
O9    O     O_R   0.854010 0.349340 0.727750 -0.533458
O10   O     O_R   0.145990 0.650660 0.272250 -0.533458
O11   O     O_R   0.645990 0.849340 0.272250 -0.533458
O12   O     O_R   0.354010 0.150660 0.727750 -0.533458
C1    C     C_R   0.516028 0.112568 0.746859 0.688373
C2    C     C_R   0.483972 0.887432 0.253141 0.688373
C3    C     C_R   0.983972 0.612568 0.253141 0.688373
C4    C     C_R   0.016028 0.387431 0.746859 0.688373
O13   O     O_R   0.684170 0.139420 0.596190 -0.537009
O14   O     O_R   0.315830 0.860580 0.403810 -0.537009
O15   O     O_R   0.815830 0.639420 0.403810 -0.537009
O16   O     O_R   0.184170 0.360580 0.596190 -0.537009
C5    C     C_R   0.515264 0.113154 0.574456 0.706748
C6    C     C_R   0.484736 0.886846 0.425544 0.706749
C7    C     C_R   0.984736 0.613154 0.425544 0.706749
C8    C     C_R   0.015264 0.386846 0.574456 0.706748
O17   O     O_3   0.520730 0.319480 0.661730 -0.376539
O18   O     O_3   0.479270 0.680520 0.338270 -0.376539
O19   O     O_3   0.979270 0.819480 0.338270 -0.376539
O20   O     O_3   0.020730 0.180520 0.661730 -0.376539
V1    V     V_3+5 0.795560 0.238090 0.661730 1.444637
V2    V     V_3+5 0.204440 0.761910 0.338270 1.444637
V3    V     V_3+5 0.704440 0.738090 0.338270 1.444637
V4    V     V_3+5 0.295560 0.261910 0.661730 1.444637
C9    C     C_R   0.008164 0.466078 0.798112 -0.026990
C10   C     C_R   0.991836 0.533922 0.201888 -0.026990
C11   C     C_R   0.491836 0.966078 0.201888 -0.026990
C12   C     C_R   0.508164 0.033922 0.798112 -0.026990
C13   C     C_R   0.946226 0.647671 0.835750 -0.078953
C14   C     C_R   0.053774 0.352329 0.164250 -0.078953
C15   C     C_R   0.553776 0.147671 0.164250 -0.078952
C16   C     C_R   0.446224 0.852329 0.835750 -0.078952
C17   C     C_R   0.960247 0.574129 0.786246 -0.178960
C18   C     C_R   0.039753 0.425871 0.213754 -0.178960
C19   C     C_R   0.539754 0.074129 0.213754 -0.178959
C20   C     C_R   0.460246 0.925871 0.786246 -0.178959
C21   C     C_R   0.033731 0.429842 0.859593 -0.186535
C22   C     C_R   0.966269 0.570158 0.140407 -0.186535
C23   C     C_R   0.466268 0.929843 0.140407 -0.186536
C24   C     C_R   0.533732 0.070157 0.859593 -0.186536
C25   C     C_R   0.007329 0.500732 0.911360 0.091052
C26   C     C_R   0.992671 0.499268 0.088640 0.091052
C27   C     C_R   0.492671 0.000732 0.088640 0.091052
C28   C     C_R   0.507329 0.999268 0.911360 0.091052
C29   C     C_R   0.975893 0.613748 0.898591 0.097401
C30   C     C_R   0.024107 0.386252 0.101409 0.097401
C31   C     C_R   0.524107 0.113748 0.101409 0.097401
C32   C     C_R   0.475893 0.886252 0.898591 0.097401
C33   C     C_R   0.009992 0.462201 0.974881 0.049837
C34   C     C_R   0.990008 0.537798 0.025119 0.049837
C35   C     C_R   0.490008 0.962201 0.025119 0.049837
C36   C     C_R   0.509992 0.037798 0.974881 0.049837
C37   C     C_R   0.975554 0.650311 0.010594 -0.186804
C38   C     C_R   0.024446 0.349689 0.989406 -0.186804
C39   C     C_R   0.524445 0.150311 0.989406 -0.186803
C40   C     C_R   0.475555 0.849689 0.010594 -0.186803
C41   C     C_R   0.969972 0.689188 0.948834 -0.027706
C42   C     C_R   0.030028 0.310812 0.051166 -0.027706
C43   C     C_R   0.530028 0.189188 0.051166 -0.027707
C44   C     C_R   0.469972 0.810812 0.948834 -0.027707
H1    H     H_    0.927077 0.654586 0.135097 0.099229
H2    H     H_    0.072923 0.345414 0.864903 0.099228
H3    H     H_    0.572927 0.154585 0.864903 0.099229
H4    H     H_    0.427073 0.845414 0.135097 0.099229
H5    H     H_    0.066127 0.398422 0.261432 0.103168
H6    H     H_    0.933873 0.601578 0.738568 0.103168
H7    H     H_    0.433871 0.898422 0.738568 0.103168
H8    H     H_    0.566129 0.101578 0.261432 0.103168
H9    H     H_    0.904160 0.729847 0.823984 0.158018
H10   H     H_    0.095840 0.270153 0.176016 0.158018
H11   H     H_    0.595843 0.229847 0.176015 0.158017
H12   H     H_    0.404157 0.770153 0.823985 0.158017
H13   H     H_    0.977387 0.711600 0.046820 0.152938
H14   H     H_    0.022613 0.288400 0.953180 0.152938
H15   H     H_    0.522610 0.211600 0.953180 0.152938
H16   H     H_    0.477390 0.788399 0.046820 0.152938
C45   C     C_1   0.995176 0.533122 0.478087 -0.174744
C46   C     C_1   0.004824 0.466878 0.521913 -0.174744
C47   C     C_1   0.504824 0.033122 0.521913 -0.174744
C48   C     C_1   0.495176 0.966877 0.478087 -0.174744
C49   C     C_2   0.967101 0.810153 0.939735 0.723308
O21   O     O_2   0.042738 0.852302 0.894562 -0.572619
O22   O     O_R   0.885026 0.876751 0.985012 -0.670508
H17   H     H_    0.884127 0.956512 0.972227 0.308126
C50   C     C_2   0.032899 0.189846 0.060264 0.723308
O23   O     O_2   0.957262 0.147698 0.105438 -0.572619
O24   O     O_R   0.114974 0.123249 0.014988 -0.670508
H18   H     H_    0.115873 0.043488 0.027773 0.308126
C51   C     C_2   0.532900 0.310154 0.060264 0.723306
O25   O     O_2   0.457261 0.352302 0.105438 -0.572618
O26   O     O_R   0.614976 0.376751 0.014988 -0.670507
H19   H     H_    0.615875 0.456512 0.027773 0.308125
C52   C     C_2   0.467100 0.689846 0.939735 0.723306
O27   O     O_2   0.542739 0.647698 0.894562 -0.572618
O28   O     O_R   0.385024 0.623249 0.985012 -0.670507
H20   H     H_    0.384125 0.543488 0.972227 0.308125

loop_
_geom_bond_atom_site_label_1
_geom_bond_atom_site_label_2
_ccdc_geom_bond_type
C47   C48   T    
C5    C47   S    
O1    C5    A    
C50   O23   D    
O3    V2    S    
C9    C21   A    
O3    C7    A    
O24   H18   S    
C10   C18   A    
C11   C23   A    
C51   O25   D    
C25   C33   A    
C33   C38   A    
C45   C46   T    
C41   C49   S    
C35   C40   A    
C26   C30   A    
C36   C39   A    
C40   C44   A    
O20   V1    S    
O9    C4    A    
C14   C18   A    
O10   C3    A    
O4    C8    A    
O11   C2    A    
O13   V1    S    
C40   H16   S    
C22   H1    S    
C28   C36   A    
C17   H6    S    
C15   C31   A    
O16   C8    A    
C16   C32   A    
O2    C6    A    
C16   H12   S    
C10   C22   A    
C6    C48   S    
C49   O22   S    
C11   C19   A    
C3    C10   S    
O5    C1    A    
O4    V1    S    
O9    V1    S    
C13   C29   A    
C34   C37   A    
O7    C3    A    
C38   H14   S    
O15   V3    S    
C35   C36   A    
O8    C4    A    
O12   V4    S    
O19   V2    S    
C51   O26   S    
O5    V1    S    
C39   C43   A    
O7    V3    S    
C38   C42   A    
O8    V4    S    
C52   O27   D    
C44   C52   S    
C1    C12   S    
O22   H17   S    
C23   C27   A    
C14   H10   S    
C32   C44   A    
C13   H9    S    
O1    V4    S    
O13   C5    A    
C39   H15   S    
O2    V3    S    
C26   C34   A    
C20   H7    S    
O15   C7    A    
C4    C9    S    
O6    C2    A    
O10   V2    S    
C31   C43   A    
O26   H19   S    
C14   C30   A    
C21   C25   A    
C42   C50   S    
O14   V2    S    
O6    V2    S    
C16   C20   A    
C12   C20   A    
C27   C35   A    
C24   H3    S    
C2    C11   S    
C29   C41   A    
O16   V4    S    
C19   H8    S    
C18   H5    S    
C21   H2    S    
O14   C6    A    
O18   V3    S    
C15   C19   A    
C30   C42   A    
C22   C26   A    
C9    C17   A    
C37   H13   S    
C33   C34   A    
C50   O24   S    
O17   V4    S    
C25   C29   A    
C12   C24   A    
C27   C31   A    
C13   C17   A    
C23   H4    S    
C43   C51   S    
O11   V3    S    
C37   C41   A    
C24   C28   A    
O12   C1    A    
C52   O28   S    
C7    C45   S    
O28   H20   S    
C49   O21   D    
C8    C46   S    
C28   C32   A    
C15   H11   S    
