data_mof_unit_5658.cif
_audit_creation_date              2013-03-05T16:11:10-0500
_audit_creation_method            fapswitch 2.2
_symmetry_space_group_name_H-M    P1
_symmetry_Int_Tables_number       1
_space_group_crystal_system       triclinic
_cell_length_a                    9.920634
_cell_length_b                    10.623462
_cell_length_c                    13.633465
_cell_angle_alpha                 90.67831
_cell_angle_beta                  82.725106
_cell_angle_gamma                 89.840661
_cell_volume                      1425.17126723

loop_
_atom_site_label
_atom_site_type_symbol
_atom_site_description
_atom_site_fract_x
_atom_site_fract_y
_atom_site_fract_z
_atom_type_partial_charge
O1    O     O_R   0.385380 0.683250 0.500010 -0.598065
O2    O     O_R   0.614620 0.316750 0.499990 -0.598067
O3    O     O_R   0.614710 0.683220 0.500000 -0.566369
O4    O     O_R   0.385290 0.316780 0.500000 -0.566366
C1    C     C_R   0.500097 0.739507 0.499457 0.876151
C2    C     C_R   0.499903 0.260493 0.500543 0.876151
O5    O     O_R   0.368830 0.499990 0.640350 -0.582944
O6    O     O_R   0.631170 0.500010 0.359650 -0.582942
O7    O     O_R   0.598160 0.499960 0.640350 -0.580476
O8    O     O_R   0.401840 0.500040 0.359650 -0.580475
C3    C     C_R   0.475339 0.499900 0.685519 0.885086
C4    C     C_R   0.524661 0.500100 0.314481 0.885088
Zn1   Zn    Zn3+2 0.346870 0.500020 0.500000 1.064456
Zn2   Zn    Zn3+2 0.653130 0.499980 0.500000 1.064455
C5    C     C_R   0.938085 0.413391 0.444978 0.227681
C6    C     C_R   0.061915 0.586609 0.555022 0.227682
C7    C     C_R   0.081756 0.413455 0.444954 0.226516
C8    C     C_R   0.918243 0.586546 0.555046 0.226514
C9    C     C_1   0.543921 0.501325 0.210851 -0.088573
C10   C     C_1   0.456079 0.498680 0.789149 -0.088573
C11   C     C_2   0.558930 0.503460 0.018950 0.096380
C12   C     C_2   0.441068 0.496556 0.981050 0.096377
C13   C     C_1   0.444052 0.497535 0.876848 0.012709
C14   C     C_1   0.555947 0.502476 0.123152 0.012709
C15   C     C_R   0.585645 0.935032 0.425303 0.129835
C16   C     C_R   0.414355 0.064968 0.574697 0.129835
C17   C     C_R   0.584256 0.064947 0.427577 -0.167709
C18   C     C_R   0.415745 0.935053 0.572423 -0.167708
H1    H     H_    0.646220 0.117042 0.370810 0.190974
H2    H     H_    0.353780 0.882958 0.629190 0.190974
C19   C     C_R   0.499568 0.128061 0.501592 -0.040784
C20   C     C_R   0.500432 0.871939 0.498408 -0.040785
N1    N     N_R   0.142790 0.500030 0.500020 -0.221766
N2    N     N_R   0.857210 0.499970 0.499980 -0.221766
N3    N     N_R   0.878096 0.321489 0.386974 0.251089
O9    O     O_R   0.853040 0.349998 0.298575 -0.368635
O10   O     O_R   0.880447 0.203736 0.411725 -0.342620
N4    N     N_R   0.121904 0.678512 0.613026 0.251090
O11   O     O_R   0.146958 0.650005 0.701426 -0.368636
O12   O     O_R   0.119556 0.796264 0.588272 -0.342617
N5    N     N_R   0.163057 0.323753 0.384880 0.261799
O13   O     O_R   0.172105 0.209077 0.415871 -0.312511
O14   O     O_R   0.198079 0.347037 0.291721 -0.353547
N6    N     N_R   0.836943 0.676251 0.615116 0.261799
O15   O     O_R   0.827906 0.790928 0.584124 -0.312508
O16   O     O_R   0.801916 0.652971 0.708276 -0.353544
N7    N     N_3   0.313246 0.488039 0.043170 -0.408295
H3    H     H_    0.252731 0.563921 0.027068 0.208497
H4    H     H_    0.265336 0.405457 0.023872 0.216405
N8    N     N_3   0.686755 0.511960 0.956830 -0.408301
H5    H     H_    0.747242 0.436054 0.972919 0.208493
H6    H     H_    0.734694 0.594519 0.976140 0.216408
N9    N     N_3   0.670439 0.866755 0.349095 -0.395359
H7    H     H_    0.606560 0.822251 0.304167 0.160822
H8    H     H_    0.731213 0.928656 0.303876 0.219253
N10   N     N_3   0.329562 0.133245 0.650905 -0.395361
H9    H     H_    0.393440 0.177749 0.695833 0.160820
H10   H     H_    0.268788 0.071344 0.696124 0.219252

loop_
_geom_bond_atom_site_label_1
_geom_bond_atom_site_label_2
_geom_bond_distance
_ccdc_geom_bond_type
Zn2   N2    2.024567 S    
N8    H6    1.045603 S    
O7    Zn2   1.922095 S    
Zn1   N1    2.024569 S    
C8    N6    1.428061 S    
C6    N1    1.370840 A    
C17   H1    1.083831 S    
N5    O14   1.300449 A    
N5    O13   1.300737 A    
C5    N2    1.370840 A    
C16   C18   1.380120 A    
N3    O9    1.300035 A    
C10   C13   1.186665 T    
C18   C20   1.392764 A    
O6    C4    1.288604 A    
C1    C20   1.407134 S    
C15   C20   1.401015 A    
C18   H2    1.083830 S    
N8    H5    1.045592 S    
C16   C19   1.401013 A    
N7    H4    1.045622 S    
C11   C12   1.338709 D    
N6    O15   1.300734 A    
O5    C3    1.288604 A    
C8    N2    1.370409 A    
C12   N7    1.436643 S    
O2    C2    1.286137 A    
O3    Zn2   1.982565 S    
O8    C4    1.293775 A    
O1    C1    1.286137 A    
C4    C9    1.401739 S    
C5    N3    1.427192 S    
C11   N8    1.436646 S    
N4    O12   1.300421 A    
C15   N9    1.438978 S    
C9    C14   1.186665 T    
O7    C3    1.293774 A    
N4    O11   1.300033 A    
O2    Zn2   1.984719 S    
C7    N5    1.428057 S    
C3    C10   1.401738 S    
O4    C2    1.284098 A    
O1    Zn1   1.984717 S    
N9    H8    1.045790 S    
C17   C19   1.392764 A    
O5    Zn1   1.953040 S    
N10   H9    1.045669 S    
N3    O10   1.300422 A    
C6    C8    1.425274 A    
C11   C14   1.417349 S    
C6    N4    1.427193 S    
O4    Zn1   1.982566 S    
C5    C7    1.425273 A    
C12   C13   1.417348 S    
C2    C19   1.407134 S    
O6    Zn2   1.953042 S    
C7    N1    1.370408 A    
N9    H7    1.045669 S    
N10   H10   1.045789 S    
C15   C17   1.380120 A    
N7    H3    1.045616 S    
N6    O16   1.300449 A    
O3    C1    1.284097 A    
O8    Zn1   1.922096 S    
C16   N10   1.438977 S    
