data_mof_unit_23828.cif
_audit_creation_date              2012-12-10T20:51:45-0500
_audit_creation_method            fapswitch 2.2
_symmetry_space_group_name_H-M    P1
_symmetry_Int_Tables_number       1
_space_group_crystal_system       triclinic
_cell_length_a                    8.098701
_cell_length_b                    8.933861
_cell_length_c                    16.945328
_cell_angle_alpha                 89.630216
_cell_angle_beta                  95.215118
_cell_angle_gamma                 90.0316
_cell_volume                      1220.93902577

loop_
_atom_site_label
_atom_site_type_symbol
_atom_type_description
_atom_site_fract_x
_atom_site_fract_y
_atom_site_fract_z
_atom_type_partial_charge
C1    C     C_R   0.499945 0.217961 0.500013 0.948594
C2    C     C_R   0.604724 0.509731 0.141344 -0.160006
C3    C     C_R   0.568400 0.539181 0.902197 0.277502
C4    C     C_R   0.456427 0.550923 0.096563 0.266502
C5    C     C_R   0.688494 0.459851 0.865942 -0.307619
C6    C     C_R   0.312541 0.574015 0.134224 -0.304656
C7    C     C_R   0.677208 0.445879 0.783660 0.452322
C8    C     C_R   0.315367 0.559369 0.216402 0.455467
C9    C     C_1   0.499912 0.065175 0.499928 -0.190027
C10   C     C_1   0.500006 0.934809 0.499872 -0.195713
C11   C     C_3   0.946746 0.411789 0.756765 0.099927
C12   C     C_R   0.500023 0.782035 0.499877 0.926457
C13   C     C_3   0.058166 0.316260 0.709909 -0.741629
C14   C     C_3   0.147348 0.736001 0.262281 0.095965
C15   C     C_3   0.995385 0.760673 0.307164 -0.752617
C16   C     C_R   0.522608 0.498039 0.653436 0.918071
C17   C     C_R   0.477594 0.503596 0.346297 0.887193
C18   C     C_R   0.540175 0.510044 0.738728 -0.125202
C19   C     C_R   0.464192 0.515652 0.260387 -0.146305
C20   C     C_R   0.422382 0.593342 0.775016 -0.334252
C21   C     C_R   0.607618 0.491340 0.222105 -0.310080
C22   C     C_R   0.436728 0.609131 0.856320 -0.160916
H1    H     H_    0.723370 0.458159 0.254611 0.206336
H2    H     H_    0.187312 0.358458 0.718160 0.216642
H3    H     H_    0.056548 0.198327 0.730963 0.246195
H4    H     H_    0.126248 0.793425 0.203699 0.133256
H5    H     H_    0.256193 0.787392 0.297071 0.131341
H6    H     H_    0.012970 0.705516 0.366226 0.263130
H7    H     H_    0.976069 0.882399 0.315455 0.200018
H8    H     H_    0.883732 0.713399 0.273350 0.247424
H9    H     H_    0.319260 0.646438 0.740370 0.179608
H10   H     H_    0.718750 0.489851 0.114289 0.170196
H11   H     H_    0.343589 0.673327 0.883263 0.158060
H12   H     H_    0.786059 0.402665 0.902319 0.149577
H13   H     H_    0.197875 0.603306 0.099608 0.153812
H14   H     H_    0.998274 0.409319 0.819876 0.133656
H15   H     H_    0.949232 0.528828 0.733671 0.141622
H16   H     H_    0.014447 0.320370 0.645903 0.258469
N1    N     N_1   0.073640 0.500030 0.499990 -0.043427
N2    N     N_1   0.926360 0.499970 0.500010 -0.044876
N3    N     N_2   0.579468 0.537571 0.985305 -0.189921
N4    N     N_2   0.445634 0.563233 0.013303 -0.186409
O1    O     O_R   0.636850 0.285340 0.500000 -0.609182
O2    O     O_3   0.171147 0.580847 0.252731 -0.595918
O3    O     O_R   0.363150 0.714660 0.500000 -0.621922
O4    O     O_R   0.363100 0.285350 0.500000 -0.618036
O5    O     O_R   0.636900 0.714650 0.500000 -0.619000
O6    O     O_R   0.652140 0.498630 0.616140 -0.590215
O7    O     O_R   0.347860 0.501370 0.383860 -0.570344
O8    O     O_R   0.378390 0.498650 0.616130 -0.640182
O9    O     O_R   0.621610 0.501350 0.383870 -0.631185
O10   O     O_3   0.784422 0.352586 0.747798 -0.603343
Zn1   Zn    Zn3+2 0.682780 0.499990 0.500010 0.989056
Zn2   Zn    Zn3+2 0.317220 0.500010 0.499990 0.986586

loop_
_geom_bond_atom_site_label_1
_geom_bond_atom_site_label_2
_ccdc_geom_bond_type
O3    Zn2   S    
C2    C4    A    
C14   H5    S    
C5    C7    A    
C9    C10   T    
O4    Zn2   S    
C8    C19   A    
O5    Zn1   S    
C7    C18   A    
C5    H12   S    
C16   O6    A    
C2    C21   A    
O1    Zn1   S    
C13   H16   S    
C16   C18   S    
C14   H4    S    
C11   C13   S    
C13   H3    S    
C15   H6    S    
O8    Zn2   S    
C10   C12   S    
C12   O5    A    
C2    H10   S    
C11   H14   S    
C17   C19   S    
C16   O8    A    
C7    O10   S    
C15   H7    S    
C18   C20   A    
C21   H1    S    
O6    Zn1   S    
C4    N4    S    
C1    O4    A    
C4    C6    A    
O7    Zn2   S    
N1    Zn2   S    
C3    C5    A    
C1    C9    S    
C6    H13   S    
C15   H8    S    
C14   O2    S    
N2    Zn1   S    
N3    N4    D    
C17   O7    A    
N1    N2    T    
C11   H15   S    
C22   H11   S    
C14   C15   S    
C3    N3    S    
C3    C22   A    
C6    C8    A    
C11   O10   S    
C17   O9    A    
C19   C21   A    
C1    O1    A    
C8    O2    S    
C13   H2    S    
C20   C22   A    
C12   O3    A    
O9    Zn1   S    
C20   H9    S    
