data_mof_unit_59195.cif
_audit_creation_date              2012-12-11T14:38:26-0500
_audit_creation_method            fapswitch 2.2
_symmetry_space_group_name_H-M    P1
_symmetry_Int_Tables_number       1
_space_group_crystal_system       triclinic
_cell_length_a                    19.37525
_cell_length_b                    11.347331
_cell_length_c                    19.657511
_cell_angle_alpha                 89.513873
_cell_angle_beta                  96.366977
_cell_angle_gamma                 89.680382
_cell_volume                      4294.944592

loop_
_atom_site_label
_atom_site_type_symbol
_atom_type_description
_atom_site_fract_x
_atom_site_fract_y
_atom_site_fract_z
_atom_type_partial_charge
C1    C     C_R   0.724314 0.953902 0.360535 0.566700
C2    C     C_3   0.168074 0.459718 0.468827 -0.026458
C3    C     C_2   0.601657 0.887480 0.448697 0.618531
C4    C     C_3   0.323267 0.959538 0.524154 -0.054550
C5    C     C_3   0.668074 0.959720 0.468828 -0.026460
C6    C     C_3   0.753647 0.284343 0.564262 0.119145
C7    C     C_3   0.246742 0.288841 0.445022 0.113648
C8    C     C_3   0.253648 0.784343 0.564262 0.119147
C9    C     C_3   0.746740 0.788841 0.445022 0.113653
C10   C     C_3   0.761946 0.418218 0.567470 0.004502
C11   C     C_3   0.235780 0.420572 0.433005 0.040671
C12   C     C_3   0.261947 0.918218 0.567470 0.004509
C13   C     C_R   0.276763 0.957621 0.638296 0.580733
C14   C     C_3   0.735779 0.920573 0.433005 0.040666
C15   C     C_3   0.737045 0.355763 0.439629 0.041195
C16   C     C_3   0.254030 0.387328 0.564541 0.057406
C17   C     C_3   0.237045 0.855764 0.439629 0.041194
C18   C     C_3   0.754029 0.887328 0.564541 0.057404
C19   C     C_3   0.800150 0.441253 0.447394 0.114886
C20   C     C_3   0.184299 0.452691 0.547258 0.086161
C21   C     C_3   0.300152 0.941250 0.447395 0.114879
C22   C     C_3   0.684299 0.952693 0.547258 0.086160
C23   C     C_3   0.756714 0.250028 0.488831 -0.279177
C24   C     C_R   0.224315 0.453902 0.360535 0.566703
C25   C     C_3   0.250012 0.269974 0.524074 -0.258301
C26   C     C_3   0.256713 0.750028 0.488831 -0.279181
C27   C     C_3   0.750010 0.769974 0.524074 -0.258295
C28   C     C_3   0.555057 0.229387 0.952482 -0.242857
C29   C     C_3   0.572134 0.230494 0.030310 -0.223311
C30   C     C_3   0.055035 0.729536 0.952480 -0.242841
C31   C     C_3   0.072117 0.730618 0.030306 -0.223319
C32   C     C_3   0.427207 0.240521 0.969366 -0.220946
C33   C     C_3   0.504248 0.043596 0.040756 -0.232473
C34   C     C_3   0.927177 0.740378 0.969364 -0.220945
C35   C     C_R   0.776764 0.457621 0.638296 0.580729
C36   C     C_3   0.004350 0.543590 0.040737 -0.232455
C37   C     C_3   0.486503 0.043253 0.962478 -0.233995
C38   C     C_3   0.444414 0.240158 0.047342 -0.245414
C39   C     C_3   0.986622 0.543244 0.962458 -0.234026
C40   C     C_3   0.944393 0.740039 0.047340 -0.245416
C41   C     C_R   0.536213 0.180759 0.338323 0.533574
C42   C     C_R   0.463359 0.181113 0.661415 0.544827
C43   C     C_R   0.036213 0.680759 0.338323 0.533573
C44   C     C_R   0.963359 0.681113 0.661415 0.544820
C45   C     C_3   0.483710 0.171910 0.934347 0.051326
C46   C     C_3   0.671088 0.412919 0.463114 -0.232521
C47   C     C_3   0.513072 0.172648 0.066563 0.053431
C48   C     C_3   0.983730 0.671908 0.934339 0.051348
C49   C     C_3   0.013091 0.672649 0.066555 0.053407
C50   C     C_1   0.756768 0.414116 0.900579 -0.010482
C51   C     C_1   0.238644 0.429344 0.095529 -0.010627
C52   C     C_1   0.256770 0.914121 0.900580 -0.010492
C53   C     C_1   0.738645 0.929342 0.095529 -0.010616
C54   C     C_1   0.735841 0.364523 0.026853 -0.051036
C55   C     C_1   0.251448 0.406084 0.965225 -0.052419
C56   C     C_1   0.235845 0.864536 0.026855 -0.051040
C57   C     C_3   0.316102 0.456041 0.542350 -0.234405
C58   C     C_1   0.751450 0.906081 0.965226 -0.052415
C59   C     C_1   0.745145 0.389157 0.957935 -0.046344
C60   C     C_1   0.246277 0.417325 0.035953 -0.050115
C61   C     C_1   0.245148 0.889166 0.957937 -0.046354
C62   C     C_1   0.746278 0.917322 0.035953 -0.050105
C63   C     C_1   0.729647 0.343057 0.086059 -0.020638
C64   C     C_1   0.255698 0.390654 0.905234 -0.013181
C65   C     C_1   0.229651 0.843068 0.086060 -0.020635
C66   C     C_1   0.755699 0.890651 0.905235 -0.013177
C67   C     C_R   0.725496 0.315322 0.368027 0.561301
C68   C     C_3   0.171089 0.912921 0.463114 -0.232530
C69   C     C_R   0.262142 0.356730 0.637282 0.601549
C70   C     C_R   0.225496 0.815322 0.368027 0.561311
C71   C     C_R   0.762142 0.856730 0.637282 0.601549
C72   C     C_R   0.722615 0.955118 0.163307 0.541519
C73   C     C_R   0.276855 0.952798 0.835988 0.547244
C74   C     C_R   0.222615 0.455118 0.163307 0.541516
C75   C     C_R   0.776855 0.452797 0.835988 0.547250
C76   C     C_R   0.534095 0.179572 0.140511 0.526101
C77   C     C_R   0.464199 0.178996 0.860164 0.532803
C78   C     C_R   0.034106 0.679573 0.140506 0.526103
C79   C     C_3   0.816102 0.956040 0.542350 -0.234404
C80   C     C_R   0.964213 0.678994 0.860159 0.532793
C81   C     C_R   0.722735 0.312534 0.155997 0.552686
C82   C     C_R   0.263715 0.356893 0.836432 0.555632
C83   C     C_R   0.222736 0.812538 0.155997 0.552680
C84   C     C_R   0.763716 0.856892 0.836432 0.555636
C85   C     C_1   0.484698 0.176049 0.594059 0.019173
C86   C     C_1   0.513778 0.174833 0.405240 0.018359
C87   C     C_1   0.984698 0.676049 0.594059 0.019172
C88   C     C_1   0.013778 0.674832 0.405240 0.018357
C89   C     C_1   0.503147 0.173132 0.464435 -0.047712
C90   C     C_3   0.823267 0.459538 0.524154 -0.054529
C91   C     C_1   0.494632 0.173798 0.534693 -0.053511
C92   C     C_1   0.003147 0.673131 0.464435 -0.047702
C93   C     C_1   0.994632 0.673797 0.534693 -0.053506
C94   C     C_3   0.689803 0.465194 0.534529 -0.292287
C95   C     C_3   0.306226 0.473408 0.464996 -0.306375
C96   C     C_3   0.189803 0.965193 0.534529 -0.292293
C97   C     C_3   0.806226 0.973407 0.464996 -0.306376
C98   C     C_2   0.894936 0.400596 0.543659 0.523555
C99   C     C_2   0.101658 0.387477 0.448697 0.618536
C100  C     C_2   0.394936 0.900597 0.543660 0.523559
Cr1   Cr    Cr6+3 0.765780 0.160710 0.267420 1.027347
Cr2   Cr    Cr6+3 0.383970 0.323720 0.751490 1.034772
Cr3   Cr    Cr6+3 0.116030 0.823720 0.248510 1.039924
Cr4   Cr    Cr6+3 0.883970 0.823720 0.751490 1.034772
Cr5   Cr    Cr6+3 0.234220 0.160710 0.732580 1.032605
Cr6   Cr    Cr6+3 0.265780 0.660710 0.267420 1.027349
Cr7   Cr    Cr6+3 0.734220 0.660710 0.732580 1.032610
Cr8   Cr    Cr6+3 0.612200 0.009560 0.248850 1.072974
Cr9   Cr    Cr6+3 0.387800 0.009560 0.751150 1.074688
Cr10  Cr    Cr6+3 0.112200 0.509560 0.248850 1.072974
Cr11  Cr    Cr6+3 0.887800 0.509560 0.751150 1.074685
Cr12  Cr    Cr6+3 0.616030 0.323720 0.248510 1.039919
H1    H     H_    0.690666 0.558735 0.529920 0.148062
H2    H     H_    0.143054 0.402109 0.570096 0.181697
H3    H     H_    0.344245 0.902215 0.423361 0.209139
H4    H     H_    0.643054 0.902111 0.570097 0.181700
H5    H     H_    0.554960 0.321444 0.932400 0.144784
H6    H     H_    0.621753 0.181755 0.044490 0.104503
H7    H     H_    0.054866 0.821610 0.932417 0.144817
H8    H     H_    0.121761 0.681946 0.044475 0.104485
H9    H     H_    0.595810 0.179472 0.928903 0.121237
H10   H     H_    0.580104 0.323508 0.046782 0.146727
H11   H     H_    0.095824 0.679735 0.928887 0.121226
H12   H     H_    0.313773 0.563212 0.449465 0.153926
H13   H     H_    0.080040 0.823634 0.046792 0.146763
H14   H     H_    0.423253 0.333782 0.951231 0.152206
H15   H     H_    0.553091 0.992296 0.054186 0.150710
H16   H     H_    0.923141 0.833632 0.951227 0.152185
H17   H     H_    0.053222 0.492372 0.054174 0.150695
H18   H     H_    0.448659 0.332686 0.065653 0.145780
H19   H     H_    0.526262 0.991264 0.938704 0.132929
H20   H     H_    0.948587 0.832571 0.065648 0.145757
H21   H     H_    0.026431 0.491367 0.938687 0.132888
H22   H     H_    0.435441 0.999583 0.949702 0.147122
H23   H     H_    0.190664 0.058735 0.529921 0.148058
H24   H     H_    0.401707 0.197689 0.071905 0.123700
H25   H     H_    0.935599 0.499451 0.949669 0.147163
H26   H     H_    0.901716 0.697493 0.071911 0.123703
H27   H     H_    0.462337 0.999174 0.065541 0.133768
H28   H     H_    0.375376 0.199784 0.955871 0.116335
H29   H     H_    0.962459 0.499086 0.065510 0.133794
H30   H     H_    0.875379 0.699517 0.955876 0.116334
H31   H     H_    0.647895 0.444684 0.567205 0.125430
H32   H     H_    0.350485 0.429630 0.443342 0.111450
H33   H     H_    0.147895 0.944681 0.567205 0.125430
H34   H     H_    0.813773 0.063212 0.449465 0.153927
H35   H     H_    0.850484 0.929628 0.443342 0.111450
H36   H     H_    0.630598 0.344293 0.465810 0.100348
H37   H     H_    0.365274 0.406016 0.556779 0.127829
H38   H     H_    0.130597 0.844294 0.465809 0.100351
H39   H     H_    0.865274 0.906013 0.556778 0.127829
H40   H     H_    0.647553 0.480384 0.426656 0.186151
H41   H     H_    0.321809 0.540383 0.568213 0.222447
H42   H     H_    0.147553 0.980386 0.426656 0.186146
H43   H     H_    0.821810 0.040382 0.568213 0.222447
H44   H     H_    0.333241 0.053288 0.532017 0.101826
H45   H     H_    0.810253 0.225875 0.483139 0.171074
H46   H     H_    0.652323 0.050086 0.452623 0.078264
H47   H     H_    0.833241 0.553288 0.532017 0.101845
H48   H     H_    0.152322 0.550084 0.452623 0.078264
H49   H     H_    0.701265 0.264331 0.578703 0.204568
H50   H     H_    0.297139 0.261602 0.428018 0.157095
H51   H     H_    0.201266 0.764330 0.578704 0.204569
H52   H     H_    0.797138 0.761599 0.428019 0.157112
H53   H     H_    0.722712 0.176745 0.475759 0.123162
H54   H     H_    0.295748 0.217128 0.542895 0.083923
H55   H     H_    0.222711 0.676746 0.475759 0.123162
H56   H     H_    0.202404 0.229121 0.536867 0.177381
H57   H     H_    0.795745 0.717125 0.542895 0.083930
H58   H     H_    0.964572 0.273772 0.527777 0.353196
H59   H     H_    0.048756 0.235941 0.456503 0.348373
H60   H     H_    0.464573 0.773772 0.527780 0.353199
H61   H     H_    0.548754 0.735945 0.456506 0.348374
H62   H     H_    0.327274 0.079269 0.398399 0.322314
H63   H     H_    0.637132 0.091003 0.575365 0.312956
H64   H     H_    0.827254 0.579252 0.398363 0.322338
H65   H     H_    0.137130 0.591000 0.575364 0.312957
H66   H     H_    0.847290 0.225258 0.597228 0.349943
H67   H     H_    0.310252 0.725875 0.483139 0.171069
H68   H     H_    0.181757 0.157551 0.432271 0.372592
H69   H     H_    0.347290 0.725255 0.597225 0.349943
H70   H     H_    0.681748 0.657559 0.432272 0.372593
H71   H     H_    0.702401 0.729123 0.536867 0.177379
H72   H     H_    0.844244 0.402223 0.423359 0.209119
O1    O     O_R   0.783100 0.287550 0.345460 -0.512653
O2    O     O_R   0.454350 0.284910 0.836260 -0.524003
O3    O     O_R   0.045650 0.784910 0.163740 -0.529891
O4    O     O_R   0.954350 0.784910 0.836260 -0.524007
O5    O     O_R   0.677950 0.374280 0.185410 -0.474408
O6    O     O_R   0.322050 0.374280 0.814590 -0.492477
O7    O     O_R   0.177950 0.874280 0.185410 -0.474411
O8    O     O_R   0.822050 0.874280 0.814590 -0.492475
O9    O     O_3   0.664670 0.164660 0.254930 -0.324365
O10   O     O_3   0.335330 0.164660 0.745070 -0.288363
O11   O     O_3   0.164670 0.664660 0.254930 -0.324368
O12   O     O_R   0.216900 0.287550 0.654540 -0.537702
O13   O     O_3   0.835330 0.664660 0.745070 -0.288357
O14   O     O_R   0.760020 0.037400 0.337700 -0.547487
O15   O     O_R   0.239980 0.037400 0.662300 -0.530591
O16   O     O_R   0.260020 0.537400 0.337700 -0.547489
O17   O     O_R   0.739980 0.537400 0.662300 -0.530590
O18   O     O_R   0.666600 0.921990 0.332020 -0.428639
O19   O     O_R   0.333400 0.921990 0.667980 -0.436218
O20   O     O_R   0.166600 0.421990 0.332020 -0.428639
O21   O     O_R   0.833400 0.421990 0.667980 -0.436224
O22   O     O_R   0.557260 0.082670 0.312540 -0.448388
O23   O     O_R   0.283100 0.787550 0.345460 -0.512644
O24   O     O_R   0.442740 0.082670 0.687460 -0.443479
O25   O     O_R   0.057260 0.582670 0.312540 -0.448387
O26   O     O_R   0.942740 0.582670 0.687460 -0.443483
O27   O     O_R   0.548410 0.285740 0.316480 -0.531223
O28   O     O_R   0.451590 0.285740 0.683520 -0.525859
O29   O     O_R   0.048410 0.785740 0.316480 -0.531221
O30   O     O_R   0.951590 0.785740 0.683520 -0.525861
O31   O     O_R   0.680500 0.375040 0.327000 -0.451915
O32   O     O_R   0.319500 0.375040 0.673000 -0.488850
O33   O     O_R   0.180500 0.875040 0.327000 -0.451910
O34   O     O_R   0.716900 0.787550 0.654540 -0.537702
O35   O     O_R   0.819500 0.875040 0.673000 -0.488849
O36   O     O_R   0.780350 0.286720 0.192720 -0.487502
O37   O     O_R   0.219650 0.286720 0.807280 -0.504286
O38   O     O_R   0.280350 0.786720 0.192720 -0.487501
O39   O     O_R   0.719650 0.786720 0.807280 -0.504284
O40   O     O_R   0.757470 0.036630 0.196110 -0.513522
O41   O     O_R   0.242530 0.036630 0.803890 -0.498969
O42   O     O_R   0.257470 0.536630 0.196110 -0.513519
O43   O     O_R   0.742530 0.536630 0.803890 -0.498970
O44   O     O_R   0.663840 0.921160 0.179280 -0.501518
O45   O     O_R   0.554710 0.081900 0.170950 -0.511279
O46   O     O_R   0.336160 0.921160 0.820720 -0.506000
O47   O     O_R   0.163840 0.421160 0.179280 -0.501525
O48   O     O_R   0.836160 0.421160 0.820720 -0.505996
O49   O     O_2   0.933055 0.435810 0.592368 -0.476937
O50   O     O_R   0.919157 0.308342 0.505654 -0.753326
O51   O     O_2   0.055064 0.428106 0.408488 -0.474009
O52   O     O_R   0.091608 0.277448 0.478539 -0.745118
O53   O     O_2   0.433055 0.935813 0.592368 -0.476934
O54   O     O_R   0.419158 0.808341 0.505657 -0.753333
O55   O     O_2   0.555064 0.928107 0.408487 -0.474005
O56   O     O_R   0.445290 0.081900 0.829050 -0.512691
O57   O     O_R   0.591605 0.777453 0.478542 -0.745130
O58   O     O_3   0.283480 0.047249 0.412857 -0.702528
O59   O     O_3   0.686049 0.063313 0.577379 -0.714477
O60   O     O_3   0.783472 0.547253 0.412860 -0.702554
O61   O     O_3   0.186048 0.563311 0.577378 -0.714483
O62   O     O_3   0.800159 0.221552 0.611589 -0.656010
O63   O     O_3   0.194652 0.225650 0.405545 -0.618115
O64   O     O_3   0.300161 0.721554 0.611589 -0.656012
O65   O     O_3   0.694649 0.725651 0.405544 -0.618120
O66   O     O_R   0.054710 0.581900 0.170950 -0.511279
O67   O     O_R   0.945290 0.581900 0.829050 -0.512693
O68   O     O_R   0.545650 0.284910 0.163740 -0.529895

loop_
_geom_bond_atom_site_label_1
_geom_bond_atom_site_label_2
_ccdc_geom_bond_type
C95   H12   S    
C58   C62   S    
Cr5   O12   S    
C46   H40   S    
C39   H25   S    
C17   C26   S    
C77   O2    A    
C9    H52   S    
C8    C26   S    
C32   C45   S    
C87   C93   T    
C67   O31   A    
C1    O14   A    
C51   C74   S    
C21   H3    S    
C34   H30   S    
C27   H71   S    
C85   C91   T    
H69   O64   S    
C28   C45   S    
C82   O37   A    
C13   O15   A    
C26   H67   S    
Cr10  O66   S    
C15   C19   S    
C41   C86   S    
H58   O50   S    
Cr2   O2    S    
C71   O34   A    
C63   C81   S    
C44   O30   A    
C94   H31   S    
C38   H18   S    
C83   O7    A    
C28   C29   S    
H70   O65   S    
C4    C21   S    
C47   C76   S    
C32   H28   S    
C68   H42   S    
C52   C61   T    
C30   C31   S    
C65   C83   S    
C54   C63   T    
C10   C94   S    
Cr11  O67   S    
C56   C65   T    
C72   O40   A    
Cr4   O13   S    
C7    O63   S    
C11   C24   S    
C33   H15   S    
C71   O35   A    
C49   C78   S    
Cr10  O20   S    
C3    O57   S    
Cr12  O31   S    
C32   H14   S    
C41   O22   A    
H60   O54   S    
C22   O59   S    
Cr8   O18   S    
Cr9   O56   S    
Cr12  O5    S    
H66   O62   S    
C83   O38   A    
C58   C66   T    
H65   O61   S    
C5    C22   S    
C88   C92   T    
C18   C79   S    
C21   O58   S    
C80   O67   A    
C57   H37   S    
C64   C82   S    
C77   O56   A    
Cr6   O42   S    
C42   O24   A    
C10   C35   S    
Cr5   O41   S    
C89   C91   S    
C44   C87   S    
C5    C14   S    
Cr11  O21   S    
C54   C59   S    
C8    C12   S    
Cr9   O46   S    
H64   O60   S    
C22   H4    S    
C40   H20   S    
C50   C75   S    
C95   H32   S    
C23   H53   S    
C55   C60   S    
C82   O6    A    
Cr11  O48   S    
C97   H35   S    
C69   O32   A    
Cr3   O11   S    
C31   C49   S    
Cr1   O1    S    
C1    O18   A    
Cr2   O10   S    
C73   O46   A    
C94   H1    S    
Cr1   O9    S    
Cr12  O68   S    
C96   H23   S    
Cr7   O39   S    
H59   O52   S    
C25   H56   S    
Cr5   O10   S    
Cr4   O4    S    
C7    H50   S    
C46   H36   S    
C26   H55   S    
C70   O33   A    
C16   C69   S    
C2    C20   S    
Cr12  O27   S    
Cr9   O19   S    
C8    O64   S    
Cr3   O3    S    
Cr8   O22   S    
C52   C73   S    
Cr6   O23   S    
Cr7   O13   S    
Cr1   O14   S    
C35   O17   A    
Cr8   O44   S    
C35   O21   A    
C70   O23   A    
C81   O36   A    
C57   H41   S    
Cr8   O45   S    
C86   C89   T    
C69   O12   A    
C33   C37   S    
C13   O19   A    
C40   H26   S    
C66   C84   S    
Cr9   O24   S    
C9    O65   S    
C9    C14   S    
H68   O63   S    
Cr4   O35   S    
C27   H57   S    
C96   H33   S    
H61   O57   S    
Cr7   O34   S    
C99   O51   D    
C53   C62   T    
C7    C11   S    
C98   O50   S    
C6    H49   S    
C16   C20   S    
C15   C67   S    
C29   H10   S    
C80   O4    A    
C100  O53   D    
C43   C88   S    
C42   C85   S    
C68   C96   S    
C12   C13   S    
C100  O54   S    
Cr12  O9    S    
C81   O5    A    
C38   C47   S    
C19   O60   S    
Cr3   O33   S    
Cr9   O10   S    
Cr1   O40   S    
Cr2   O32   S    
C20   O61   S    
C4    H44   S    
C29   C47   S    
C2    C99   S    
C38   H24   S    
C4    C100  S    
C76   O68   A    
C72   O44   A    
C18   C71   S    
C33   C47   S    
C34   C40   S    
C51   C60   T    
Cr10  O25   S    
C4    C12   S    
C50   C59   T    
C37   C45   S    
C43   O29   A    
C3    C5    S    
C30   H7    S    
Cr10  O11   S    
C42   O28   A    
C9    C27   S    
C14   C97   S    
Cr6   O16   S    
C39   H21   S    
C79   H39   S    
C30   C48   S    
C16   C25   S    
C36   H29   S    
Cr3   O29   S    
C24   O20   A    
C17   C68   S    
C46   C94   S    
C18   C22   S    
C6    O62   S    
C36   C39   S    
C18   C27   S    
C74   O47   A    
H63   O59   S    
C84   O39   A    
C19   H72   S    
C6    C10   S    
C45   C77   S    
C8    H51   S    
C34   H16   S    
C79   C97   S    
Cr6   O11   S    
C1    C14   S    
C55   C64   T    
C25   H54   S    
C29   H6    S    
Cr3   O7    S    
C34   C48   S    
C32   C38   S    
C7    C25   S    
C28   H5    S    
C48   C80   S    
C78   O66   A    
C75   O43   A    
Cr11  O26   S    
Cr4   O30   S    
C74   O42   A    
C19   C90   S    
C36   H17   S    
Cr11  O13   S    
C73   O41   A    
C99   O52   S    
Cr1   O36   S    
Cr2   O28   S    
C40   C49   S    
Cr6   O38   S    
C98   O49   D    
C33   H27   S    
Cr5   O37   S    
C6    C23   S    
C23   H45   S    
C15   C23   S    
C92   C93   S    
Cr2   O6    S    
C90   C98   S    
C84   O8    A    
C44   O26   A    
C16   C57   S    
Cr7   O17   S    
C90   H47   S    
C75   O48   A    
C43   O25   A    
C17   C21   S    
C31   H8    S    
C68   H38   S    
Cr10  O47   S    
H62   O58   S    
C79   H43   S    
C41   O27   A    
C97   H34   S    
C37   H19   S    
Cr7   O43   S    
Cr5   O15   S    
C10   C90   S    
C11   C95   S    
C30   H11   S    
C24   O16   A    
C2    H48   S    
C5    H46   S    
C57   C95   S    
C76   O45   A    
C31   H13   S    
C37   H22   S    
C12   C96   S    
C2    C11   S    
C78   O3    A    
C28   H9    S    
C15   C46   S    
Cr8   O9    S    
C20   H2    S    
C53   C72   S    
C17   C70   S    
C56   C61   S    
C36   C49   S    
C67   O1    A    
C3    O55   D    
C39   C48   S    
Cr4   O8    S    
