data_mof_unit_60753.cif
_audit_creation_date              2012-10-26T19:16:51-0400
_audit_creation_method            fapswitch 2.2
_symmetry_space_group_name_H-M    P1
_symmetry_Int_Tables_number       1
_space_group_crystal_system       triclinic
_cell_length_a                    13.903138
_cell_length_b                    14.769217
_cell_length_c                    16.015012
_cell_angle_alpha                 89.92318
_cell_angle_beta                  89.969924
_cell_angle_gamma                 84.861922
_cell_volume                      3275.2807709

loop_
_atom_site_label
_atom_site_type_symbol
_atom_type_description
_atom_site_fract_x
_atom_site_fract_y
_atom_site_fract_z
_atom_type_partial_charge
C1    C     C_R   0.499971 0.499945 0.659106 0.551801
C2    C     C_R   0.438913 0.957340 0.446315 -0.103527
C3    C     C_1   0.500028 0.197285 0.499984 0.131911
C4    C     C_1   0.499972 0.802715 0.500016 0.131911
C5    C     C_R   0.683476 0.485456 0.499974 0.548121
C6    C     C_R   0.316524 0.514544 0.500026 0.548122
C7    C     C_1   0.213505 0.523449 0.500037 -0.006219
C8    C     C_1   0.786495 0.476551 0.499963 -0.006219
C9    C     C_2   0.023290 0.537539 0.500053 -0.114361
C10   C     C_2   0.976710 0.462461 0.499947 -0.114361
C11   C     C_1   0.873222 0.469486 0.499955 -0.039761
C12   C     C_R   0.500029 0.500055 0.340894 0.551801
C13   C     C_1   0.126778 0.530514 0.500045 -0.039761
C14   C     C_R   0.501320 0.419230 0.045556 -0.068010
C15   C     C_R   0.498680 0.580770 0.954444 -0.068010
C16   C     C_R   0.499965 0.502456 0.087382 -0.021290
C17   C     C_R   0.500035 0.497544 0.912618 -0.021290
C18   C     C_R   0.498624 0.584578 0.041524 0.256014
C19   C     C_R   0.501376 0.415422 0.958476 0.256014
C20   C     C_1   0.499993 0.501249 0.176953 -0.063586
C21   C     C_1   0.500007 0.498751 0.823047 -0.063586
C22   C     C_1   0.499985 0.499600 0.748095 -0.017480
C23   C     C_1   0.500015 0.500400 0.251904 -0.017480
C24   C     C_R   0.438928 0.053121 0.446307 -0.104265
C25   C     C_R   0.561072 0.946879 0.553693 -0.104265
C26   C     C_R   0.500016 0.097135 0.499991 0.003377
C27   C     C_R   0.499984 0.902865 0.500009 0.003377
C28   C     C_R   0.561087 0.042660 0.553684 -0.103527
Cu1   Cu    Cu3+1 0.499970 0.410780 0.500000 1.005083
Cu2   Cu    Cu3+1 0.500030 0.589220 0.500000 1.005083
H1    H     H_    0.015989 0.395448 0.499854 0.141354
H2    H     H_    0.497342 0.663521 0.139667 0.338079
H3    H     H_    0.984011 0.604552 0.500146 0.141354
H4    H     H_    0.502346 0.356455 0.080885 0.154909
H5    H     H_    0.497654 0.643545 0.919115 0.154909
H6    H     H_    0.390993 0.925777 0.404201 0.119230
H7    H     H_    0.609007 0.074223 0.595799 0.119230
H8    H     H_    0.391017 0.092891 0.404188 0.117842
H9    H     H_    0.608983 0.907109 0.595812 0.117842
H10   H     H_    0.502658 0.336479 0.860332 0.338079
N1    N     N_1   0.499970 0.723290 0.500020 -0.188581
N2    N     N_1   0.500030 0.276710 0.499980 -0.188581
O1    O     O_R   0.499950 0.424680 0.619690 -0.489544
O2    O     O_3   0.497245 0.669392 0.078158 -0.684293
O3    O     O_R   0.500050 0.575320 0.380310 -0.489544
O4    O     O_R   0.500000 0.575360 0.619690 -0.488515
O5    O     O_R   0.500000 0.424640 0.380310 -0.488515
O6    O     O_R   0.637820 0.414010 0.499980 -0.488934
O7    O     O_R   0.362180 0.585990 0.500020 -0.488934
O8    O     O_R   0.637870 0.564690 0.499980 -0.489357
O9    O     O_R   0.362130 0.435310 0.500020 -0.489357
O10   O     O_3   0.502755 0.330608 0.921841 -0.684293

loop_
_geom_bond_atom_site_label_1
_geom_bond_atom_site_label_2
_ccdc_geom_bond_type
C14   H4    S    
C15   C18   A    
C24   H8    S    
Cu2   N1    S    
C2    C27   A    
C18   O2    S    
C6    O9    A    
C25   C27   A    
C9    C10   D    
Cu2   O3    S    
C26   C28   A    
C20   C23   T    
Cu2   O4    S    
C16   C20   S    
Cu1   O9    S    
Cu2   O8    S    
C1    C22   S    
C3    N2    T    
C21   C22   T    
Cu1   O1    S    
C25   C28   A    
C9    H3    S    
C12   C23   S    
C1    O4    A    
Cu1   Cu2   S    
C28   H7    S    
Cu1   O5    S    
C8    C11   T    
C14   C19   A    
C15   H5    S    
C17   C19   A    
Cu2   O7    S    
C24   C26   A    
C19   O10   S    
C6    C7    S    
C12   O5    A    
C6    O7    A    
C2    C24   A    
Cu1   N2    S    
C5    O6    A    
C14   C16   A    
C5    O8    A    
C5    C8    S    
C4    N1    T    
Cu1   O6    S    
C7    C13   T    
C4    C27   S    
H2    O2    S    
C16   C18   A    
C10   C11   S    
C2    H6    S    
C15   C17   A    
C9    C13   S    
H10   O10   S    
C10   H1    S    
C1    O1    A    
C3    C26   S    
C25   H9    S    
C12   O3    A    
C17   C21   S    
