data_mof_unit_46298.cif
_audit_creation_date              2012-12-10T17:30:20-0500
_audit_creation_method            fapswitch 2.2
_symmetry_space_group_name_H-M    P1
_symmetry_Int_Tables_number       1
_space_group_crystal_system       triclinic
_cell_length_a                    11.952841
_cell_length_b                    12.809315
_cell_length_c                    15.001451
_cell_angle_alpha                 90.038363
_cell_angle_beta                  85.238988
_cell_angle_gamma                 94.504884
_cell_volume                      2281.80183611

loop_
_atom_site_label
_atom_site_type_symbol
_atom_type_description
_atom_site_fract_x
_atom_site_fract_y
_atom_site_fract_z
_atom_type_partial_charge
Br1   Br    Br    0.143386 0.437163 0.926664 -0.441644
Br2   Br    Br    0.821849 0.671598 0.075209 -0.384897
Br3   Br    Br    0.600749 0.193302 0.648294 -0.472829
Br4   Br    Br    0.403545 0.804711 0.348078 -0.421229
Br5   Br    Br    0.780978 0.037773 0.569264 -0.432871
Br6   Br    Br    0.223211 0.963034 0.421828 -0.435348
C1    C     C_R   0.523517 0.700595 0.497626 0.973129
C2    C     C_R   0.375107 0.137496 0.454330 0.411359
C3    C     C_R   0.466844 0.868673 0.452031 0.250220
C4    C     C_R   0.535055 0.130950 0.544670 0.237926
C5    C     C_R   0.458487 0.974012 0.473175 -0.145862
C6    C     C_R   0.544032 0.026198 0.522126 -0.139395
C7    C     C_R   0.954126 0.398509 0.419188 0.420794
C8    C     C_R   0.045865 0.601291 0.581044 0.428089
C9    C     C_R   0.837591 0.409547 0.426498 -0.047511
C10   C     C_R   0.162273 0.589614 0.574309 -0.015904
C11   C     C_R   0.858059 0.543223 0.534663 0.010192
C12   C     C_R   0.476573 0.299385 0.502277 0.951797
C13   C     C_R   0.142006 0.457219 0.464965 -0.004030
C14   C     C_R   0.975710 0.536598 0.529441 -0.101344
C15   C     C_R   0.024331 0.463669 0.470363 -0.092679
C16   C     C_R   0.498940 0.499135 0.673392 0.904183
C17   C     C_R   0.500964 0.500952 0.326282 0.916463
C18   C     C_R   0.602927 0.535719 0.176545 0.544065
C19   C     C_R   0.397350 0.469303 0.822155 0.525801
C20   C     C_R   0.502645 0.507777 0.229959 -0.198837
C21   C     C_R   0.496267 0.502649 0.769310 -0.195462
C22   C     C_R   0.400651 0.489466 0.192132 -0.270255
C23   C     C_R   0.290220 0.467332 0.970589 0.225207
C24   C     C_R   0.591810 0.544123 0.807102 -0.280742
C25   C     C_R   0.395807 0.496266 0.100633 -0.008823
C26   C     C_R   0.592623 0.551459 0.898918 0.002125
C27   C     C_R   0.495348 0.524873 0.046132 -0.074260
C28   C     C_R   0.492783 0.522116 0.953311 -0.079236
C29   C     C_R   0.598078 0.553253 0.084539 -0.121725
C30   C     C_R   0.391795 0.486288 0.914870 -0.121053
C31   C     C_R   0.292465 0.474785 0.063283 0.440271
C32   C     C_R   0.691598 0.589385 0.936639 0.439038
C33   C     C_3   0.755334 0.447721 0.200523 -0.204360
C34   C     C_R   0.692840 0.595214 0.029427 0.208288
C35   C     C_3   0.323395 0.312079 0.775411 -0.164991
C36   C     C_3   0.984774 0.227800 0.396781 -0.177502
C37   C     C_3   0.014581 0.771884 0.602954 -0.183656
C38   C     C_3   0.146520 0.546844 0.140917 -0.173962
C39   C     C_3   0.857007 0.544416 0.867502 -0.170786
C40   C     C_3   0.324539 0.216468 0.330170 -0.230543
C41   C     C_3   0.680866 0.788754 0.667354 -0.227704
C42   C     C_R   0.459906 0.187455 0.501842 -0.296761
C43   C     C_R   0.540875 0.812487 0.496405 -0.286467
C44   C     C_R   0.635272 0.971522 0.546516 0.273886
C45   C     C_R   0.367624 0.028999 0.448229 0.265276
C46   C     C_R   0.626902 0.862993 0.542277 0.410702
H1    H     H_    0.324894 0.466159 0.234473 0.215525
H2    H     H_    0.330415 0.276422 0.842205 0.163652
H3    H     H_    0.398520 0.298157 0.729530 0.156959
H4    H     H_    0.249021 0.271859 0.746850 0.207537
H5    H     H_    0.025441 0.224893 0.460823 0.198637
H6    H     H_    0.025993 0.172715 0.349949 0.223767
H7    H     H_    0.893990 0.200266 0.407283 0.178070
H8    H     H_    0.974321 0.827246 0.650079 0.223522
H9    H     H_    0.972518 0.774385 0.539535 0.201096
H10   H     H_    0.105270 0.799387 0.591151 0.175532
H11   H     H_    0.203286 0.598417 0.180118 0.165449
H12   H     H_    0.666117 0.570148 0.764139 0.206664
H13   H     H_    0.067127 0.528396 0.183639 0.207800
H14   H     H_    0.125185 0.589426 0.080729 0.196630
H15   H     H_    0.932358 0.574113 0.824005 0.240940
H16   H     H_    0.814808 0.477716 0.832332 0.151203
H17   H     H_    0.886590 0.516602 0.931090 0.195022
H18   H     H_    0.327854 0.143559 0.289975 0.194558
H19   H     H_    0.406724 0.264105 0.321093 0.115620
H20   H     H_    0.260023 0.263182 0.303938 0.207329
H21   H     H_    0.599039 0.741053 0.679306 0.124046
H22   H     H_    0.678389 0.863429 0.705170 0.199159
H23   H     H_    0.181736 0.402398 0.420072 0.192982
H24   H     H_    0.746748 0.743994 0.693868 0.214728
H25   H     H_    0.818357 0.598270 0.579354 0.188462
H26   H     H_    0.216659 0.637180 0.615061 0.156268
H27   H     H_    0.783000 0.360925 0.386748 0.138448
H28   H     H_    0.773406 0.431610 0.128078 0.157154
H29   H     H_    0.701993 0.380958 0.233045 0.131049
H30   H     H_    0.837017 0.453559 0.230962 0.206136
N1    N     N_R   0.207800 0.519350 0.516680 -0.135349
N2    N     N_R   0.792200 0.480650 0.483320 -0.125687
O1    O     O_R   0.421700 0.658830 0.504450 -0.611614
O2    O     O_3   0.307439 0.419878 0.782233 -0.567409
O3    O     O_3   0.999474 0.328912 0.358473 -0.639414
O4    O     O_3   0.000600 0.670980 0.641702 -0.639376
O5    O     O_3   0.194003 0.452070 0.117585 -0.591071
O6    O     O_3   0.785798 0.626619 0.882502 -0.595165
O7    O     O_3   0.293277 0.193908 0.421273 -0.576882
O8    O     O_3   0.709072 0.806949 0.575228 -0.578623
O9    O     O_R   0.578300 0.341170 0.495550 -0.604860
O10   O     O_R   0.609310 0.646410 0.493750 -0.571109
O11   O     O_R   0.390690 0.353590 0.506250 -0.582195
O12   O     O_R   0.406180 0.506230 0.637500 -0.583544
O13   O     O_R   0.593820 0.493770 0.362500 -0.585764
O14   O     O_R   0.593800 0.493820 0.626800 -0.621548
O15   O     O_R   0.406200 0.506180 0.373200 -0.622881
O16   O     O_3   0.704864 0.543180 0.214486 -0.554849
Zn1   Zn    Zn3+2 0.374730 0.508290 0.507150 1.005950
Zn2   Zn    Zn3+2 0.625270 0.491710 0.492850 1.011303

loop_
_geom_bond_atom_site_label_1
_geom_bond_atom_site_label_2
_ccdc_geom_bond_type
C17   O15   A    
C16   O14   A    
C24   H12   S    
N2    Zn2   S    
C41   O8    S    
C38   H14   S    
C36   H6    S    
C35   O2    S    
C23   C30   A    
C37   O4    S    
C13   C15   A    
C18   C20   A    
C41   H24   S    
C11   C14   A    
C17   C20   S    
C35   H3    S    
C9    H27   S    
C39   H15   S    
C44   C46   A    
C25   C27   A    
C26   C32   A    
Br6   C45   S    
C41   H21   S    
C40   H20   S    
O13   Zn2   S    
C32   C34   A    
O12   Zn1   S    
C21   C24   A    
C12   O11   A    
C38   H13   S    
C13   N1    A    
C36   H5    S    
C11   H25   S    
C38   H11   S    
C18   C29   A    
C39   H17   S    
C8    C14   A    
C3    C43   A    
C1    C43   S    
C40   O7    S    
O14   Zn2   S    
C10   N1    A    
C25   C31   A    
C26   C28   A    
C36   H7    S    
C2    C42   A    
C35   H4    S    
C22   H1    S    
C43   C46   A    
C7    O3    S    
C39   H16   S    
Br1   C23   S    
C27   C28   A    
C7    C15   A    
C2    O7    S    
C39   O6    S    
C3    C5    A    
C2    C45   A    
C33   H29   S    
C40   H19   S    
C4    C6    A    
C37   H8    S    
C17   O13   A    
C16   C21   S    
C7    C9    A    
C4    C42   A    
C8    C10   A    
Br5   C44   S    
C46   O8    S    
O1    Zn1   S    
C37   H9    S    
C10   H26   S    
C1    O10   A    
N1    Zn1   S    
O15   Zn1   S    
C18   O16   S    
C16   O12   A    
C22   C25   A    
C33   H30   S    
C12   C42   S    
O9    Zn2   S    
C6    C44   A    
C5    C6    A    
C9    N2    A    
C19   C21   A    
C32   O6    S    
C20   C22   A    
C31   O5    S    
C11   N2    A    
C33   H28   S    
C13   H23   S    
C29   C34   A    
C8    O4    S    
Br3   C4    S    
C24   C26   A    
C33   O16   S    
C1    O1    A    
C19   O2    S    
C27   C29   A    
C28   C30   A    
C41   H22   S    
C35   H2    S    
C40   H18   S    
C5    C45   A    
C19   C30   A    
Br2   C34   S    
C14   C15   A    
O10   Zn2   S    
C23   C31   A    
C12   O9    A    
C36   O3    S    
Br4   C3    S    
C38   O5    S    
O11   Zn1   S    
C37   H10   S    
