data_mof_unit_13918.cif
_audit_creation_date              2012-12-10T16:50:12-0500
_audit_creation_method            fapswitch 2.2
_symmetry_space_group_name_H-M    P1
_symmetry_Int_Tables_number       1
_space_group_crystal_system       triclinic
_cell_length_a                    7.777023
_cell_length_b                    8.589488
_cell_length_c                    10.623289
_cell_angle_alpha                 90.589998
_cell_angle_beta                  85.861004
_cell_angle_gamma                 93.61765
_cell_volume                      706.369592782

loop_
_atom_site_label
_atom_site_type_symbol
_atom_type_description
_atom_site_fract_x
_atom_site_fract_y
_atom_site_fract_z
_atom_type_partial_charge
C1    C     C_R   0.546060 0.794273 0.499465 0.896163
C2    C     C_R   0.454829 0.205346 0.504559 0.997961
C3    C     C_R   0.499281 0.507979 0.260630 0.973130
C4    C     C_R   0.415665 0.786092 0.869603 -0.380592
C5    C     C_R   0.365828 0.918907 0.935017 0.509295
C6    C     C_R   0.357814 0.921371 0.066081 0.522046
C7    C     C_R   0.400060 0.791158 0.132379 0.432329
C8    C     C_R   0.449885 0.653750 0.067382 -0.128909
C9    C     C_R   0.456901 0.652064 0.934900 -0.058224
C10   C     C_R   0.509145 0.516535 0.870845 0.006258
C11   C     C_R   0.561295 0.388113 0.932638 -0.116765
C12   C     C_R   0.555432 0.388965 0.061314 -0.135482
C13   C     C_R   0.497748 0.518299 0.128121 -0.038361
C14   C     C_2   0.572276 0.956841 0.501239 0.462030
C15   C     C_2   0.432895 0.041875 0.508138 -0.394761
C16   C     C_R   0.502618 0.502842 0.739210 0.856416
F1    F     F_    0.326569 0.046062 0.870729 -0.638630
F2    F     F_    0.310401 0.051407 0.129731 -0.613512
F3    F     F_    0.393827 0.803478 0.259327 -0.648257
F4    F     F_    0.739129 0.017585 0.495100 -0.624894
H1    H     H_    0.602106 0.285542 0.881101 0.180373
H2    H     H_    0.986339 0.617437 0.594134 0.204968
H3    H     H_    0.423899 0.790417 0.767725 0.187046
H4    H     H_    0.593913 0.287287 0.109414 0.181186
H5    H     H_    0.300926 0.990962 0.514404 0.189498
H6    H     H_    0.013675 0.382582 0.405859 0.223649
N1    N     N_2   0.950330 0.457950 0.466250 -0.144235
N2    N     N_2   0.049670 0.542050 0.533750 -0.152890
O1    O     O_R   0.389250 0.738570 0.508280 -0.620556
O2    O     O_R   0.678390 0.711630 0.486650 -0.590898
O3    O     O_R   0.355400 0.513470 0.694050 -0.607644
O4    O     O_R   0.644540 0.486530 0.672420 -0.640343
O5    O     O_R   0.321610 0.288370 0.513350 -0.614771
O6    O     O_R   0.610750 0.261430 0.491720 -0.543127
O7    O     O_R   0.355460 0.513470 0.327580 -0.573114
O8    O     O_R   0.644600 0.486530 0.305950 -0.630472
Zn1   Zn    Zn3+2 0.306930 0.517990 0.514440 1.034875
Zn2   Zn    Zn3+2 0.693070 0.482010 0.485560 1.039211

loop_
_geom_bond_atom_site_label_1
_geom_bond_atom_site_label_2
_ccdc_geom_bond_type
C11   C12   A    
C6    C7    A    
O4    Zn2   S    
C16   O4    A    
C9    C10   A    
C12   H4    S    
C3    C13   S    
C3    O7    A    
C2    O6    A    
C1    O1    A    
C7    C8    A    
C10   C16   S    
C16   O3    A    
C2    C15   S    
H6    N1    S    
C8    C13   A    
C3    O8    A    
N2    Zn1   S    
C2    O5    A    
O8    Zn2   S    
C1    O2    A    
O7    Zn1   S    
C7    F3    S    
C5    C6    A    
C6    F2    S    
C15   H5    S    
C5    F1    S    
C10   C11   A    
N1    Zn2   S    
C14   F4    S    
C12   C13   A    
O2    Zn2   S    
O1    Zn1   S    
N1    N2    D    
C4    H3    S    
C14   C15   D    
C8    C9    A    
H2    N2    S    
C1    C14   S    
C4    C9    A    
O6    Zn2   S    
C11   H1    S    
O5    Zn1   S    
O3    Zn1   S    
C4    C5    A    
