data_mof_unit_25455.cif
_audit_creation_date              2012-10-26T21:02:39-0400
_audit_creation_method            fapswitch 2.2
_symmetry_space_group_name_H-M    P1
_symmetry_Int_Tables_number       1
_space_group_crystal_system       triclinic
_cell_length_a                    12.328778
_cell_length_b                    13.394986
_cell_length_c                    15.054441
_cell_angle_alpha                 77.022269
_cell_angle_beta                  101.798315
_cell_angle_gamma                 116.580645
_cell_volume                      2151.10692561

loop_
_atom_site_label
_atom_site_type_symbol
_atom_type_description
_atom_site_fract_x
_atom_site_fract_y
_atom_site_fract_z
_atom_type_partial_charge
C1    C     C_R   0.854557 0.287913 0.505261 0.553614
C2    C     C_R   0.892839 0.483238 0.799353 -0.128307
C3    C     C_R   0.000975 0.503190 0.767494 -0.002706
C4    C     C_R   0.000693 0.501181 0.671019 0.562499
C5    C     C_R   0.109176 0.526339 0.827648 -0.088580
C6    C     C_R   0.263097 0.029930 0.433209 -0.118807
C7    C     C_R   0.229301 0.833260 0.468398 -0.007949
C8    C     C_R   0.816631 0.087494 0.548333 -0.101270
C9    C     C_R   0.738026 0.974773 0.568677 -0.113338
C10   C     C_R   0.613119 0.939916 0.545111 -0.085781
C11   C     C_R   0.564323 0.015622 0.493023 0.054897
C12   C     C_R   0.107481 0.521887 0.106766 0.018028
C13   C     C_R   0.643951 0.131149 0.472210 0.022667
C14   C     C_R   0.436610 0.980562 0.467156 0.049358
C15   C     C_R   0.388929 0.062440 0.439061 0.039614
C16   C     C_R   0.145515 0.712772 0.484047 0.541189
C17   C     C_R   0.467407 0.174296 0.412477 -0.112693
C18   C     C_R   0.592415 0.205728 0.421312 -0.095664
C19   C     C_R   0.355007 0.866765 0.465723 0.000890
C20   C     C_R   0.184583 0.916183 0.453223 -0.134012
C21   C     C_R   0.770991 0.167707 0.505011 0.000010
C22   C     C_R   0.352789 0.329753 0.642694 -0.107030
C23   C     C_R   0.781295 0.464707 0.015818 0.209822
C24   C     C_R   0.759099 0.644240 0.375215 0.057999
C25   C     C_R   0.660035 0.672620 0.344695 0.211417
C26   C     C_R   0.554831 0.615338 0.389225 -0.114610
C27   C     C_R   0.547876 0.529627 0.464514 -0.043825
C28   C     C_R   0.000183 0.500538 0.328800 0.545647
C29   C     C_R   0.651741 0.503462 0.492341 0.163171
C30   C     C_R   0.443487 0.470060 0.514565 -0.019570
C31   C     C_R   0.447037 0.385802 0.589018 -0.011181
C32   C     C_R   0.546983 0.359450 0.613036 -0.171000
C33   C     C_R   0.647504 0.417905 0.566411 -0.086572
C34   C     C_R   0.783886 0.464628 0.923305 -0.104267
C35   C     C_R   0.336576 0.490883 0.496175 -0.015284
C36   C     C_R   0.253985 0.357306 0.627188 0.389562
C37   C     C_R   0.106908 0.519821 0.199481 -0.109789
C38   C     C_R   0.999912 0.501239 0.231794 -0.018067
C39   C     C_R   0.892424 0.483976 0.171528 -0.091406
C40   C     C_R   0.889518 0.483741 0.078044 0.004282
C41   C     C_R   0.998715 0.503195 0.045851 0.029036
C42   C     C_2   0.396793 0.792441 0.436594 0.237217
C43   C     C_R   0.891652 0.484018 0.891599 -0.025514
C44   C     C_R   0.999706 0.504077 0.952674 0.052734
C45   C     C_R   0.109041 0.525266 0.920418 0.022302
C46   C     C_R   0.216314 0.544855 0.981333 -0.083954
C47   C     C_R   0.215402 0.542647 0.074094 -0.088662
Cu1   Cu    Cu3+1 0.098270 0.475420 0.521130 1.030981
Cu2   Cu    Cu3+1 0.901730 0.524580 0.478870 0.942343
H1    H     H_    0.190250 0.534309 0.246310 0.137775
H2    H     H_    0.811329 0.469453 0.198930 0.210103
H3    H     H_    0.324091 0.549142 0.437386 0.127139
H4    H     H_    0.840510 0.687763 0.340835 0.153466
H5    H     H_    0.479967 0.638949 0.363787 0.164492
H6    H     H_    0.720619 0.393768 0.592066 0.185287
H7    H     H_    0.701564 0.449600 0.875396 0.160012
H8    H     H_    0.809261 0.466137 0.752509 0.122260
H9    H     H_    0.193712 0.546482 0.802051 0.167816
H10   H     H_    0.300643 0.561100 0.957331 0.169186
H11   H     H_    0.299153 0.557348 0.120317 0.167600
H12   H     H_    0.431854 0.236615 0.381504 0.134949
H13   H     H_    0.088186 0.892940 0.452178 0.141281
H14   H     H_    0.406656 0.722709 0.484432 0.097963
H15   H     H_    0.978613 0.241524 0.753634 0.359411
H16   H     H_    0.858004 0.866002 0.229784 0.337018
H17   H     H_    0.599191 0.265690 0.106864 0.354544
H18   H     H_    0.225930 0.092421 0.414650 0.125467
H19   H     H_    0.912937 0.112633 0.571894 0.181345
H20   H     H_    0.555544 0.854047 0.571509 0.098811
H21   H     H_    0.773655 0.914874 0.606888 0.137651
H22   H     H_    0.645940 0.289183 0.387968 0.177545
H23   H     H_    0.549095 0.294512 0.670457 0.120457
H24   H     H_    0.360572 0.268031 0.701085 0.165219
N1    N     N_R   0.246280 0.438190 0.553160 -0.259435
N2    N     N_R   0.754320 0.561190 0.447410 -0.274888
O1    O     O_R   0.972510 0.318130 0.526570 -0.441425
O2    O     O_2   0.166383 0.183313 0.761559 -0.289147
O3    O     O_2   0.213959 0.370551 0.790071 -0.285564
O4    O     O_3   0.010588 0.264240 0.693533 -0.508992
O5    O     O_2   0.550649 0.740657 0.186841 -0.210961
O6    O     O_2   0.680578 0.882557 0.285772 -0.248542
O7    O     O_3   0.785791 0.814650 0.193792 -0.474488
O8    O     O_2   0.658083 0.541920 0.088374 -0.205355
O9    O     O_2   0.541360 0.420327 0.971322 -0.246362
O10   O     O_3   0.599764 0.327268 0.133369 -0.511986
O11   O     O_R   0.806530 0.359650 0.490890 -0.549050
O12   O     O_R   0.082980 0.479210 0.647590 -0.424107
O13   O     O_R   0.917000 0.520730 0.611900 -0.530935
O14   O     O_R   0.193470 0.640350 0.509110 -0.529871
O15   O     O_R   0.027490 0.681870 0.473430 -0.509809
O16   O     O_R   0.083000 0.479270 0.388100 -0.517685
O17   O     O_R   0.917020 0.520790 0.352410 -0.508441
O18   O     O_2   0.424383 0.812077 0.359126 -0.449632
S1    S     S_3+6 0.159499 0.293477 0.718714 0.042052
S2    S     S_3+6 0.667100 0.780283 0.251057 0.055169
S3    S     S_3+6 0.641208 0.440433 0.050654 0.023213

loop_
_geom_bond_atom_site_label_1
_geom_bond_atom_site_label_2
_ccdc_geom_bond_type
C33   H6    S    
C39   H2    S    
C35   N1    A    
C1    C21   S    
C46   H10   S    
C27   C29   A    
C42   O18   D    
Cu1   O1    S    
Cu2   O15   S    
H17   O10   S    
C2    H8    S    
C32   H23   S    
C4    O12   A    
C45   C46   A    
C16   O15   A    
C26   C27   A    
C37   C38   A    
C5    H9    S    
C30   C31   A    
O6    S2    D    
C11   C14   A    
C23   C40   A    
C29   C33   A    
O2    S1    D    
C18   H22   S    
C23   S3    S    
O9    S3    D    
C12   C37   A    
C17   H12   S    
C47   H11   S    
Cu2   O11   S    
C8    C9    A    
Cu1   O16   S    
Cu2   N2    S    
C9    C10   A    
C19   C42   S    
C34   H7    S    
C6    C15   A    
C16   O14   A    
C27   C30   A    
Cu2   O13   S    
C12   C47   A    
C26   H5    S    
C17   C18   A    
C22   C31   A    
Cu1   N1    S    
C9    H21   S    
O4    S1    S    
C39   C40   A    
C24   H4    S    
C5    C45   A    
C43   C44   A    
C12   C41   A    
C31   C32   A    
C28   C38   S    
C2    C43   A    
C23   C34   A    
C41   C44   A    
C8    C21   A    
Cu1   O12   S    
C13   C21   A    
C28   O17   A    
C24   C25   A    
O5    S2    D    
C36   N1    A    
C4    O13   A    
C13   C18   A    
Cu1   Cu2   S    
C25   S2    S    
C7    C19   A    
Cu1   O14   S    
H15   O4    S    
Cu2   O17   S    
C3    C4    S    
C30   C35   A    
C6    C20   A    
C44   C45   A    
C1    O11   A    
C15   C17   A    
C46   C47   A    
C7    C16   S    
O7    S2    S    
C1    O1    A    
C14   C19   A    
C34   C43   A    
C3    C5    A    
C24   N2    A    
C8    H19   S    
C29   N2    A    
C22   C36   A    
C32   C33   A    
C2    C3    A    
C25   C26   A    
C6    H18   S    
C37   H1    S    
C11   C13   A    
H16   O7    S    
C38   C39   A    
O3    S1    D    
O8    S3    D    
O10   S3    S    
C28   O16   A    
C20   H13   S    
C10   C11   A    
C10   H20   S    
C36   S1    S    
C7    C20   A    
C35   H3    S    
C14   C15   A    
C40   C41   A    
C22   H24   S    
C42   H14   S    
