data_mof_unit_58034.cif
_audit_creation_date              2012-12-11T15:59:49-0500
_audit_creation_method            fapswitch 2.2
_symmetry_space_group_name_H-M    P1
_symmetry_Int_Tables_number       1
_space_group_crystal_system       triclinic
_cell_length_a                    10.765073
_cell_length_b                    10.705964
_cell_length_c                    17.08254
_cell_angle_alpha                 99.422102
_cell_angle_beta                  99.854401
_cell_angle_gamma                 60.669433
_cell_volume                      1683.7395578

loop_
_atom_site_label
_atom_site_type_symbol
_atom_type_description
_atom_site_fract_x
_atom_site_fract_y
_atom_site_fract_z
_atom_type_partial_charge
C1    C     C_R   0.356590 0.768796 0.397223 0.537397
C2    C     C_R   0.844923 0.336510 0.331191 -0.000748
C3    C     C_R   0.355178 0.804032 0.153551 -0.002898
C4    C     C_R   0.369475 0.346534 0.357430 0.565129
C5    C     C_R   0.463518 0.815494 0.209015 0.017049
C6    C     C_R   0.447182 0.834041 0.291416 0.008845
C7    C     C_R   0.265983 0.754992 0.257487 -0.139387
C8    C     C_R   0.267745 0.758638 0.177773 -0.146294
C9    C     C_R   0.589601 0.803547 0.186086 0.012000
C10   C     C_R   0.685378 0.828374 0.243763 -0.132480
C11   C     C_R   0.654550 0.873951 0.322393 -0.117975
C12   C     C_R   0.856619 0.205277 0.200353 0.025452
C13   C     C_R   0.535590 0.877674 0.346364 -0.083369
C14   C     C_R   0.347705 0.801200 0.315768 0.006561
C15   C     C_R   0.300423 0.278189 0.799752 -0.008327
C16   C     C_R   0.780131 0.375136 0.405338 0.543134
C17   C     C_R   0.427276 0.177812 0.763814 0.036080
C18   C     C_R   0.479503 0.227363 0.713484 0.037370
C19   C     C_R   0.250203 0.447965 0.706665 -0.144693
C20   C     C_R   0.211960 0.412097 0.769781 -0.148269
C21   C     C_R   0.507890 0.031483 0.779734 -0.084999
C22   C     C_R   0.646543 0.945734 0.758389 -0.108506
C23   C     C_R   0.869295 0.207744 0.284244 0.026127
C24   C     C_R   0.707723 0.004496 0.720988 -0.113287
C25   C     C_R   0.625181 0.144094 0.698771 -0.081258
C26   C     C_R   0.382559 0.355176 0.676964 -0.003496
C27   C     C_1   0.846382 0.328593 0.705554 -0.059035
C28   C     C_R   0.358410 0.768595 0.627547 0.547374
C29   C     C_1   0.893171 0.293948 0.772258 -0.053693
C30   C     C_1   0.339354 0.809080 0.709597 -0.054087
C31   C     C_1   0.312951 0.837145 0.777537 -0.059347
C32   C     C_R   0.894524 0.307991 0.088825 0.560612
C33   C     C_R   0.319249 0.299979 0.120050 0.561227
C34   C     C_R   0.841944 0.448870 0.297776 -0.146299
C35   C     C_R   0.298827 0.883934 0.082672 0.557398
C36   C     C_R   0.943176 0.273598 0.854620 0.539506
C37   C     C_R   0.279378 0.253559 0.877112 0.520075
C38   C     C_R   0.278781 0.884813 0.857260 0.537907
C39   C     C_R   0.408295 0.375833 0.599970 0.548625
C40   C     C_R   0.777847 0.378185 0.629055 0.537983
C41   C     C_1   0.342946 0.336890 0.274063 -0.035593
C42   C     C_1   0.331872 0.326722 0.203290 -0.036494
C43   C     C_R   0.848991 0.323260 0.167174 -0.002176
C44   C     C_1   0.634522 0.745787 0.107087 0.193916
C45   C     C_R   0.842715 0.442645 0.217471 -0.151920
C46   C     C_R   0.856729 0.083088 0.153781 -0.061006
C47   C     C_R   0.895746 0.958912 0.189032 -0.120009
C48   C     C_R   0.924557 0.957280 0.271593 -0.124914
C49   C     C_R   0.907723 0.081579 0.319163 -0.078735
Cr1   Cr    Cr6+3 0.608100 0.610860 0.522250 1.018571
Cr2   Cr    Cr6+3 0.288890 0.599990 0.488420 1.008315
Cr3   Cr    Cr6+3 0.603040 0.289190 0.489390 1.001020
Cr4   Cr    Cr6+3 0.053960 0.052250 0.967380 1.019522
Cr5   Cr    Cr6+3 0.059890 0.373160 0.992710 1.034421
Cr6   Cr    Cr6+3 0.373370 0.061690 0.991710 1.034830
H1    H     H_    0.830784 0.546994 0.332997 0.153003
H2    H     H_    0.825921 0.081166 0.090249 0.143901
H3    H     H_    0.844545 0.530720 0.195529 0.146841
H4    H     H_    0.904344 0.863504 0.151803 0.104365
H5    H     H_    0.957554 0.860324 0.299300 0.102555
H6    H     H_    0.930222 0.076851 0.383163 0.123849
H7    H     H_    0.199715 0.714613 0.272995 0.142208
H8    H     H_    0.465643 0.982882 0.809734 0.153083
H9    H     H_    0.192357 0.736066 0.135388 0.141059
H10   H     H_    0.786438 0.806964 0.227796 0.101116
H11   H     H_    0.727116 0.898853 0.365779 0.115450
H12   H     H_    0.516102 0.911225 0.408262 0.138372
H13   H     H_    0.176153 0.548142 0.681070 0.146182
H14   H     H_    0.113677 0.489129 0.795213 0.143765
H15   H     H_    0.707685 0.835297 0.773069 0.126688
H16   H     H_    0.817690 0.941014 0.707327 0.118303
H17   H     H_    0.675974 0.185422 0.669593 0.152704
N1    N     N_1   0.670470 0.699862 0.043893 -0.275467
O1    O     O_R   0.749810 0.499790 0.438040 -0.518930
O2    O     O_R   0.411730 0.181020 0.091530 -0.497337
O3    O     O_R   0.365010 0.944360 0.063320 -0.483926
O4    O     O_R   0.477660 0.726260 0.439290 -0.500816
O5    O     O_R   0.159380 0.906670 0.876210 -0.511064
O6    O     O_R   0.930820 0.177420 0.886730 -0.482946
O7    O     O_R   0.910360 0.395420 0.895720 -0.493683
O8    O     O_R   0.186010 0.361730 0.919870 -0.506142
O9    O     O_R   0.400000 0.173010 0.914630 -0.506575
O10   O     O_R   0.354140 0.936940 0.899340 -0.528214
O11   O     O_3   0.162410 0.162370 0.983930 -0.291191
O12   O     O_R   0.298970 0.468800 0.557390 -0.496277
O13   O     O_R   0.260150 0.743000 0.412270 -0.528674
O14   O     O_R   0.297740 0.466550 0.394720 -0.500784
O15   O     O_R   0.488080 0.253500 0.386430 -0.501973
O16   O     O_R   0.722670 0.303800 0.421940 -0.502849
O17   O     O_R   0.751130 0.502220 0.613520 -0.501126
O18   O     O_R   0.478890 0.728510 0.601960 -0.491654
O19   O     O_R   0.261470 0.745430 0.587750 -0.523783
O20   O     O_R   0.489400 0.255930 0.561910 -0.520840
O21   O     O_R   0.723890 0.306050 0.584610 -0.538447
O22   O     O_3   0.500010 0.500010 0.500020 -0.264880
O23   O     O_R   0.171100 0.914680 0.053100 -0.518139
O24   O     O_R   0.941680 0.184840 0.050710 -0.506567
O25   O     O_R   0.922080 0.403420 0.072610 -0.498298
O26   O     O_R   0.196880 0.369150 0.083850 -0.500015

loop_
_geom_bond_atom_site_label_1
_geom_bond_atom_site_label_2
_ccdc_geom_bond_type
C34   H1    S    
C38   O10   A    
C27   C29   T    
C1    O4    A    
C41   C42   T    
C19   C20   A    
C18   C26   A    
Cr2   O12   S    
Cr5   O11   S    
Cr5   O26   S    
C7    C8    A    
C4    O14   A    
C35   O23   A    
C5    C9    A    
C29   C36   S    
Cr4   O11   S    
C16   O1    A    
C33   C42   S    
Cr4   O6    S    
C12   C43   A    
Cr1   O1    S    
C30   C31   T    
C26   C39   S    
C23   C49   A    
C4    C41   S    
C32   O24   A    
Cr3   O22   S    
C19   C26   A    
C39   O20   A    
Cr1   O17   S    
C7    C14   A    
C15   C37   S    
Cr3   O21   S    
C2    C16   S    
C9    C10   A    
C11   H11   S    
Cr6   O2    S    
C2    C34   A    
C16   O16   A    
C21   C22   A    
Cr4   O23   S    
C37   O8    A    
Cr3   O16   S    
C18   C25   A    
Cr2   O13   S    
C33   O2    A    
C48   H5    S    
Cr5   O7    S    
C15   C20   A    
C45   H3    S    
C35   O3    A    
C49   H6    S    
Cr3   O15   S    
C24   C25   A    
C12   C46   A    
C3    C8    A    
C36   O7    A    
Cr2   O14   S    
C25   H17   S    
C38   O5    A    
Cr4   O24   S    
C17   C21   A    
C33   O26   A    
C7    H7    S    
C19   H13   S    
Cr2   O19   S    
C6    C14   A    
C47   C48   A    
C12   C23   A    
C3    C35   S    
C27   C40   S    
C17   C18   A    
Cr3   O20   S    
C28   O19   A    
C34   C45   A    
Cr6   O9    S    
C43   C45   A    
C8    H9    S    
Cr6   O3    S    
C48   C49   A    
C46   H2    S    
C22   C24   A    
C37   O9    A    
C39   O12   A    
Cr6   O10   S    
Cr1   O4    S    
C13   H12   S    
C10   H10   S    
C1    O13   A    
C15   C17   A    
C46   C47   A    
C9    C44   S    
C40   O21   A    
C3    C5    A    
C36   O6    A    
C4    O15   A    
C31   C38   S    
C28   C30   S    
Cr4   O5    S    
C6    C13   A    
C11   C13   A    
C5    C6    A    
C32   C43   S    
C32   O25   A    
C28   O18   A    
C44   N1    T    
Cr1   O22   S    
C21   H8    S    
C10   C11   A    
C47   H4    S    
Cr1   O18   S    
C2    C23   A    
C20   H14   S    
Cr5   O25   S    
C1    C14   S    
C40   O17   A    
Cr6   O11   S    
C22   H15   S    
Cr5   O8    S    
C24   H16   S    
Cr2   O22   S    
