data_mof_unit_52388.cif
_audit_creation_date              2013-03-05T16:04:11-0500
_audit_creation_method            fapswitch 2.2
_symmetry_space_group_name_H-M    P1
_symmetry_Int_Tables_number       1
_space_group_crystal_system       triclinic
_cell_length_a                    19.530298
_cell_length_b                    6.963003
_cell_length_c                    17.673093
_cell_angle_alpha                 90.000051
_cell_angle_beta                  108.721371
_cell_angle_gamma                 90.000719
_cell_volume                      2276.19545962

loop_
_atom_site_label
_atom_site_type_symbol
_atom_site_description
_atom_site_fract_x
_atom_site_fract_y
_atom_site_fract_z
_atom_type_partial_charge
O1    O     O_R   0.561710 0.369960 0.440200 -0.586566
O2    O     O_R   0.061710 0.630040 0.940200 -0.586612
O3    O     O_R   0.412630 0.033330 0.406330 -0.557129
O4    O     O_R   0.912630 0.966670 0.906330 -0.556718
O5    O     O_R   0.438290 0.869790 0.559800 -0.573473
O6    O     O_R   0.938290 0.130210 0.059800 -0.573368
C1    C     C_R   0.385113 0.203716 0.382475 0.959759
C2    C     C_R   0.885115 0.796286 0.882472 0.959835
O7    O     O_R   0.559570 0.039810 0.430640 -0.594671
O8    O     O_R   0.059570 0.960190 0.930640 -0.594717
O9    O     O_R   0.586280 0.876320 0.584290 -0.583510
O10   O     O_R   0.086280 0.123680 0.084290 -0.583475
C3    C     C_R   0.580787 0.208657 0.415855 0.911008
C4    C     C_R   0.080788 0.791344 0.915855 0.910886
O11   O     O_R   0.413720 0.363440 0.415710 -0.601551
O12   O     O_R   0.913720 0.636560 0.915710 -0.601590
O13   O     O_3   0.508590 0.205630 0.550380 -0.230093
O14   O     O_3   0.008590 0.794370 0.050380 -0.230055
V1    V     V_3+5 0.498410 0.928130 0.490650 1.265340
V2    V     V_3+5 0.998410 0.071870 0.990650 1.265553
O15   O     O_R   0.587370 0.546990 0.593670 -0.607777
O16   O     O_R   0.087370 0.453010 0.093670 -0.607774
C5    C     C_R   0.614989 0.717240 0.616658 0.931240
C6    C     C_R   0.114992 0.282763 0.116655 0.931217
O17   O     O_R   0.440430 0.540520 0.569360 -0.565253
O18   O     O_R   0.940430 0.459480 0.069360 -0.565274
C7    C     C_R   0.420002 0.708818 0.586010 0.948031
C8    C     C_R   0.919994 0.291184 0.086000 0.948199
V3    V     V_3+5 0.501590 0.428960 0.509350 1.259636
V4    V     V_3+5 0.001590 0.571040 0.009350 1.259702
O19   O     O_3   0.491410 0.701330 0.449620 -0.238705
O20   O     O_3   0.991410 0.298670 0.949620 -0.238623
C9    C     C_R   0.281448 0.908627 0.675662 0.342893
C10   C     C_R   0.781444 0.091363 0.175657 0.342872
C11   C     C_R   0.326050 0.881561 0.627815 -0.153987
C12   C     C_R   0.826044 0.118433 0.127809 -0.154033
H1    H     H_    0.326959 0.991624 0.584853 0.207686
H2    H     H_    0.826956 0.008365 0.084849 0.207723
C13   C     C_R   0.370859 0.719244 0.635867 -0.225206
C14   C     C_R   0.870850 0.280759 0.135856 -0.225301
C15   C     C_R   0.369274 0.578243 0.693520 -0.038085
C16   C     C_R   0.869261 0.421768 0.193506 -0.038086
C17   C     C_R   0.323458 0.603124 0.739815 -0.168851
C18   C     C_R   0.823447 0.396881 0.239802 -0.168855
H3    H     H_    0.322037 0.492396 0.782403 0.159232
H4    H     H_    0.822025 0.507611 0.282387 0.159241
C19   C     C_R   0.278331 0.764377 0.731089 -0.065072
C20   C     C_R   0.778324 0.235618 0.231081 -0.065043
C21   C     C_R   0.250434 0.722336 0.860015 -0.095148
C22   C     C_R   0.750423 0.277729 0.360000 -0.095148
H5    H     H_    0.306079 0.681290 0.889788 0.124009
H6    H     H_    0.806062 0.318825 0.389767 0.123982
C23   C     C_R   0.202315 0.724997 0.904132 -0.153639
C24   C     C_R   0.702303 0.275079 0.404118 -0.153647
H7    H     H_    0.221538 0.685302 0.966714 0.126499
H8    H     H_    0.721522 0.314833 0.466693 0.126496
C25   C     C_R   0.130389 0.782655 0.868278 -0.110501
C26   C     C_R   0.630386 0.217347 0.368275 -0.110562
C27   C     C_R   0.106715 0.834118 0.787294 -0.135455
C28   C     C_R   0.606718 0.165803 0.287301 -0.135386
H9    H     H_    0.051158 0.877671 0.758535 0.129702
H10   H     H_    0.551167 0.122189 0.258550 0.129760
C29   C     C_R   0.154279 0.826093 0.742467 -0.003158
C30   C     C_R   0.654280 0.173828 0.242471 -0.003176
H11   H     H_    0.134051 0.860956 0.679470 0.134792
H12   H     H_    0.634054 0.138908 0.179479 0.134817
C31   C     C_R   0.227204 0.773594 0.778592 0.159057
C32   C     C_R   0.727198 0.226398 0.278586 0.159044
C33   C     C_R   0.766908 0.627550 0.811275 -0.033133
C34   C     C_R   0.266936 0.372562 0.311247 -0.032778
C35   C     C_R   0.815327 0.779960 0.815093 -0.100542
C36   C     C_R   0.315328 0.220065 0.315095 -0.100715
C37   C     C_R   0.794988 0.913455 0.752269 -0.065042
C38   C     C_R   0.294969 0.086504 0.252297 -0.065275
H13   H     H_    0.831959 0.024412 0.748951 0.167707
H14   H     H_    0.331920 0.975471 0.249008 0.167622
C39   C     C_R   0.729307 0.895075 0.689123 -0.057944
C40   C     C_R   0.229292 0.104884 0.189146 -0.057520
H15   H     H_    0.717251 0.998424 0.640822 0.115693
H16   H     H_    0.217222 0.001478 0.140865 0.115635
C41   C     C_R   0.682122 0.738832 0.685551 -0.180268
C42   C     C_R   0.182127 0.261181 0.185547 -0.180347
C43   C     C_R   0.700272 0.611972 0.750021 0.103677
C44   C     C_R   0.200303 0.388130 0.249986 0.103589
C45   C     C_3   0.703433 0.398521 0.746959 0.042907
C46   C     C_3   0.203487 0.601560 0.246866 0.043226
C47   C     C_3   0.779900 0.415847 0.807365 -0.026206
C48   C     C_3   0.279958 0.584248 0.307275 -0.026523
H17   H     H_    0.701137 0.341068 0.687443 0.118284
H18   H     H_    0.201195 0.658892 0.187333 0.118109
N1    N     N_R   0.243048 0.087320 0.669920 0.223955
O21   O     O_R   0.238131 0.170280 0.733954 -0.427757
O22   O     O_R   0.222054 0.181224 0.602708 -0.364756
N2    N     N_R   0.743052 0.912658 0.169923 0.223944
O23   O     O_R   0.722044 0.818762 0.102710 -0.364781
O24   O     O_R   0.738153 0.829688 0.233962 -0.427782
N3    N     N_R   0.649552 0.309464 0.777687 0.260632
O25   O     O_R   0.634046 0.383434 0.837920 -0.375742
O26   O     O_R   0.612698 0.162580 0.740585 -0.359499
N4    N     N_R   0.149602 0.690708 0.277563 0.260836
O27   O     O_R   0.134097 0.616868 0.337819 -0.375413
O28   O     O_R   0.112719 0.837471 0.240389 -0.359498
N5    N     N_R   0.836172 0.380374 0.769860 0.216484
O29   O     O_R   0.898286 0.308131 0.810552 -0.387139
O30   O     O_R   0.827577 0.440626 0.697594 -0.431032
N6    N     N_R   0.336239 0.619525 0.269762 0.216403
O31   O     O_R   0.398370 0.691717 0.310439 -0.387298
O32   O     O_R   0.327626 0.559170 0.197507 -0.430912
C49   C     C_2   0.793158 0.319320 0.887377 0.712462
H19   H     H_    0.817043 0.399786 0.941955 -0.031184
O33   O     O_2   0.777285 0.151161 0.891620 -0.582732
C50   C     C_2   0.293252 0.680931 0.387264 0.712018
H20   H     H_    0.317507 0.600852 0.441845 -0.030897
O34   O     O_2   0.277029 0.848798 0.391487 -0.582503
C51   C     C_2   0.416188 0.406461 0.711302 0.592434
H21   H     H_    0.450848 0.380682 0.772085 0.037975
O35   O     O_2   0.412418 0.285188 0.660347 -0.540823
C52   C     C_2   0.916169 0.593566 0.211285 0.592468
H22   H     H_    0.950813 0.619382 0.272071 0.037877
O36   O     O_2   0.912408 0.714815 0.160323 -0.540832

loop_
_geom_bond_atom_site_label_1
_geom_bond_atom_site_label_2
_geom_bond_distance
_ccdc_geom_bond_type
C29   H11   1.082690 S    
C45   C47   1.536581 S    
O13   V3    1.702657 S    
O4    C2    1.314762 A    
V1    O19   1.724747 S    
C50   O34   1.219579 D    
N3    O25   1.302716 A    
C13   C15   1.422429 A    
O9    V1    1.997716 S    
C22   C24   1.400656 A    
C38   H14   1.071837 S    
C30   C32   1.409253 A    
C11   H1    1.082960 S    
C44   C46   1.489177 S    
O5    V1    1.989549 S    
O3    C1    1.314788 A    
C9    N1    1.439461 S    
C24   C26   1.401617 A    
C40   H16   1.083021 S    
C25   C27   1.402077 A    
N6    O31   1.296891 A    
C8    C14   1.498574 S    
O12   V4    2.017140 S    
C51   H21   1.085169 S    
C28   H10   1.083315 S    
C19   C31   1.498025 S    
C33   C35   1.408546 A    
O7    C3    1.300659 A    
C52   H22   1.085164 S    
C6    C42   1.483033 S    
C22   C32   1.408822 A    
C41   C43   1.394586 A    
O5    C7    1.305615 A    
O7    V1    1.992348 S    
O6    C8    1.305618 A    
O8    V2    1.992359 S    
C51   O35   1.219361 D    
C22   H6    1.082812 S    
O3    V1    1.990310 S    
O14   V4    1.702654 S    
C46   N4    1.467534 S    
C10   C12   1.407895 A    
C33   C47   1.501125 S    
C39   H15   1.083026 S    
C34   C48   1.501214 S    
C2    O12   1.297474 A    
C15   C17   1.403586 A    
C16   C18   1.403578 A    
C15   C51   1.477893 S    
N4    O28   1.300399 A    
C50   H20   1.082797 S    
N3    O26   1.300410 A    
C18   H4    1.084010 S    
O11   V3    2.017130 S    
C29   C31   1.409261 A    
C23   H7    1.083547 S    
O17   V3    1.992032 S    
C24   H8    1.083531 S    
C27   H9    1.083327 S    
C46   C48   1.536659 S    
C12   C14   1.408393 A    
C36   C38   1.404072 A    
O8    C4    1.300664 A    
C7    C13   1.498575 S    
C1    C36   1.498912 S    
C35   C37   1.404085 A    
C23   C25   1.401637 A    
C16   C52   1.477897 S    
C3    C26   1.473757 S    
C21   H5    1.082826 S    
O15   V3    2.024876 S    
C48   C50   1.511094 S    
C11   C13   1.408395 A    
C33   C43   1.404627 A    
N1    O22   1.301517 A    
C48   N6    1.475083 S    
C40   C42   1.413990 A    
C14   C16   1.422435 A    
C39   C41   1.414009 A    
O10   V2    1.997706 S    
O1    V3    1.990500 S    
N5    O30   1.302963 A    
C20   C32   1.498031 S    
N2    O24   1.301292 A    
C17   H3    1.084023 S    
C47   N5    1.475065 S    
C43   C45   1.489249 S    
O18   V4    1.992023 S    
C42   C44   1.394564 A    
O15   C5    1.311721 A    
C46   H18   1.112705 S    
C9    C19   1.417890 A    
O16   C6    1.311724 A    
O1    C3    1.299356 A    
C37   H13   1.071857 S    
O13   V1    2.180054 S    
C12   H2    1.082959 S    
N1    O21   1.301289 A    
C34   C44   1.404630 A    
V2    O20   1.724752 S    
C4    C25   1.473763 S    
C2    C35   1.498925 S    
C45   H17   1.112715 S    
C21   C31   1.408836 A    
O18   C8    1.301666 A    
C5    C41   1.483016 S    
C10   N2    1.439456 S    
C17   C19   1.405002 A    
C47   C49   1.511069 S    
O17   C7    1.301681 A    
O6    V2    1.989557 S    
O10   C6    1.289451 A    
C27   C29   1.402183 A    
O2    V4    1.990493 S    
C28   C30   1.402178 A    
C49   O33   1.219679 D    
V3    O19   2.148464 S    
O16   V4    2.024894 S    
C49   H19   1.083076 S    
V4    O20   2.148457 S    
N6    O32   1.302958 A    
C21   C23   1.400662 A    
C1    O11   1.297441 A    
O9    C5    1.289446 A    
N4    O27   1.302718 A    
C9    C11   1.407899 A    
O14   V2    2.180060 S    
N2    O23   1.301513 A    
O2    C4    1.299356 A    
C52   O36   1.219378 D    
C45   N3    1.467527 S    
O4    V2    1.990295 S    
C10   C20   1.417888 A    
C38   C40   1.410071 A    
N5    O29   1.296858 A    
C37   C39   1.410084 A    
C34   C36   1.408593 A    
C26   C28   1.402061 A    
C18   C20   1.404998 A    
C30   H12   1.082683 S    
