data_mof_unit_57733.cif
_audit_creation_date              2012-12-10T17:46:58-0500
_audit_creation_method            fapswitch 2.2
_symmetry_space_group_name_H-M    P1
_symmetry_Int_Tables_number       1
_space_group_crystal_system       triclinic
_cell_length_a                    9.937684
_cell_length_b                    10.637052
_cell_length_c                    13.625328
_cell_angle_alpha                 91.597325
_cell_angle_beta                  82.995976
_cell_angle_gamma                 89.940839
_cell_volume                      1428.98368449

loop_
_atom_site_label
_atom_site_type_symbol
_atom_type_description
_atom_site_fract_x
_atom_site_fract_y
_atom_site_fract_z
_atom_type_partial_charge
C1    C     C_R   0.500335 0.739244 0.497376 0.844866
C2    C     C_R   0.558976 0.938046 0.564046 -0.215502
C3    C     C_R   0.559233 0.066500 0.563891 -0.194543
C4    C     C_R   0.475669 0.500378 0.685536 0.870272
C5    C     C_R   0.502163 0.128006 0.490166 -0.099335
C6    C     C_R   0.839525 0.667060 0.628312 -0.128351
C7    C     C_R   0.899421 0.748350 0.691781 -0.164104
C8    C     C_R   0.038550 0.746701 0.692581 -0.176655
C9    C     C_R   0.118751 0.664155 0.629569 -0.145578
C10   C     C_R   0.061808 0.581330 0.563593 0.163588
C11   C     C_R   0.917427 0.581966 0.563248 0.170815
C12   C     C_1   0.457253 0.501619 0.789342 -0.153479
C13   C     C_R   0.938830 0.421758 0.439374 -0.103985
C14   C     C_R   0.081782 0.421911 0.439301 -0.100623
C15   C     C_R   0.500590 0.260593 0.497033 0.866192
C16   C     C_R   0.524333 0.499771 0.314461 0.883801
C17   C     C_1   0.542850 0.501067 0.210714 -0.204937
C18   C     C_2   0.559511 0.503777 0.019063 0.672214
C19   C     C_2   0.442685 0.503609 0.981052 -0.343995
C20   C     C_1   0.445742 0.502708 0.877156 0.111160
C21   C     C_1   0.555064 0.502410 0.122946 -0.090142
C22   C     C_R   0.398982 0.863157 0.333404 -0.171381
C23   C     C_R   0.349234 0.926101 0.256863 -0.127680
C24   C     C_R   0.349475 0.056887 0.256752 -0.133549
C25   C     C_R   0.399524 0.125203 0.333156 -0.187445
C26   C     C_R   0.448674 0.062851 0.412148 0.095637
C27   C     C_R   0.448398 0.931005 0.412292 0.098513
C28   C     C_R   0.501666 0.871339 0.490460 -0.085088
F1    F     F_    0.681281 0.504134 0.961164 -0.644945
H1    H     H_    0.345595 0.503093 0.027487 0.126075
H2    H     H_    0.312174 0.105576 0.196719 0.139754
H3    H     H_    0.401212 0.226496 0.328631 0.141338
H4    H     H_    0.601233 0.118357 0.622648 0.159626
H5    H     H_    0.893679 0.357717 0.389816 0.150451
H6    H     H_    0.732205 0.673923 0.632751 0.193987
H7    H     H_    0.837208 0.812758 0.740927 0.153432
H8    H     H_    0.084779 0.809656 0.742440 0.153952
H9    H     H_    0.224681 0.667547 0.634857 0.201478
H10   H     H_    0.143680 0.357943 0.389678 0.146176
H11   H     H_    0.600837 0.890407 0.622907 0.139797
H12   H     H_    0.400165 0.761593 0.329057 0.152788
H13   H     H_    0.311759 0.873178 0.196908 0.141097
N1    N     N_R   0.857120 0.501200 0.500900 -0.120209
N2    N     N_R   0.142720 0.501280 0.500940 -0.119477
O1    O     O_R   0.385310 0.683220 0.500000 -0.639904
O2    O     O_R   0.614640 0.683250 0.500010 -0.630664
O3    O     O_R   0.368830 0.499960 0.640340 -0.626685
O4    O     O_R   0.598160 0.499980 0.640350 -0.612155
O5    O     O_R   0.385360 0.316750 0.499990 -0.612983
O6    O     O_R   0.614690 0.316780 0.500000 -0.609343
O7    O     O_R   0.401840 0.500020 0.359650 -0.626473
O8    O     O_R   0.631170 0.500040 0.359660 -0.596050
Zn1   Zn    Zn3+2 0.346870 0.499980 0.499990 0.934362
Zn2   Zn    Zn3+2 0.653130 0.500020 0.500010 0.953889

loop_
_geom_bond_atom_site_label_1
_geom_bond_atom_site_label_2
_ccdc_geom_bond_type
C1    C28   S    
C2    C28   A    
C23   C24   A    
C11   N1    A    
C6    C7    A    
C8    H8    S    
C4    C12   S    
C18   C21   S    
C9    C10   A    
N1    Zn2   S    
C19   C20   S    
C16   O7    A    
O3    Zn1   S    
O2    Zn2   S    
C25   H3    S    
C2    C3    A    
C14   H10   S    
C24   H2    S    
O1    Zn1   S    
C7    C8    A    
C18   F1    S    
C13   C14   A    
C24   C25   A    
O4    Zn2   S    
C6    C11   A    
C1    O1    A    
C26   C27   A    
O6    Zn2   S    
C23   H13   S    
C12   C20   T    
O5    Zn1   S    
C9    H9    S    
O8    Zn2   S    
C22   C27   A    
C15   O5    A    
C4    O4    A    
C1    O2    A    
C5    C15   S    
C22   H12   S    
C10   C11   A    
C3    H4    S    
C10   N2    A    
C5    C26   A    
C2    H11   S    
C13   N1    A    
C6    H6    S    
C14   N2    A    
C18   C19   D    
C7    H7    S    
C15   O6    A    
C27   C28   A    
C22   C23   A    
C16   C17   S    
C13   H5    S    
C3    C5    A    
C25   C26   A    
C19   H1    S    
N2    Zn1   S    
C17   C21   T    
C16   O8    A    
C8    C9    A    
O7    Zn1   S    
C4    O3    A    
