data_mof_unit_35006.cif
_audit_creation_date              2012-12-10T16:46:49-0500
_audit_creation_method            fapswitch 2.2
_symmetry_space_group_name_H-M    P1
_symmetry_Int_Tables_number       1
_space_group_crystal_system       triclinic
_cell_length_a                    15.846345
_cell_length_b                    8.690591
_cell_length_c                    7.472778
_cell_angle_alpha                 103.152754
_cell_angle_beta                  94.38457
_cell_angle_gamma                 92.485332
_cell_volume                      997.219002148

loop_
_atom_site_label
_atom_site_type_symbol
_atom_type_description
_atom_site_fract_x
_atom_site_fract_y
_atom_site_fract_z
_atom_type_partial_charge
C1    C     C_R   0.497413 0.199720 0.453145 0.876378
C2    C     C_3   0.953237 0.418789 0.648386 -0.379700
C3    C     C_3   0.917103 0.499737 0.496806 0.335596
C4    C     C_3   0.956570 0.671795 0.538046 -0.381328
C5    C     C_3   0.054452 0.671971 0.541850 -0.378136
C6    C     C_1   0.824825 0.499627 0.493893 -0.120707
C7    C     C_1   0.175185 0.500161 0.506102 -0.115554
C8    C     C_1   0.250805 0.500093 0.505989 -0.161331
C9    C     C_2   0.496181 0.031657 0.427027 -0.375731
C10   C     C_2   0.503620 0.968347 0.572997 -0.353948
C11   C     C_R   0.340348 0.499735 0.502037 0.822469
C12   C     C_R   0.502503 0.800281 0.546860 0.860028
C13   C     C_R   0.659655 0.500198 0.497952 0.810008
C14   C     C_3   0.051114 0.418960 0.652142 -0.376090
C15   C     C_3   0.041278 0.409058 0.311674 -0.379097
C16   C     C_3   0.943401 0.408876 0.307917 -0.377542
C17   C     C_1   0.749203 0.499748 0.493996 -0.170411
C18   C     C_3   0.082911 0.500036 0.503197 0.332049
Cu1   Cu    Cu3+1 0.509300 0.517380 0.684380 1.009814
Cu2   Cu    Cu3+1 0.490700 0.482620 0.315620 0.974933
H1    H     H_    0.925884 0.294693 0.621785 0.159785
H2    H     H_    0.080056 0.482385 0.791273 0.161360
H3    H     H_    0.935224 0.482091 0.785779 0.158480
H4    H     H_    0.931698 0.732581 0.430792 0.158430
H5    H     H_    0.489196 0.959696 0.286538 0.178915
H6    H     H_    0.510586 0.040309 0.713489 0.193651
H7    H     H_    0.565792 0.623012 0.051208 0.178765
H8    H     H_    0.070729 0.294960 0.627254 0.160687
H9    H     H_    0.063110 0.465201 0.202030 0.159915
H10   H     H_    0.060696 0.284865 0.280597 0.159624
H11   H     H_    0.915850 0.284620 0.275141 0.159925
H12   H     H_    0.918281 0.464978 0.196557 0.159133
H13   H     H_    0.083444 0.739921 0.678998 0.161167
H14   H     H_    0.076556 0.732864 0.436424 0.159831
H15   H     H_    0.938583 0.739694 0.673376 0.159031
N1    N     N_2   0.476670 0.456430 0.038530 0.070351
N2    N     N_2   0.523330 0.543570 0.961470 -0.126683
O1    O     O_R   0.506050 0.286130 0.619770 -0.523738
O2    O     O_R   0.490330 0.256780 0.308370 -0.602924
O3    O     O_R   0.387300 0.514690 0.655770 -0.521997
O4    O     O_R   0.371580 0.485340 0.344370 -0.592904
O5    O     O_R   0.509670 0.743220 0.691630 -0.594918
O6    O     O_R   0.493950 0.713870 0.380230 -0.596729
O7    O     O_R   0.628420 0.514660 0.655630 -0.586313
O8    O     O_R   0.612700 0.485310 0.344230 -0.597590
O9    O     O_3   0.420594 0.352941 0.924487 -0.580326
H16   H     H_    0.391053 0.297194 0.005687 0.333373

loop_
_geom_bond_atom_site_label_1
_geom_bond_atom_site_label_2
_ccdc_geom_bond_type
C15   C18   S    
N1    O9    S    
Cu1   O1    S    
C16   H12   S    
C15   H9    S    
C9    C10   D    
C14   C18   S    
Cu1   Cu2   S    
Cu1   O5    S    
C13   C17   S    
C3    C6    S    
C5    H14   S    
C10   H6    S    
C2    H1    S    
C2    C3    S    
C4    H15   S    
C9    H5    S    
C7    C8    T    
C7    C18   S    
C16   H11   S    
C13   O8    A    
C14   H2    S    
C10   C12   S    
C1    O1    A    
H7    N2    S    
C8    C11   S    
Cu2   O4    S    
C15   C16   S    
N1    N2    D    
C11   O4    A    
C12   O6    A    
C11   O3    A    
C4    H4    S    
Cu1   O3    S    
C1    O2    A    
C3    C4    S    
Cu2   N1    S    
Cu2   O6    S    
C1    C9    S    
Cu1   O7    S    
C15   H10   S    
C2    C14   S    
C2    H3    S    
C6    C17   T    
Cu2   O2    S    
O9    H16   S    
C12   O5    A    
C5    C18   S    
Cu1   N2    S    
C14   H8    S    
C13   O7    A    
C3    C16   S    
Cu2   O8    S    
C4    C5    S    
C5    H13   S    
