data_mof_unit_35540.cif
_audit_creation_date              2012-12-10T17:59:15-0500
_audit_creation_method            fapswitch 2.2
_symmetry_space_group_name_H-M    P1
_symmetry_Int_Tables_number       1
_space_group_crystal_system       triclinic
_cell_length_a                    10.815054
_cell_length_b                    9.670583
_cell_length_c                    11.032884
_cell_angle_alpha                 89.868381
_cell_angle_beta                  91.016575
_cell_angle_gamma                 90.024548
_cell_volume                      1153.72116826

loop_
_atom_site_label
_atom_site_type_symbol
_atom_type_description
_atom_site_fract_x
_atom_site_fract_y
_atom_site_fract_z
_atom_type_partial_charge
C1    C     C_R   0.263199 0.499892 0.483830 0.940888
C2    C     C_3   0.636946 0.468485 0.930708 0.398286
C3    C     C_R   0.061550 0.373461 0.455921 0.277311
C4    C     C_R   0.063936 0.624251 0.438482 0.270389
C5    C     C_R   0.932335 0.376905 0.442437 0.260832
C6    C     C_R   0.935179 0.627728 0.450935 0.421695
C7    C     C_R   0.869826 0.501924 0.461498 -0.205049
C8    C     C_R   0.128321 0.498973 0.459140 -0.242802
C9    C     C_R   0.396120 0.073460 0.471424 -0.034067
C10   C     C_R   0.396853 0.926577 0.468743 -0.005614
C11   C     C_R   0.600606 0.925653 0.540685 0.459064
C12   C     C_R   0.604370 0.072575 0.530774 0.592795
C13   C     C_R   0.500024 0.500998 0.260793 0.899116
C14   C     C_R   0.736186 0.500431 0.484782 0.952782
C15   C     C_R   0.497336 0.500662 0.740201 1.061597
C16   C     C_3   0.450199 0.653552 0.074208 0.468010
C17   C     C_3   0.403956 0.388010 0.074002 0.516198
C18   C     C_3   0.460165 0.652366 0.930870 0.073173
C19   C     C_3   0.400513 0.395258 0.930719 0.089758
C20   C     C_3   0.636810 0.478649 0.076756 0.477469
C21   C     C_3   0.500264 0.504586 0.123796 -0.331629
C22   C     C_3   0.496904 0.503994 0.879111 -0.544298
Cu1   Cu    Cu3+1 0.500020 0.640660 0.500000 1.119110
Cu2   Cu    Cu3+1 0.500020 0.359340 0.500000 1.144415
H1    H     H_    0.542244 0.711482 0.912083 0.215899
H2    H     H_    0.432877 0.296989 0.894908 0.215452
H3    H     H_    0.312120 0.126248 0.447646 0.243538
H4    H     H_    0.313622 0.873726 0.442096 0.208880
N1    N     N_R   0.500030 0.852070 0.500030 -0.224650
N2    N     N_R   0.500030 0.147930 0.500030 -0.218650
O1    O     O_R   0.319660 0.618740 0.499990 -0.578832
O2    O     O_R   0.319660 0.381260 0.499990 -0.523448
O3    O     O_R   0.499990 0.618790 0.317690 -0.528563
O4    O     O_R   0.499990 0.381210 0.317690 -0.550662
O5    O     O_R   0.680370 0.618830 0.500010 -0.524681
O6    O     O_R   0.680370 0.381170 0.500010 -0.485962
O7    O     O_R   0.500030 0.618780 0.682310 -0.552718
O8    O     O_R   0.500030 0.381220 0.682310 -0.524124
S1    S     S_3+6 0.520782 0.816312 0.133269 0.135250
O9    O     O_2   0.629105 0.800876 0.219562 -0.204944
O10   O     O_2   0.560589 0.908932 0.031679 -0.135753
O11   O     O_3   0.412364 0.899570 0.212255 -0.440876
H5    H     H_    0.338854 0.907332 0.158386 0.399929
S2    S     S_3+6 0.423532 0.205868 0.121552 0.095042
O12   O     O_2   0.550862 0.159638 0.158193 -0.101748
O13   O     O_2   0.341923 0.181293 0.228280 -0.306199
O14   O     O_3   0.372802 0.102028 0.009146 -0.452450
H6    H     H_    0.285357 0.082452 0.027681 0.391158
O15   O     O_3   0.696100 0.861163 0.601618 -0.679334
H7    H     H_    0.658519 0.789099 0.652496 0.405020
O16   O     O_3   0.712834 0.140190 0.556593 -0.621589
H8    H     H_    0.782907 0.074391 0.562055 0.358708
O17   O     O_3   0.327514 0.668062 0.113259 -0.668300
H9    H     H_    0.268102 0.643360 0.048916 0.422695
O18   O     O_3   0.287369 0.422863 0.121752 -0.682218
H10   H     H_    0.225470 0.349080 0.106547 0.401892
S3    S     S_3+6 0.348932 0.763493 0.847993 0.105542
O19   O     O_2   0.271443 0.684512 0.757711 -0.202542
O20   O     O_2   0.264298 0.840678 0.930465 -0.254169
O21   O     O_3   0.431020 0.882387 0.772194 -0.489243
H11   H     H_    0.369568 0.951427 0.743301 0.374605
S4    S     S_3+6 0.242491 0.392273 0.867823 0.063328
O22   O     O_2   0.181416 0.258955 0.903031 -0.273398
O23   O     O_2   0.163256 0.508513 0.911473 -0.182010
O24   O     O_3   0.241667 0.396067 0.717543 -0.512507
H12   H     H_    0.155154 0.373563 0.694211 0.378148
O25   O     O_3   0.718020 0.581516 0.120913 -0.660383
H13   H     H_    0.707951 0.665396 0.072550 0.394444
O26   O     O_3   0.682491 0.355598 0.127776 -0.571766
H14   H     H_    0.711580 0.372435 0.212432 0.372928
S5    S     S_3+6 0.758460 0.582310 0.864466 0.024528
O27   O     O_2   0.880636 0.543732 0.922349 -0.148217
O28   O     O_2   0.768071 0.557832 0.731327 -0.331405
O29   O     O_3   0.742224 0.754431 0.881865 -0.541781
H15   H     H_    0.818952 0.795341 0.849598 0.420126
S6    S     S_3+6 0.695762 0.296047 0.886327 0.147121
O30   O     O_2   0.815725 0.267739 0.953308 -0.153542
O31   O     O_2   0.611050 0.177303 0.911677 -0.172613
O32   O     O_3   0.727384 0.294268 0.738716 -0.456248
H16   H     H_    0.818618 0.287508 0.733744 0.389203
O33   O     O_3   0.122726 0.248958 0.466781 -0.711785
H17   H     H_    0.066119 0.179024 0.501201 0.340956
O34   O     O_3   0.123116 0.742661 0.401576 -0.715490
H18   H     H_    0.186544 0.714488 0.342643 0.362115
O35   O     O_3   0.866463 0.261520 0.406074 -0.671909
H19   H     H_    0.921651 0.198533 0.361419 0.365139
O36   O     O_3   0.870952 0.751211 0.443613 -0.616638
H20   H     H_    0.928916 0.830322 0.449166 0.380277

loop_
_geom_bond_atom_site_label_1
_geom_bond_atom_site_label_2
_ccdc_geom_bond_type
O36   H20   S    
C16   C21   S    
C1    C8    S    
C20   O25   S    
S6    O32   S    
C4    C8    A    
O33   H17   S    
S1    O10   D    
O35   H19   S    
Cu2   O6    S    
Cu1   N1    S    
S6    O31   D    
C14   O6    A    
S3    O20   D    
C19   S4    S    
C1    O1    A    
C19   H2    S    
C16   O17   S    
C15   O7    A    
S4    O23   D    
C15   C22   S    
O14   H6    S    
Cu1   O3    S    
C2    C22   S    
Cu2   O8    S    
Cu1   Cu2   S    
C9    C10   A    
C17   O18   S    
S2    O14   S    
C5    O35   S    
C18   H1    S    
S2    O13   D    
S1    O11   S    
C7    C14   S    
O29   H15   S    
C2    C20   S    
O16   H8    S    
C19   C22   S    
S6    O30   D    
C4    C6    A    
C3    C8    A    
S1    O9    D    
C5    C7    A    
S3    O21   S    
O17   H9    S    
C1    O2    A    
Cu2   O4    S    
C6    O36   S    
O25   H13   S    
O21   H11   S    
Cu1   O1    S    
Cu2   O2    S    
C15   O8    A    
C13   O3    A    
S4    O22   D    
C11   O15   S    
C18   S3    S    
O34   H18   S    
O18   H10   S    
C13   C21   S    
C9    N2    A    
O15   H7    S    
Cu1   O5    S    
C20   O26   S    
O11   H5    S    
C2    S5    S    
C14   O5    A    
C12   O16   S    
C2    S6    S    
S2    O12   D    
C9    H3    S    
S5    O28   D    
C10   H4    S    
S4    O24   S    
C12   N2    A    
C18   C22   S    
C3    O33   S    
C3    C5    A    
S5    O29   S    
C11   C12   A    
C6    C7    A    
C17   S2    S    
S5    O27   D    
Cu1   O7    S    
C10   N1    A    
S3    O19   D    
C4    O34   S    
C17   C19   S    
O26   H14   S    
Cu2   N2    S    
C16   S1    S    
O32   H16   S    
C13   O4    A    
C20   C21   S    
C11   N1    A    
C16   C18   S    
O24   H12   S    
C17   C21   S    
