data_mof_unit_15512.cif
_audit_creation_date              2012-12-10T17:17:25-0500
_audit_creation_method            fapswitch 2.2
_symmetry_space_group_name_H-M    P1
_symmetry_Int_Tables_number       1
_space_group_crystal_system       triclinic
_cell_length_a                    10.241609
_cell_length_b                    10.588502
_cell_length_c                    12.305607
_cell_angle_alpha                 91.843114
_cell_angle_beta                  109.401369
_cell_angle_gamma                 95.567304
_cell_volume                      1249.79530503

loop_
_atom_site_label
_atom_site_type_symbol
_atom_type_description
_atom_site_fract_x
_atom_site_fract_y
_atom_site_fract_z
_atom_type_partial_charge
C1    C     C_R   0.054273 0.734269 0.498251 0.922243
C2    C     C_R   0.444465 0.536771 0.972055 0.042959
C3    C     C_R   0.337751 0.470534 0.878501 0.057657
C4    C     C_R   0.574833 0.487248 0.010504 0.082416
C5    C     C_R   0.604590 0.387642 0.944767 0.085487
C6    C     C_R   0.497758 0.328450 0.848526 -0.228121
C7    C     C_R   0.364718 0.364039 0.820710 -0.142735
C8    C     C_R   0.667585 0.521257 0.121042 -0.197430
C9    C     C_R   0.830837 0.384988 0.092450 -0.205382
C10   C     C_R   0.206295 0.514892 0.840197 -0.190484
C11   C     C_2   0.092321 0.871284 0.511613 -0.258298
C12   C     C_R   0.132512 0.506455 0.714736 0.916336
C13   C     C_2   0.054347 0.943160 0.587203 -0.071868
C14   C     C_2   0.939774 0.134604 0.539331 -0.257727
C15   C     C_2   0.057582 0.079214 0.577251 -0.217978
C16   C     C_2   0.433558 0.511710 0.509972 -0.179280
C17   C     C_2   0.567644 0.484733 0.491663 -0.006291
C18   C     C_R   0.951841 0.266549 0.511942 0.912740
C19   C     C_R   0.866032 0.486991 0.286035 0.884235
C20   C     C_R   0.736840 0.342198 0.983544 -0.006358
C21   C     C_R   0.791501 0.468491 0.163087 -0.084601
C22   C     C_R   0.167966 0.597072 0.914662 -0.057677
C23   C     C_R   0.275858 0.670060 0.003577 -0.080918
C24   C     C_R   0.415178 0.649308 0.022556 -0.059961
H1    H     H_    0.928831 0.344871 0.125736 0.168044
H2    H     H_    0.838507 0.083133 0.527817 0.201568
H3    H     H_    0.437490 0.588278 0.572144 0.174537
H4    H     H_    0.683918 0.627518 0.600602 0.170031
H5    H     H_    0.310899 0.373980 0.396227 0.188858
H6    H     H_    0.513660 0.248668 0.798912 0.164694
H7    H     H_    0.637582 0.578277 0.181038 0.191304
H8    H     H_    0.282246 0.307744 0.752455 0.152120
H9    H     H_    0.158858 0.131206 0.589279 0.178699
N1    N     N_2   0.313640 0.446500 0.454900 -0.182159
N2    N     N_2   0.686360 0.553430 0.545150 -0.225066
O1    O     O_R   0.936910 0.692950 0.509080 -0.598742
O2    O     O_R   0.138320 0.658600 0.480130 -0.594237
O3    O     O_R   0.002900 0.525670 0.675280 -0.551998
O4    O     O_R   0.204310 0.491320 0.646330 -0.618316
O5    O     O_R   0.861680 0.341400 0.519870 -0.567890
O6    O     O_R   0.063090 0.307050 0.490920 -0.619901
O7    O     O_R   0.795690 0.508680 0.353670 -0.598388
O8    O     O_R   0.997100 0.474330 0.324720 -0.607843
Zn1   Zn    Zn3+2 0.865520 0.522940 0.519330 1.019083
Zn2   Zn    Zn3+2 0.134480 0.477060 0.480670 0.962586
C25   C     C_2   0.014612 0.891986 0.684444 0.975860
O9    O     O_2   0.066509 0.800519 0.731783 -0.646447
O10   O     O_R   0.924047 0.953270 0.726110 -0.785991
H10   H     H_    0.906816 0.911074 0.793622 0.373793
C26   C     C_1   0.154518 0.927903 0.431990 0.204841
N3    N     N_1   0.204225 0.973324 0.368614 -0.155809
C27   C     C_2   0.562298 0.376681 0.411235 0.988755
O11   O     O_2   0.584222 0.272016 0.447687 -0.627437
O12   O     O_R   0.520719 0.392263 0.292744 -0.821484
H11   H     H_    0.518353 0.310996 0.245917 0.339958
C28   C     C_1   0.775489 0.246462 0.917139 0.212948
N4    N     N_1   0.806564 0.169997 0.863962 -0.132048
C29   C     C_2   0.017941 0.606504 0.897801 0.986545
O13   O     O_2   0.979503 0.706170 0.921904 -0.630047
O14   O     O_R   0.920234 0.499520 0.855175 -0.794376
H12   H     H_    0.821478 0.518805 0.842881 0.334750
C30   C     C_1   0.523991 0.751432 0.080901 0.165192
N5    N     N_1   0.610397 0.833104 0.127140 -0.180826
C31   C     C_1   0.245972 0.768221 0.073966 0.275413
N6    N     N_1   0.222424 0.846617 0.130225 -0.149539

loop_
_geom_bond_atom_site_label_1
_geom_bond_atom_site_label_2
_ccdc_geom_bond_type
C22   C29   S    
C2    C4    A    
C23   C24   A    
O3    Zn1   S    
C6    C7    A    
C11   C13   D    
C14   C18   S    
C9    C20   A    
C3    C7    A    
C1    C11   S    
C19   O7    A    
C1    O2    A    
O4    Zn2   S    
C16   N1    D    
C31   N6    T    
C16   H3    S    
O14   H12   S    
C8    C21   A    
C9    H1    S    
C11   C26   S    
O6    Zn2   S    
C10   C22   A    
C2    C24   A    
N2    Zn1   S    
O8    Zn2   S    
C9    C21   A    
C13   C25   S    
O7    Zn1   S    
C12   O4    A    
C3    C10   A    
C10   C12   S    
C17   C27   S    
O10   H10   S    
C6    H6    S    
C27   O12   S    
C26   N3    T    
C2    C3    A    
C20   C28   S    
C13   C15   S    
C12   O3    A    
C5    C6    A    
C5    C20   A    
O1    Zn1   S    
C16   C17   S    
C28   N4    T    
C29   O14   S    
O12   H11   S    
C25   O10   S    
O5    Zn1   S    
C27   O11   D    
H4    N2    S    
C25   O9    D    
C18   O6    A    
C4    C8    A    
N1    Zn2   S    
C18   O5    A    
C14   C15   D    
C23   C31   S    
C24   C30   S    
C7    H8    S    
C17   N2    D    
C19   C21   S    
C29   O13   D    
C22   C23   A    
C8    H7    S    
O2    Zn2   S    
H5    N1    S    
C15   H9    S    
C14   H2    S    
C30   N5    T    
C1    O1    A    
C19   O8    A    
C4    C5    A    
