data_mof_unit_68107.cif
_audit_creation_date              2013-03-05T15:58:25-0500
_audit_creation_method            fapswitch 2.2
_symmetry_space_group_name_H-M    P1
_symmetry_Int_Tables_number       1
_space_group_crystal_system       triclinic
_cell_length_a                    8.175094
_cell_length_b                    15.939626
_cell_length_c                    17.296998
_cell_angle_alpha                 90.095848
_cell_angle_beta                  88.868831
_cell_angle_gamma                 90.011113
_cell_volume                      2253.49376491

loop_
_atom_site_label
_atom_site_type_symbol
_atom_site_description
_atom_site_fract_x
_atom_site_fract_y
_atom_site_fract_z
_atom_type_partial_charge
O1    O     O_R   0.388780 0.834790 0.412340 -0.486119
O2    O     O_R   0.111220 0.165210 0.912340 -0.487550
O3    O     O_R   0.888780 0.665210 0.587660 -0.494058
O4    O     O_R   0.611220 0.334790 0.087660 -0.503744
O5    O     O_R   0.059040 0.845930 0.587040 -0.571998
O6    O     O_R   0.440960 0.154070 0.087040 -0.577838
O7    O     O_R   0.559040 0.654070 0.412960 -0.587218
O8    O     O_R   0.940960 0.345930 0.912960 -0.568179
C1    C     C_R   0.227953 0.865932 0.613391 0.998715
C2    C     C_R   0.271248 0.133784 0.113961 1.053333
C3    C     C_R   0.728728 0.633951 0.386596 1.001011
C4    C     C_R   0.774439 0.366793 0.885961 1.044631
O9    O     O_R   0.059070 0.845930 0.412970 -0.533972
O10   O     O_R   0.440930 0.154070 0.912970 -0.505940
O11   O     O_R   0.559070 0.654070 0.587030 -0.502483
O12   O     O_R   0.940930 0.345930 0.087030 -0.550982
O13   O     O_R   0.888760 0.665210 0.412340 -0.495184
O14   O     O_R   0.611240 0.334790 0.912340 -0.539396
O15   O     O_R   0.388760 0.834790 0.587660 -0.480290
O16   O     O_R   0.111240 0.165210 0.087660 -0.498093
C5    C     C_R   0.227899 0.867661 0.387436 1.013912
C6    C     C_R   0.274232 0.136894 0.882496 0.886550
C7    C     C_R   0.728159 0.634313 0.613882 0.990234
C8    C     C_R   0.768739 0.367322 0.113468 1.018788
O17   O     O_3   0.222280 0.690700 0.500000 -0.279200
O18   O     O_3   0.277720 0.309300 0.000000 -0.318592
O19   O     O_3   0.722280 0.809300 0.500000 -0.267242
O20   O     O_3   0.777720 0.190700 0.000000 -0.269583
V1    V     V_3+5 0.947430 0.761000 0.500000 1.429547
V2    V     V_3+5 0.552570 0.239000 0.000000 1.419610
V3    V     V_3+5 0.447430 0.739000 0.500000 1.441478
V4    V     V_3+5 0.052570 0.261000 0.000000 1.401696
C9    C     C_3   0.922199 0.569100 0.734339 -0.502024
C10   C     C_3   0.592230 0.430124 0.248469 -0.541212
C11   C     C_3   0.417578 0.942645 0.267900 -0.547932
C12   C     C_3   0.086928 0.071526 0.756505 -0.568428
C13   C     C_3   0.917963 0.506121 0.813158 0.005075
C14   C     C_3   0.611468 0.487043 0.328109 -0.041466
C15   C     C_3   0.408070 0.000532 0.187080 -0.012701
C16   C     C_3   0.087038 0.004522 0.680554 -0.009576
H1    H     H_    0.902238 0.394369 0.710838 0.145758
H2    H     H_    0.577445 0.620965 0.234087 0.166877
H3    H     H_    0.369515 0.124398 0.284274 0.195442
H4    H     H_    0.121411 0.884903 0.784301 0.178095
C17   C     C_3   0.734056 0.465469 0.651229 -0.003579
C18   C     C_3   0.730678 0.540157 0.153067 0.072328
C19   C     C_3   0.201836 0.039459 0.346554 -0.006012
C20   C     C_3   0.283736 0.972354 0.838132 -0.007305
C21   C     C_3   0.609575 0.573809 0.755536 -0.396400
C22   C     C_3   0.903327 0.437276 0.241680 -0.426227
C23   C     C_3   0.103498 0.921786 0.247275 -0.394097
C24   C     C_3   0.398383 0.083201 0.728464 -0.492406
C25   C     C_3   0.746336 0.562854 0.685543 -0.295106
C26   C     C_3   0.748091 0.441718 0.185381 -0.301190
C27   C     C_3   0.236249 0.940385 0.315783 -0.251702
C28   C     C_3   0.264419 0.069013 0.804072 -0.244232
C29   C     C_3   0.768570 0.439724 0.812365 -0.377729
C30   C     C_3   0.742544 0.563192 0.313912 -0.239009
C31   C     C_3   0.255260 0.063384 0.188633 -0.326332
C32   C     C_3   0.245032 0.940424 0.682418 -0.255809
C33   C     C_3   0.774788 0.402340 0.723737 0.104696
C34   C     C_3   0.707904 0.604179 0.228961 -0.015473
C35   C     C_3   0.246013 0.104808 0.274408 -0.020132
C36   C     C_3   0.244718 0.903793 0.770857 -0.038150
C37   C     C_3   0.603913 0.492516 0.814728 -0.432096
C38   C     C_3   0.922397 0.518300 0.301031 -0.418420
C39   C     C_3   0.093817 0.003491 0.188086 -0.380689
C40   C     C_3   0.418756 0.995057 0.676921 -0.375599
C41   C     C_2   0.066278 0.547009 0.676122 1.043632
O21   O     O_2   0.124862 0.600430 0.633294 -0.490535
O22   O     O_R   0.126141 0.465507 0.665174 -0.834819
H5    H     H_    0.201009 0.458881 0.618032 0.401482
C42   C     C_2   0.445004 0.451304 0.204148 1.058386
O23   O     O_2   0.401115 0.402155 0.154767 -0.536646
O24   O     O_R   0.365599 0.527637 0.210665 -0.837411
H6    H     H_    0.313134 0.545961 0.161656 0.367134
C43   C     C_2   0.542729 0.977346 0.326900 1.051142
O25   O     O_2   0.587752 0.933675 0.379565 -0.491423
O26   O     O_R   0.581871 0.061581 0.333874 -0.824076
H7    H     H_    0.642616 0.075620 0.382981 0.374456
C44   C     C_2   0.938643 0.054398 0.810865 1.149022
O27   O     O_2   0.862797 0.111413 0.842863 -0.487255
O28   O     O_R   0.896340 0.972887 0.831051 -0.817638
H8    H     H_    0.823631 0.969868 0.879211 0.385864
C45   C     C_2   0.471615 0.428045 0.797359 1.090615
O29   O     O_2   0.398405 0.392254 0.849549 -0.633073
O30   O     O_R   0.423095 0.412196 0.723741 -0.734606
H9    H     H_    0.320472 0.378776 0.722518 0.393528
C46   C     C_2   0.034768 0.588419 0.268137 1.112341
O31   O     O_2   0.081713 0.644476 0.309404 -0.548392
O32   O     O_R   0.065494 0.597725 0.190349 -0.749632
H10   H     H_    0.115758 0.652533 0.173819 0.372675
C47   C     C_2   0.952229 0.062037 0.207954 1.038341
O33   O     O_2   0.907506 0.113860 0.162280 -0.608191
O34   O     O_R   0.865207 0.056977 0.275699 -0.763306
H11   H     H_    0.814299 0.112254 0.288954 0.376171
C48   C     C_2   0.549023 0.936334 0.707999 1.090438
O35   O     O_2   0.589013 0.873162 0.673468 -0.547612
O36   O     O_R   0.633134 0.953731 0.772338 -0.766542
H12   H     H_    0.667108 0.900561 0.798747 0.367521
N1    N     N_R   0.581273 0.450188 0.607229 0.306947
O37   O     O_R   0.538644 0.504452 0.555700 -0.284744
O38   O     O_R   0.531468 0.374913 0.591779 -0.236707
N2    N     N_R   0.862053 0.554940 0.094408 0.304495
O39   O     O_R   0.905985 0.629255 0.071484 -0.179775
O40   O     O_R   0.877513 0.497917 0.041414 -0.335319
N3    N     N_R   0.039262 0.048361 0.386503 0.282968
O41   O     O_R   0.975531 0.121556 0.400280 -0.273337
O42   O     O_R   0.995107 0.992735 0.437137 -0.256842
N4    N     N_R   0.440249 0.957731 0.878698 0.248456
O43   O     O_R   0.470546 0.886968 0.913080 -0.234904
O44   O     O_R   0.540816 0.018045 0.893409 -0.334015
N5    N     N_R   0.729840 0.313899 0.721207 0.261234
O45   O     O_R   0.690411 0.276174 0.657835 -0.215593
O46   O     O_R   0.807961 0.268556 0.770033 -0.351405
N6    N     N_R   0.785683 0.687216 0.217466 0.267639
O47   O     O_R   0.775490 0.727382 0.152838 -0.194377
O48   O     O_R   0.830708 0.730992 0.276119 -0.431406
N7    N     N_R   0.169159 0.188263 0.275814 0.244712
O49   O     O_R   0.136682 0.226073 0.340703 -0.239768
O50   O     O_R   0.208568 0.238137 0.219599 -0.342703
N8    N     N_R   0.329834 0.822886 0.780765 0.250265
O51   O     O_R   0.309993 0.780841 0.844451 -0.212807
O52   O     O_R   0.375666 0.779672 0.721139 -0.395047
C49   C     C_2   0.967645 0.661029 0.758404 1.033483
O53   O     O_2   0.981135 0.714967 0.709367 -0.609039
O54   O     O_R   0.018052 0.684699 0.831777 -0.641224
H13   H     H_    0.017168 0.747706 0.839673 0.373467
C50   C     C_2   0.542432 0.341270 0.271803 1.169191
O55   O     O_2   0.595658 0.281413 0.237010 -0.636762
O56   O     O_R   0.412871 0.328637 0.324045 -0.652856
H14   H     H_    0.414177 0.269307 0.344357 0.390252
C51   C     C_2   0.496081 0.856298 0.246150 1.108419
O57   O     O_2   0.520186 0.801980 0.293978 -0.573581
O58   O     O_R   0.553630 0.838607 0.172387 -0.611759
H15   H     H_    0.516764 0.780739 0.156359 0.371177
C52   C     C_2   0.057616 0.163430 0.734106 1.200797
O59   O     O_2   0.105237 0.217389 0.777133 -0.630344
O60   O     O_R   0.982936 0.190304 0.667531 -0.631502
H16   H     H_    0.007241 0.251193 0.654958 0.370459
N9    N     N_R   0.925259 0.551297 0.889979 0.286713
O61   O     O_R   0.052707 0.545406 0.934045 -0.225389
O62   O     O_R   0.823073 0.609281 0.910785 -0.291681
N10   N     N_R   0.674339 0.438794 0.394715 0.251681
O63   O     O_R   0.738572 0.482563 0.448349 -0.409410
O64   O     O_R   0.611824 0.368153 0.418682 -0.260975
N11   N     N_R   0.405863 0.955785 0.109680 0.280964
O65   O     O_R   0.460408 0.993921 0.047642 -0.278130
O66   O     O_R   0.334644 0.884756 0.096843 -0.329783
N12   N     N_R   0.088896 0.045241 0.603081 0.282144
O67   O     O_R   0.181254 0.012068 0.550876 -0.400548
O68   O     O_R   0.966026 0.086853 0.575382 -0.187237
C53   C     C_2   0.073661 0.458005 0.811432 1.091857
O69   O     O_2   0.196128 0.498539 0.818300 -0.572834
O70   O     O_R   0.084172 0.372869 0.795752 -0.769607
H17   H     H_    0.160893 0.342391 0.830126 0.398100
C54   C     C_2   0.443898 0.516501 0.360230 1.125468
O71   O     O_2   0.384414 0.482974 0.417701 -0.516871
O72   O     O_R   0.368727 0.588710 0.333944 -0.755479
H18   H     H_    0.299664 0.614198 0.376950 0.385501
C55   C     C_2   0.567346 0.046690 0.180685 1.109109
O73   O     O_2   0.679560 0.011995 0.147036 -0.534627
O74   O     O_R   0.584349 0.129342 0.204395 -0.757814
H19   H     H_    0.658919 0.162563 0.169064 0.398883
C56   C     C_2   0.928784 0.952499 0.677232 1.113581
O75   O     O_2   0.827657 0.968349 0.628657 -0.544547
O76   O     O_R   0.911918 0.876363 0.714947 -0.803025
H20   H     H_    0.848281 0.835607 0.683045 0.404687
C57   C     C_2   0.858057 0.445472 0.587025 1.066477
O77   O     O_2   0.927219 0.501301 0.551890 -0.582304
O78   O     O_R   0.884622 0.362246 0.564363 -0.683464
H21   H     H_    0.967715 0.356282 0.520692 0.363966
C58   C     C_2   0.586893 0.561838 0.101737 1.018416
O79   O     O_2   0.511502 0.507444 0.069008 -0.620858
O80   O     O_R   0.544662 0.645544 0.088749 -0.731897
H22   H     H_    0.440821 0.652854 0.058622 0.354467
C59   C     C_2   0.308277 0.067435 0.411765 1.113726
O81   O     O_2   0.375987 0.015518 0.449639 -0.623265
O82   O     O_R   0.326535 0.152009 0.430962 -0.697870
H23   H     H_    0.415404 0.162380 0.469698 0.375316
C60   C     C_2   0.164443 0.954259 0.903684 1.098296
O83   O     O_2   0.082381 0.010149 0.931031 -0.647215
O84   O     O_R   0.146711 0.872856 0.932861 -0.662668
H24   H     H_    0.053062 0.865229 0.970866 0.365870
C61   C     C_2   0.440993 0.587112 0.728836 1.137690
O85   O     O_2   0.397920 0.560482 0.667777 -0.542352
O86   O     O_R   0.329874 0.629539 0.775730 -0.661273
H25   H     H_    0.249758 0.657484 0.742485 0.350834
C62   C     C_2   0.064836 0.427978 0.200994 1.150596
O87   O     O_2   0.168069 0.389037 0.234712 -0.540928
O88   O     O_R   0.099787 0.462157 0.128299 -0.703644
H26   H     H_    0.176833 0.430237 0.092935 0.393178
C63   C     C_2   0.927093 0.900156 0.268790 1.139803
O89   O     O_2   0.833308 0.881099 0.218256 -0.507150
O90   O     O_R   0.862601 0.904991 0.341368 -0.668763
H27   H     H_    0.800692 0.851572 0.354102 0.371991
C64   C     C_2   0.563343 0.117579 0.751839 1.304385
O91   O     O_2   0.687020 0.096259 0.716968 -0.572233
O92   O     O_R   0.577362 0.187135 0.798912 -0.669544
H28   H     H_    0.480140 0.225734 0.803765 0.324904
C65   C     C_2   0.632795 0.661250 0.793061 1.065957
O93   O     O_2   0.585697 0.678101 0.858797 -0.467426
O94   O     O_R   0.673998 0.728186 0.746112 -0.785216
H29   H     H_    0.707286 0.776618 0.779370 0.345618
C66   C     C_2   0.888153 0.347921 0.277443 1.146461
O95   O     O_2   0.871242 0.332841 0.346026 -0.521246
O96   O     O_R   0.902114 0.280292 0.227183 -0.753364
H30   H     H_    0.878870 0.227031 0.254975 0.359427
C67   C     C_2   0.146390 0.835232 0.211580 1.017100
O97   O     O_2   0.092627 0.812557 0.149375 -0.495271
O98   O     O_R   0.219736 0.774802 0.257014 -0.790058
H31   H     H_    0.281401 0.731179 0.225545 0.331463
C68   C     C_2   0.353747 0.156563 0.671191 1.015964
O99   O     O_2   0.313070 0.144087 0.605068 -0.559322
O100  O     O_R   0.362474 0.240357 0.691577 -0.794714
H32   H     H_    0.325029 0.277212 0.647540 0.377982
C69   C     C_2   0.553770 0.519460 0.895318 1.241099
O101  O     O_2   0.635544 0.497464 0.948688 -0.592354
O102  O     O_R   0.404678 0.560404 0.909124 -0.640103
H33   H     H_    0.371401 0.566047 0.965166 0.376435
C70   C     C_2   0.021598 0.491114 0.373304 1.119633
O103  O     O_2   0.046865 0.540419 0.425299 -0.521831
O104  O     O_R   0.105649 0.415107 0.376711 -0.693073
H34   H     H_    0.145772 0.400966 0.430118 0.383930
C71   C     C_2   0.052097 0.976286 0.107683 1.204778
O105  O     O_2   0.139434 0.000445 0.056675 -0.614469
O106  O     O_R   0.911023 0.931902 0.089108 -0.639687
H35   H     H_    0.876273 0.939937 0.033759 0.357431
C72   C     C_2   0.505648 0.012590 0.595993 1.233457
O107  O     O_2   0.534296 0.955670 0.550727 -0.491308
O108  O     O_R   0.587057 0.088303 0.579754 -0.708906
H36   H     H_    0.648666 0.088165 0.528282 0.377580

loop_
_geom_bond_atom_site_label_1
_geom_bond_atom_site_label_2
_geom_bond_distance
_ccdc_geom_bond_type
O17   V3    1.995009 S    
C20   N4    1.489948 S    
O78   H21   1.010246 S    
O1    C5    1.487708 A    
N1    O37   1.295754 A    
C16   C32   1.647857 S    
C51   O57   1.217263 D    
N4    O44   1.293086 A    
O19   V1    1.995284 S    
C42   O24   1.382551 S    
C57   O77   1.212011 D    
O3    C7    1.466098 A    
O34   H11   0.998900 S    
H1    C33   1.068781 S    
O94   H29   1.002792 S    
O15   V3    2.196404 S    
C11   C51   1.561021 S    
C23   C39   1.660796 S    
N2    O40   1.294222 A    
C48   O35   1.211599 D    
H3    C35   1.073553 S    
O58   H15   1.010365 S    
C43   O25   1.210489 D    
H4    C36   1.073203 S    
O7    C3    1.486557 A    
C63   O89   1.212272 D    
C52   O60   1.382681 S    
C56   O75   1.217155 D    
C13   N9    1.512496 S    
C18   C34   1.668921 S    
O28   H8    1.014965 S    
O9    V1    2.209933 S    
N11   O66   1.293874 A    
C71   O105  1.188555 D    
C50   O55   1.204049 D    
N9    O62   1.291861 A    
C19   C35   1.661073 S    
C20   C60   1.509043 S    
O4    C8    1.465631 A    
C36   N8    1.477316 S    
C20   C36   1.631074 S    
C39   C71   1.501709 S    
C8    C26   1.723026 S    
C60   O83   1.205724 D    
O1    V3    2.212905 S    
O13   V1    2.209312 S    
N6    O47   1.293282 A    
O2    V4    2.196373 S    
C65   O93   1.222694 D    
N1    O38   1.296098 A    
C64   O92   1.380547 S    
O106  H35   1.012337 S    
N4    O43   1.302075 A    
N11   O65   1.304996 A    
C31   C39   1.628912 S    
C14   C30   1.634594 S    
C1    O15   1.465981 A    
C54   O71   1.221817 D    
O80   H22   1.011671 S    
C10   C50   1.526341 S    
C2    O16   1.481033 A    
C45   O29   1.216082 D    
C59   O82   1.396506 S    
O2    C6    1.489435 A    
N3    O41   1.297625 A    
C55   O74   1.386926 S    
O14   V2    2.199800 S    
C46   O32   1.372140 S    
C3    C30   1.689734 S    
C12   C52   1.535961 S    
H2    C34   1.101456 S    
C69   O102  1.398860 S    
C24   C40   1.669306 S    
C9    C41   1.574006 S    
N3    O42   1.293640 A    
O11   C7    1.500568 A    
C19   C27   1.687528 S    
C17   C25   1.664677 S    
O92   H28   1.007310 S    
O12   C8    1.510360 A    
C51   O58   1.379808 S    
C65   O94   1.379573 S    
C62   O87   1.207674 D    
O10   V2    2.231292 S    
C38   C70   1.565299 S    
N2    O39   1.298153 A    
C44   O28   1.387858 S    
C30   C38   1.646345 S    
C7    C25   1.693499 S    
C38   C46   1.548532 S    
O5    V1    2.231304 S    
N7    O50   1.292807 A    
C42   O23   1.217288 D    
C9    C25   1.684298 S    
C13   C29   1.616155 S    
C71   O106  1.395481 S    
C21   C65   1.549732 S    
O70   H17   0.999356 S    
O7    V3    2.207082 S    
C45   O30   1.364344 S    
C11   C27   1.684145 S    
O96   H30   0.992787 S    
O8    V4    2.234573 S    
C13   C53   1.485952 S    
C12   C16   1.691692 S    
C43   O26   1.385828 S    
O26   H7    1.016925 S    
O104  H34   1.012143 S    
N10   O64   1.301487 A    
C48   O36   1.348076 S    
C60   O84   1.399469 S    
C19   C59   1.505067 S    
O76   H20   1.003578 S    
C5    C27   1.698794 S    
O18   V4    1.995009 S    
C40   C48   1.524424 S    
C6    C28   1.736832 S    
C63   O90   1.354051 S    
C69   O101  1.203150 D    
C58   O79   1.209956 D    
C18   N2    1.481930 S    
O11   V3    2.234559 S    
C11   C43   1.559913 S    
C44   O27   1.225431 D    
O88   H26   1.006794 S    
C54   O72   1.386418 S    
C11   C15   1.679364 S    
O24   H6    1.001554 S    
O98   H31   1.010918 S    
O5    C1    1.496807 A    
C72   O107  1.217180 D    
C12   C28   1.682632 S    
C70   O103  1.214115 D    
C35   N7    1.471231 S    
C23   C67   1.548007 S    
O72   H18   1.009787 S    
C68   O99   1.213459 D    
C12   C44   1.543988 S    
O8    C4    1.485831 A    
C15   C31   1.601263 S    
C18   C26   1.673567 S    
C9    C49   1.569179 S    
C67   O97   1.224258 D    
C16   C56   1.538521 S    
C18   C58   1.527033 S    
C16   N12   1.489745 S    
C47   O33   1.205767 D    
C22   C26   1.616452 S    
C50   O56   1.393442 S    
N7    O49   1.295942 A    
C37   C45   1.525585 S    
C22   C38   1.657692 S    
C53   O70   1.385780 S    
C58   O80   1.397893 S    
C21   C37   1.652870 S    
C30   C34   1.638845 S    
C4    C29   1.726724 S    
O6    V2    2.209952 S    
C10   C26   1.671574 S    
C19   N3    1.492475 S    
C17   N1    1.495124 S    
C23   C63   1.521891 S    
C49   O53   1.212228 D    
C72   O108  1.404180 S    
N12   O68   1.303365 A    
C22   C62   1.491172 S    
C15   C55   1.497737 S    
N8    O52   1.288801 A    
O54   H13   1.013344 S    
C46   O31   1.209850 D    
O102  H33   1.005512 S    
C40   C72   1.582449 S    
C49   O54   1.393486 S    
N5    O45   1.295641 A    
O16   V4    2.212943 S    
C20   C28   1.659102 S    
C66   O95   1.215980 D    
C3    O13   1.476528 A    
C10   C14   1.658243 S    
C14   N10   1.486422 S    
C14   C54   1.541151 S    
C29   C37   1.587408 S    
N10   O63   1.280639 A    
O56   H14   1.009547 S    
C17   C57   1.522176 S    
O6    C2    1.490337 A    
O60   H16   1.013746 S    
C29   C33   1.643658 S    
C64   O91   1.215281 D    
O82   H23   1.011367 S    
O12   V4    2.207062 S    
C52   O59   1.205975 D    
C15   N11   1.516297 S    
C31   C35   1.623324 S    
C41   O22   1.399583 S    
O36   H12   1.005230 S    
C32   C36   1.638239 S    
C1    C32   1.690165 S    
O10   C6    1.495885 A    
O20   V2    1.995285 S    
C2    C31   1.715433 S    
N8    O51   1.297802 A    
C68   O100  1.383019 S    
O22   H5    1.015229 S    
C70   O104  1.394831 S    
C55   O73   1.210039 D    
N9    O61   1.306508 A    
O9    C5    1.481968 A    
C33   N5    1.457549 S    
O3    V1    2.199767 S    
C61   O85   1.196962 D    
C47   O34   1.361276 S    
C37   C69   1.507037 S    
C21   C25   1.640776 S    
C17   C33   1.648402 S    
C24   C68   1.581227 S    
C67   O98   1.387913 S    
N6    O48   1.289922 A    
C23   C27   1.649036 S    
O100  H32   1.014770 S    
C41   O21   1.221133 D    
O84   H24   1.006690 S    
C9    C13   1.694194 S    
O74   H19   1.005862 S    
C61   O86   1.381955 S    
C34   N6    1.480295 S    
C10   C42   1.479104 S    
O90   H27   1.012789 S    
C22   C66   1.557730 S    
O86   H25   0.986844 S    
C21   C61   1.477563 S    
C32   C40   1.666983 S    
O30   H9    0.994266 S    
C56   O76   1.384337 S    
C59   O81   1.198614 D    
C4    O14   1.491603 A    
O108  H36   1.014208 S    
C39   C47   1.520660 S    
N12   O67   1.279335 A    
C24   C64   1.517522 S    
C62   O88   1.395541 S    
C53   O69   1.199208 D    
C66   O96   1.387027 S    
O4    V2    2.209273 S    
O32   H10   1.004912 S    
C24   C28   1.704467 S    
N5    O46   1.291123 A    
C57   O78   1.398440 S    
