data_mof_unit_28785.cif
_audit_creation_date              2012-12-10T18:46:19-0500
_audit_creation_method            fapswitch 2.2
_symmetry_space_group_name_H-M    P1
_symmetry_Int_Tables_number       1
_space_group_crystal_system       triclinic
_cell_length_a                    9.821656
_cell_length_b                    10.737708
_cell_length_c                    13.17895
_cell_angle_alpha                 89.448278
_cell_angle_beta                  71.446319
_cell_angle_gamma                 90.288257
_cell_volume                      1317.53261907

loop_
_atom_site_label
_atom_site_type_symbol
_atom_type_description
_atom_site_fract_x
_atom_site_fract_y
_atom_site_fract_z
_atom_type_partial_charge
C1    C     C_R   0.499248 0.739946 0.502392 0.848880
C2    C     C_R   0.374415 0.512911 0.820004 -0.117938
C3    C     C_R   0.601106 0.937265 0.533005 -0.201837
C4    C     C_R   0.421774 0.505406 0.703604 0.862915
C5    C     C_R   0.600538 0.064845 0.529679 -0.233437
C6    C     C_R   0.501048 0.126940 0.491464 -0.050042
C7    C     C_R   0.401572 0.060208 0.454181 0.185299
C8    C     C_R   0.397261 0.932655 0.466209 -0.246467
C9    C     C_R   0.498784 0.872023 0.501812 -0.043748
C10   C     C_R   0.957424 0.428024 0.429845 -0.076054
C11   C     C_R   0.101661 0.429075 0.429168 -0.120131
C12   C     C_R   0.437489 0.539609 0.982327 0.090004
C13   C     C_R   0.043087 0.573314 0.569065 -0.076868
C14   C     C_R   0.899613 0.574203 0.568167 -0.059555
C15   C     C_R   0.500950 0.259811 0.495831 0.885459
C16   C     C_R   0.577713 0.515670 0.297127 0.869283
C17   C     C_R   0.790122 0.618715 0.011527 -0.245293
C18   C     C_R   0.620101 0.557346 0.184197 -0.121473
C19   C     C_R   0.247487 0.450777 0.878920 -0.194668
C20   C     C_R   0.217051 0.430213 0.988143 -0.172900
C21   C     C_R   0.312440 0.471519 0.039374 -0.215701
C22   C     C_3   0.892064 0.581543 0.160287 -0.401020
C23   C     C_R   0.466281 0.564235 0.872534 0.098764
C24   C     C_3   0.895212 0.697277 0.226160 -0.799563
C25   C     C_3   0.304027 0.117407 0.397103 -0.408152
C26   C     C_3   0.390536 0.172585 0.288123 -0.857387
C27   C     C_3   0.375189 0.657011 0.200019 -0.383842
C28   C     C_3   0.418963 0.783682 0.231333 -0.833623
C29   C     C_R   0.540751 0.575578 0.030310 0.025161
C30   C     C_R   0.678928 0.613743 0.966722 0.121847
C31   C     C_R   0.700191 0.651428 0.861428 -0.229040
C32   C     C_R   0.589635 0.635811 0.817722 -0.210914
C33   C     C_R   0.508253 0.581387 0.140478 0.066113
C34   C     C_R   0.764752 0.582204 0.118863 0.131504
H1    H     H_    0.317420 0.879728 0.443837 0.157376
H2    H     H_    0.679127 0.889936 0.561814 0.151120
H3    H     H_    0.913137 0.781747 0.174082 0.242814
H4    H     H_    0.793189 0.708389 0.292478 0.276414
H5    H     H_    0.984565 0.689839 0.260488 0.234924
H6    H     H_    0.894455 0.494754 0.205868 0.210275
H7    H     H_    0.993794 0.581971 0.092323 0.203666
H8    H     H_    0.677282 0.114766 0.558070 0.168345
H9    H     H_    0.461621 0.249529 0.296538 0.260078
H10   H     H_    0.457384 0.099272 0.237348 0.258124
H11   H     H_    0.316271 0.209587 0.247057 0.234819
H12   H     H_    0.180333 0.374047 0.371418 0.138038
H13   H     H_    0.230891 0.045813 0.381833 0.186738
H14   H     H_    0.230675 0.186356 0.447805 0.225096
H15   H     H_    0.926350 0.370561 0.373786 0.121023
H16   H     H_    0.823350 0.635151 0.621159 0.114921
H17   H     H_    0.321384 0.839237 0.269274 0.235589
H18   H     H_    0.481149 0.772403 0.287686 0.257680
H19   H     H_    0.486318 0.835145 0.159094 0.257814
H20   H     H_    0.308539 0.677761 0.147930 0.202491
H21   H     H_    0.300678 0.607769 0.269894 0.231721
H22   H     H_    0.074570 0.632006 0.624192 0.122096
H23   H     H_    0.800540 0.694443 0.813891 0.132556
H24   H     H_    0.897025 0.646874 0.962052 0.144262
H25   H     H_    0.176326 0.411233 0.839355 0.156541
H26   H     H_    0.289728 0.446769 0.122991 0.135446
H27   H     H_    0.122007 0.377692 0.032486 0.137534
H28   H     H_    0.603763 0.675996 0.739598 0.154886
N1    N     N_R   0.142790 0.500030 0.500030 -0.076251
N2    N     N_R   0.857180 0.499940 0.500010 -0.072759
O1    O     O_R   0.385370 0.683250 0.500010 -0.623286
O2    O     O_R   0.614700 0.683220 0.500010 -0.638588
O3    O     O_R   0.328400 0.499990 0.653620 -0.615023
O4    O     O_R   0.557730 0.499960 0.653620 -0.609030
O5    O     O_R   0.385300 0.316780 0.499990 -0.613251
O6    O     O_R   0.614630 0.316750 0.499990 -0.619489
O7    O     O_R   0.442270 0.500040 0.346380 -0.621950
O8    O     O_R   0.671600 0.500010 0.346380 -0.615165
Zn1   Zn    Zn3+2 0.346870 0.500020 0.500000 0.931775
Zn2   Zn    Zn3+2 0.653130 0.499980 0.500000 0.935052

loop_
_geom_bond_atom_site_label_1
_geom_bond_atom_site_label_2
_ccdc_geom_bond_type
O6    Zn2   S    
C4    O3    A    
C2    C4    S    
C5    H8    S    
N1    Zn1   S    
O5    Zn1   S    
C29   C30   A    
C3    C9    A    
C12   C29   A    
C28   H18   S    
C25   H13   S    
O4    Zn2   S    
C24   H4    S    
C31   C32   A    
C16   O8    A    
C17   H24   S    
C28   H19   S    
C13   H22   S    
C22   H6    S    
C23   C32   A    
C31   H23   S    
C24   H3    S    
C6    C15   S    
C27   H20   S    
C14   N2    A    
C7    C8    A    
C13   C14   A    
C27   C33   S    
C17   C30   A    
C18   C34   A    
C25   H14   S    
C14   H16   S    
C16   O7    A    
C3    H2    S    
O3    Zn1   S    
C22   C24   S    
O8    Zn2   S    
C15   O5    A    
C18   C33   A    
C26   H9    S    
C1    O2    A    
C6    C7    A    
C11   N1    A    
C7    C25   S    
C5    C6    A    
C22   C34   S    
C28   H17   S    
C27   H21   S    
C1    O1    A    
C22   H7    S    
C10   C11   A    
C26   H10   S    
O2    Zn2   S    
C29   C33   A    
C2    C23   A    
C24   H5    S    
C1    C9    S    
C20   C21   A    
C21   H26   S    
C16   C18   S    
C3    C5    A    
C17   C34   A    
O1    Zn1   S    
C20   H27   S    
O7    Zn1   S    
C15   O6    A    
N2    Zn2   S    
C30   C31   A    
C11   H12   S    
C12   C23   A    
C32   H28   S    
C26   H11   S    
C19   H25   S    
C25   C26   S    
C2    C19   A    
C10   H15   S    
C4    O4    A    
C12   C21   A    
C10   N2    A    
C19   C20   A    
C8    C9    A    
C27   C28   S    
C8    H1    S    
C13   N1    A    
