data_mof_unit_61393.cif
_audit_creation_date              2012-10-26T17:27:21-0400
_audit_creation_method            fapswitch 2.2
_symmetry_space_group_name_H-M    P1
_symmetry_Int_Tables_number       1
_space_group_crystal_system       triclinic
_cell_length_a                    18.782781
_cell_length_b                    18.763464
_cell_length_c                    18.828649
_cell_angle_alpha                 109.418477
_cell_angle_beta                  109.305066
_cell_angle_gamma                 109.102646
_cell_volume                      5144.89916821

loop_
_atom_site_label
_atom_site_type_symbol
_atom_type_description
_atom_site_fract_x
_atom_site_fract_y
_atom_site_fract_z
_atom_type_partial_charge
C1    C     C_R   0.118649 0.999759 0.618437 0.550527
C2    C     C_R   0.228571 0.966247 0.802156 -0.153406
C3    C     C_R   0.314768 0.005604 0.819556 -0.011382
C4    C     C_R   0.120959 0.118709 0.501700 0.534636
C5    C     C_R   0.335334 0.050258 0.776697 0.011599
C6    C     C_3   0.388728 0.048085 0.733083 -0.116359
C7    C     C_3   0.317315 0.041842 0.658367 -0.148584
C8    C     C_R   0.751621 0.738311 0.428605 0.014399
C9    C     C_R   0.815364 0.816708 0.502196 0.003982
C10   C     C_R   0.812182 0.832419 0.579480 -0.110220
C11   C     C_R   0.748046 0.768910 0.581768 -0.033714
C12   C     C_R   0.257531 0.171531 0.491875 0.009268
C13   C     C_R   0.684160 0.689182 0.504039 0.027661
C14   C     C_R   0.688144 0.678351 0.429169 0.005819
C15   C     C_3   0.644794 0.617357 0.334304 -0.122829
C16   C     C_R   0.881683 0.001331 0.381498 0.544903
C17   C     C_3   0.717750 0.686241 0.333829 -0.115661
C18   C     C_R   0.755350 0.926890 0.235438 -0.020935
C19   C     C_R   0.812343 0.001487 0.316572 -0.003630
C20   C     C_R   0.795778 0.072645 0.334648 -0.039364
C21   C     C_R   0.731879 0.070963 0.268160 -0.152463
C22   C     C_R   0.682788 0.998886 0.185013 0.019253
C23   C     C_R   0.190494 0.185181 0.502712 -0.011678
C24   C     C_R   0.691071 0.925070 0.171269 0.004009
C25   C     C_3   0.699114 0.866758 0.101147 -0.143315
C26   C     C_3   0.771085 0.869843 0.172415 -0.248569
C27   C     C_R   0.499704 0.618980 0.618658 0.540968
C28   C     C_R   0.881138 0.881576 0.500106 0.555882
C29   C     C_R   0.381640 0.379762 0.498383 0.540367
C30   C     C_R   0.500036 0.381180 0.381822 0.535967
C31   C     C_R   0.618287 0.619799 0.501116 0.542811
C32   C     C_R   0.500338 0.118653 0.119114 0.545775
C33   C     C_R   0.381291 0.001074 0.882052 0.545370
C34   C     C_R   0.187978 0.261693 0.509936 -0.042251
C35   C     C_R   0.500019 0.881416 0.881503 0.552294
C36   C     C_R   0.618174 0.998376 0.117111 0.551826
C37   C     C_R   0.459387 0.732888 0.665705 0.056663
C38   C     C_R   0.496063 0.683023 0.684815 0.002345
C39   C     C_R   0.524906 0.692684 0.768384 -0.151378
C40   C     C_R   0.266611 0.098795 0.488941 -0.116979
C41   C     C_R   0.525248 0.757379 0.832957 -0.136688
C42   C     C_R   0.498713 0.814020 0.814963 0.024771
C43   C     C_R   0.460468 0.797014 0.729824 -0.016330
C44   C     C_3   0.473560 0.856234 0.692942 -0.236145
C45   C     C_R   0.250675 0.323273 0.507116 -0.149887
C46   C     C_3   0.473203 0.785991 0.621707 0.003729
C47   C     C_R   0.426933 0.239014 0.251628 0.008789
C48   C     C_R   0.501864 0.315640 0.316861 0.015435
C49   C     C_R   0.580284 0.326751 0.317989 -0.159381
C50   C     C_R   0.580195 0.262399 0.252437 -0.151975
C51   C     C_R   0.502099 0.185095 0.187220 0.017940
C52   C     C_R   0.328765 0.083864 0.471981 -0.099569
C53   C     C_R   0.427263 0.175993 0.190820 0.017390
C54   C     C_3   0.332040 0.117729 0.146714 -0.263722
C55   C     C_3   0.331950 0.189482 0.216864 -0.272917
C56   C     C_R   0.315665 0.310163 0.495652 -0.007186
C57   C     C_R   0.384322 0.141350 0.458262 0.007956
C58   C     C_R   0.379510 0.215900 0.465306 -0.085142
C59   C     C_R   0.318370 0.233225 0.484730 0.009816
C60   C     C_1   0.120787 0.278850 0.518457 0.224683
C61   C     C_1   0.272278 0.957787 0.578556 0.177873
C62   C     C_3   0.749896 0.790246 0.667134 -0.386416
C63   C     C_3   0.647450 0.532719 0.314600 -0.411565
C64   C     C_3   0.686436 0.729371 0.283790 -0.417350
C65   C     C_1   0.844038 0.149475 0.418740 0.238683
C66   C     C_1   0.729700 0.907741 0.054819 0.195084
C67   C     C_R   0.270797 0.045324 0.709615 -0.025610
C68   C     C_3   0.395684 0.744911 0.531556 -0.363613
C69   C     C_3   0.560366 0.814657 0.622943 -0.385317
C70   C     C_3   0.449406 0.124479 0.436794 -0.398713
C71   C     C_1   0.075124 0.918782 0.717686 0.207076
C72   C     C_1   0.470211 0.130549 0.780332 0.214185
C73   C     C_R   0.183819 0.998864 0.685434 0.016895
C74   C     C_R   0.163154 0.963405 0.735951 -0.035366
Cu1   Cu    Cu3+1 0.000020 0.938200 0.438210 0.952882
Cu2   Cu    Cu3+1 0.999980 0.061800 0.561790 1.001356
Cu3   Cu    Cu3+1 0.438170 0.500030 0.438220 0.915841
Cu4   Cu    Cu3+1 0.561770 0.500000 0.561810 0.939654
Cu5   Cu    Cu3+1 0.561810 0.061820 0.000030 0.983493
Cu6   Cu    Cu3+1 0.438190 0.938280 0.000080 0.941048
H1    H     H_    0.398131 0.990448 0.718209 0.107075
H2    H     H_    0.836922 0.903894 0.181354 0.159322
H3    H     H_    0.549027 0.651873 0.784401 0.142157
H4    H     H_    0.549391 0.765439 0.897474 0.116713
H5    H     H_    0.416726 0.865984 0.670119 0.125748
H6    H     H_    0.536711 0.917418 0.737021 0.145453
H7    H     H_    0.333056 0.026893 0.469115 0.128718
H8    H     H_    0.640769 0.385331 0.368091 0.126784
H9    H     H_    0.640743 0.272558 0.253335 0.134326
H10   H     H_    0.298011 0.108212 0.080753 0.142242
H11   H     H_    0.315758 0.057409 0.151187 0.148156
H12   H     H_    0.336529 0.098758 0.648255 0.116856
H13   H     H_    0.297439 0.221013 0.191343 0.153860
H14   H     H_    0.316350 0.170838 0.262265 0.136892
H15   H     H_    0.423192 0.259234 0.454087 0.133631
H16   H     H_    0.249303 0.382652 0.514498 0.133405
H17   H     H_    0.211565 0.935180 0.837896 0.143593
H18   H     H_    0.691473 0.742553 0.661161 0.151550
H19   H     H_    0.807872 0.793140 0.712408 0.162693
H20   H     H_    0.753869 0.854545 0.695519 0.121170
H21   H     H_    0.713276 0.545055 0.355121 0.144525
H22   H     H_    0.600985 0.492189 0.327566 0.151407
H23   H     H_    0.859743 0.893783 0.638250 0.160773
H24   H     H_    0.628171 0.496684 0.245290 0.143349
H25   H     H_    0.643455 0.750869 0.301983 0.142234
H26   H     H_    0.743000 0.786723 0.297919 0.158927
H27   H     H_    0.650272 0.682722 0.213282 0.133763
H28   H     H_    0.393552 0.688494 0.484512 0.157877
H29   H     H_    0.333681 0.722349 0.532703 0.143246
H30   H     H_    0.401695 0.793263 0.509123 0.134702
H31   H     H_    0.614191 0.841269 0.688679 0.130455
H32   H     H_    0.559540 0.758835 0.576557 0.150946
H33   H     H_    0.572766 0.865720 0.604088 0.135942
H34   H     H_    0.578907 0.607622 0.298458 0.155694
H35   H     H_    0.445558 0.062944 0.433268 0.132658
H36   H     H_    0.437325 0.120059 0.373199 0.135869
H37   H     H_    0.515737 0.178503 0.487278 0.146445
H38   H     H_    0.763278 0.666214 0.319669 0.159075
H39   H     H_    0.227241 0.053074 0.500977 0.150715
H40   H     H_    0.721292 0.126342 0.280738 0.117911
H41   H     H_    0.640424 0.801637 0.057615 0.107107
H42   H     H_    0.753389 0.806155 0.170032 0.123868
N1    N     N_1   0.067377 0.293226 0.525478 -0.252164
N2    N     N_1   0.236988 0.891783 0.515896 -0.301126
N3    N     N_1   0.881905 0.210994 0.486078 -0.252538
N4    N     N_1   0.753534 0.939866 0.018297 -0.281051
N5    N     N_1   0.004746 0.882631 0.703434 -0.319426
N6    N     N_1   0.534362 0.195414 0.817516 -0.287667
O1    O     O_R   0.090180 0.947810 0.537990 -0.498014
O2    O     O_R   0.447830 0.038100 0.090230 -0.513115
O3    O     O_R   0.462030 0.052220 0.909860 -0.501362
O4    O     O_R   0.090150 0.052180 0.642350 -0.508264
O5    O     O_R   0.357640 0.947890 0.909900 -0.516565
O6    O     O_R   0.552170 0.962000 0.909870 -0.503781
O7    O     O_R   0.447780 0.857670 0.909910 -0.508989
O8    O     O_R   0.642360 0.052210 0.090200 -0.497208
O9    O     O_R   0.537970 0.947880 0.090240 -0.513585
O10   O     O_R   0.090190 0.037990 0.447830 -0.520989
O11   O     O_R   0.090170 0.142360 0.552190 -0.491643
O12   O     O_R   0.552150 0.590170 0.642370 -0.515951
O13   O     O_R   0.909850 0.947820 0.357650 -0.520506
O14   O     O_R   0.909820 0.052190 0.462010 -0.492631
O15   O     O_R   0.909830 0.857640 0.447810 -0.511172
O16   O     O_R   0.909810 0.962010 0.552170 -0.515734
O17   O     O_R   0.447770 0.590190 0.538000 -0.513768
O18   O     O_R   0.357600 0.409850 0.447820 -0.507233
O19   O     O_R   0.461980 0.409830 0.552180 -0.507945
O20   O     O_R   0.447790 0.409860 0.357660 -0.508455
O21   O     O_R   0.552170 0.409840 0.462020 -0.514514
O22   O     O_R   0.537960 0.590200 0.447840 -0.521032
O23   O     O_R   0.642340 0.590180 0.552210 -0.504451
O24   O     O_R   0.552220 0.142430 0.090190 -0.512248

loop_
_geom_bond_atom_site_label_1
_geom_bond_atom_site_label_2
_ccdc_geom_bond_type
C37   C43   A    
Cu3   O17   S    
Cu2   O4    S    
C73   C74   A    
C19   C20   A    
C18   C26   S    
C5    C67   A    
C11   C62   S    
C32   O2    A    
C64   H25   S    
C39   C41   A    
Cu3   Cu4   S    
C6    C72   S    
Cu5   O8    S    
C12   C23   A    
C69   H33   S    
Cu6   O7    S    
C72   N6    T    
C61   N2    T    
C18   C24   A    
C30   C48   S    
C10   H23   S    
C54   H10   S    
C21   H40   S    
C1    O1    A    
C63   H22   S    
C17   C64   S    
C38   C39   A    
C69   H32   S    
C3    C33   S    
C27   C38   S    
Cu6   O9    S    
C18   C19   A    
C41   C42   A    
C35   C42   S    
C7    C61   S    
C46   C69   S    
Cu1   O13   S    
C62   H18   S    
C12   C59   A    
C45   C56   A    
C8    C9    A    
C30   O20   A    
C67   C73   A    
C66   N4    T    
C57   C70   S    
C9    C10   A    
C2    C74   A    
C63   H21   S    
C47   C53   A    
C1    O4    A    
C26   H2    S    
C6    H1    S    
C13   C14   A    
C34   C60   S    
C49   H8    S    
C71   N5    T    
C55   H14   S    
C44   H6    S    
C36   O8    A    
C35   O6    A    
C44   C46   S    
Cu4   O23   S    
Cu6   O2    S    
C58   H15   S    
C20   C65   S    
C24   C25   S    
C2    H17   S    
C52   C57   A    
C35   O7    A    
C29   O18   A    
C28   O15   A    
C31   O22   A    
C30   O21   A    
C70   H36   S    
C58   C59   A    
C40   C52   A    
C41   H4    S    
C4    O10   A    
Cu6   O5    S    
C62   H19   S    
C51   C53   A    
C65   N3    T    
C12   C40   A    
C60   N1    T    
C16   O14   A    
Cu1   Cu2   S    
C32   C51   S    
C46   C68   S    
C37   C38   A    
C31   O23   A    
C50   H9    S    
C47   C48   A    
C32   O24   A    
C27   O17   A    
C23   C34   A    
Cu5   O3    S    
C50   C51   A    
C15   H34   S    
C34   C45   A    
C68   H30   S    
C64   H26   S    
Cu3   O20   S    
Cu1   O15   S    
Cu4   O19   S    
C28   O16   A    
C17   H38   S    
C48   C49   A    
C43   C44   S    
C62   H20   S    
C42   C43   A    
C44   H5    S    
Cu2   O16   S    
C64   H27   S    
C47   C55   S    
C36   O9    A    
Cu2   O11   S    
C15   C17   S    
Cu5   O6    S    
C54   C55   S    
C8    C14   A    
C55   H13   S    
C13   C31   S    
C52   H7    S    
C25   C66   S    
C8    C17   S    
C63   H24   S    
C3    C5    A    
Cu1   O10   S    
Cu4   O12   S    
Cu3   O22   S    
C29   O19   A    
C71   C74   S    
C53   C54   S    
C6    C7    S    
C29   C56   S    
C70   H35   S    
C22   C36   S    
C27   O12   A    
C56   C59   A    
C1    C73   S    
C2    C3    A    
C25   C26   S    
C39   H3    S    
C54   H11   S    
C4    O11   A    
C11   C13   A    
C33   O3    A    
C57   C58   A    
C5    C6    S    
C16   C19   S    
C7    H12   S    
C26   H42   S    
C37   C46   S    
C16   O13   A    
C22   C24   A    
C68   H29   S    
C69   H31   S    
C68   H28   S    
C10   C11   A    
C7    C67   S    
Cu5   Cu6   S    
C33   O5    A    
C40   H39   S    
C20   C21   A    
Cu4   O21   S    
C49   C50   A    
C15   C63   S    
C14   C15   S    
C70   H37   S    
C4    C23   S    
C21   C22   A    
C45   H16   S    
C25   H41   S    
Cu3   O18   S    
Cu1   O1    S    
C9    C28   S    
Cu5   O24   S    
Cu2   O14   S    
