data_mof_unit_10748.cif
_audit_creation_date              2013-03-05T15:41:00-0500
_audit_creation_method            fapswitch 2.2
_symmetry_space_group_name_H-M    P1
_symmetry_Int_Tables_number       1
_space_group_crystal_system       triclinic
_cell_length_a                    10.71224
_cell_length_b                    8.796901
_cell_length_c                    7.473158
_cell_angle_alpha                 102.77894
_cell_angle_beta                  94.784055
_cell_angle_gamma                 93.788037
_cell_volume                      681.800715367

loop_
_atom_site_label
_atom_site_type_symbol
_atom_site_description
_atom_site_fract_x
_atom_site_fract_y
_atom_site_fract_z
_atom_type_partial_charge
O1    O     O_R   0.509140 0.286130 0.619770 -0.578187
O2    O     O_R   0.485380 0.256770 0.308360 -0.516791
C1    C     C_R   0.492998 0.200568 0.454151 0.813324
O3    O     O_R   0.329570 0.514650 0.655700 -0.615821
O4    O     O_R   0.305810 0.485300 0.344290 -0.549325
C2    C     C_R   0.259852 0.497091 0.500589 0.761120
Cu1   Cu    Cu3+1 0.514070 0.517380 0.684380 1.106513
Cu2   Cu    Cu3+1 0.485930 0.482620 0.315620 1.122489
O5    O     O_R   0.514620 0.743230 0.691640 -0.494152
O6    O     O_R   0.490860 0.713870 0.380230 -0.541540
O7    O     O_R   0.694190 0.514700 0.655710 -0.573492
O8    O     O_R   0.670430 0.485350 0.344300 -0.543774
C3    C     C_R   0.498698 0.799047 0.545635 0.824649
C4    C     C_R   0.740069 0.500829 0.499510 0.769242
C5    C     C_3   0.084857 0.525287 0.700947 -0.438010
H1    H     H_    0.132524 0.637879 0.785056 0.222771
H2    H     H_    0.115231 0.430351 0.767261 0.212651
C6    C     C_3   0.942420 0.530978 0.701193 -0.351740
H3    H     H_    0.905575 0.442142 0.773591 0.214537
H4    H     H_    0.921716 0.648039 0.780103 0.212772
H5    H     H_    0.117892 0.744895 0.497337 0.175869
H6    H     H_    0.903339 0.743289 0.474968 0.179127
C7    C     C_3   0.074865 0.629662 0.413791 -0.350338
C8    C     C_3   0.054553 0.334879 0.390029 0.233066
C9    C     C_3   0.121717 0.496047 0.500257 0.055993
H7    H     H_    0.087295 0.241104 0.456366 0.116662
C10   C     C_3   0.877986 0.498977 0.500092 0.046779
C11   C     C_3   0.930705 0.626392 0.406058 -0.345732
C12   C     C_3   0.910550 0.336674 0.394906 -0.372850
H8    H     H_    0.875657 0.244790 0.464326 0.149352
H9    H     H_    0.861299 0.308173 0.252877 0.234665
H10   H     H_    0.103625 0.618318 0.272066 0.221867
H11   H     H_    0.891269 0.601150 0.259247 0.230882
C13   C     C_2   0.493151 0.034376 0.426710 0.034180
C14   C     C_2   0.483144 0.963062 0.568786 0.061022
N1    N     N_2   0.464720 0.456420 0.038520 -0.122808
H12   H     H_    0.392935 0.388418 0.951107 0.232131
N2    N     N_2   0.535280 0.543580 0.961480 0.110476
N3    N     N_R   0.508105 0.951195 0.242196 0.169130
O9    O     O_R   0.604748 0.992145 0.163403 -0.277008
O10   O     O_R   0.409909 0.875135 0.138706 -0.284693
Cl1   Cl    Cl    0.442481 0.056834 0.789708 -0.506129
Cl2   Cl    Cl    0.663388 0.659067 0.085302 -0.429081
Cl3   Cl    Cl    0.089622 0.282413 0.153962 -0.619796

loop_
_geom_bond_atom_site_label_1
_geom_bond_atom_site_label_2
_geom_bond_distance
_ccdc_geom_bond_type
C5    C6    1.530080 S    
C5    H2    1.114010 S    
C12   H8    1.113608 S    
C4    C10   1.478217 S    
C10   C12   1.546981 S    
Cu2   O8    1.968119 S    
C7    H10   1.112826 S    
N1    N2    1.296907 D    
O2    C1    1.291103 A    
N2    Cl2   1.720393 S    
N3    O10   1.301815 A    
H6    C11   1.113260 S    
C7    C11   1.538649 S    
Cu1   O7    1.960134 S    
O3    Cu1   1.968120 S    
Cu2   O6    1.980218 S    
N1    H12   1.028820 S    
Cu1   N2    2.023973 S    
C8    H7    1.113302 S    
C11   H11   1.110859 S    
C3    C14   1.437211 S    
C6    H4    1.113884 S    
C7    C9    1.552682 S    
H5    C7    1.113604 S    
O4    C2    1.290944 A    
C8    Cl3   1.799910 S    
O7    C4    1.288267 A    
C5    C9    1.553378 S    
O4    Cu2   1.960134 S    
N3    O9    1.301728 A    
O3    C2    1.298632 A    
C13   N3    1.438207 S    
C2    C9    1.478950 S    
Cu1   Cu2   2.693564 S    
C8    C9    1.567164 S    
C12   H9    1.113184 S    
C13   C14   1.355414 D    
Cu2   N1    2.023973 S    
C10   C11   1.549227 S    
Cu1   O5    1.975092 S    
C14   Cl1   1.777893 S    
O5    C3    1.295281 A    
C8    C12   1.547107 S    
C6    H3    1.114057 S    
C1    C13   1.430794 S    
O1    Cu1   1.980218 S    
O2    Cu2   1.975093 S    
C6    C10   1.558333 S    
C5    H1    1.114034 S    
O8    C4    1.301083 A    
O1    C1    1.289691 A    
O6    C3    1.288828 A    
