data_mof_unit_32211.cif
_audit_creation_date              2012-12-11T14:56:09-0500
_audit_creation_method            fapswitch 2.2
_symmetry_space_group_name_H-M    P1
_symmetry_Int_Tables_number       1
_space_group_crystal_system       triclinic
_cell_length_a                    28.001193
_cell_length_b                    17.297688
_cell_length_c                    18.063111
_cell_angle_alpha                 90.222569
_cell_angle_beta                  137.845045
_cell_angle_gamma                 89.852284
_cell_volume                      5871.72404503

loop_
_atom_site_label
_atom_site_type_symbol
_atom_type_description
_atom_site_fract_x
_atom_site_fract_y
_atom_site_fract_z
_atom_type_partial_charge
C1    C     C_R   0.687199 0.898987 0.802001 -0.128218
C2    C     C_R   0.328200 0.080016 0.182610 -0.118486
C3    C     C_R   0.313254 0.898390 0.197207 -0.139768
C4    C     C_R   0.668992 0.078998 0.817055 -0.129925
C5    C     C_R   0.187197 0.398988 0.802007 -0.128233
C6    C     C_R   0.828195 0.580019 0.182610 -0.118487
C7    C     C_R   0.813252 0.398386 0.197215 -0.139785
C8    C     C_R   0.168990 0.578994 0.817055 -0.129890
C9    C     C_3   0.729678 0.299492 0.986135 -0.151486
C10   C     C_3   0.235747 0.655133 0.047344 -0.149158
C11   C     C_3   0.297565 0.297229 0.009228 -0.159486
C12   C     C_3   0.734228 0.658997 0.954264 -0.171112
C13   C     C_3   0.229600 0.799516 0.986097 -0.151521
C14   C     C_3   0.735663 0.155155 0.047320 -0.149107
C15   C     C_3   0.797594 0.797205 0.009196 -0.159477
C16   C     C_3   0.234263 0.158969 0.954244 -0.171099
C17   C     C_R   0.721472 0.757022 0.639013 0.150739
C18   C     C_R   0.377545 0.159605 0.626095 0.146590
C19   C     C_R   0.279390 0.756564 0.363554 0.144762
C20   C     C_R   0.622262 0.158633 0.373794 0.142786
C21   C     C_R   0.221472 0.257024 0.639007 0.150728
C22   C     C_R   0.877537 0.659611 0.626083 0.146605
C23   C     C_R   0.779391 0.256567 0.363566 0.144785
C24   C     C_R   0.122273 0.658648 0.373812 0.142796
C25   C     C_R   0.391726 0.259073 0.735854 -0.265729
C26   C     C_R   0.745582 0.627832 0.621977 -0.261592
C27   C     C_R   0.608300 0.257640 0.264558 -0.262470
C28   C     C_R   0.255807 0.627474 0.381003 -0.265306
C29   C     C_R   0.891722 0.759075 0.735850 -0.265733
C30   C     C_R   0.245585 0.127832 0.621979 -0.261591
C31   C     C_R   0.108307 0.757650 0.264567 -0.262486
C32   C     C_R   0.755806 0.127473 0.381001 -0.265321
C33   C     C_R   0.415972 0.222348 0.700279 -0.137017
C34   C     C_R   0.705591 0.677457 0.620154 -0.198113
C35   C     C_R   0.583586 0.220793 0.299117 -0.129726
C36   C     C_R   0.295826 0.677133 0.383284 -0.183247
C37   C     C_R   0.915964 0.722354 0.700268 -0.137055
C38   C     C_R   0.205593 0.177459 0.620153 -0.198129
C39   C     C_R   0.083599 0.720810 0.299139 -0.129761
C40   C     C_R   0.795826 0.177135 0.383288 -0.183206
C41   C     C_R   0.327509 0.121614 0.612934 -0.286482
C42   C     C_R   0.789956 0.780357 0.697122 -0.274208
C43   C     C_R   0.672948 0.120938 0.388030 -0.289720
C44   C     C_R   0.210748 0.779586 0.305167 -0.286168
C45   C     C_R   0.827502 0.621619 0.612924 -0.286474
C46   C     C_R   0.289956 0.280360 0.697114 -0.274215
C47   C     C_R   0.172954 0.620948 0.388041 -0.289716
C48   C     C_R   0.710749 0.279588 0.305181 -0.286183
C49   C     C_R   0.303481 0.157705 0.649637 0.197136
C50   C     C_R   0.830734 0.731183 0.700345 0.192702
C51   C     C_R   0.697383 0.157048 0.352241 0.199221
C52   C     C_R   0.169885 0.730253 0.301316 0.194542
C53   C     C_R   0.803478 0.657706 0.649633 0.197127
C54   C     C_R   0.330736 0.231184 0.700344 0.192697
C55   C     C_R   0.197386 0.657053 0.352246 0.199217
C56   C     C_R   0.669883 0.230250 0.301317 0.194533
C57   C     C_R   0.356648 0.074330 0.486521 -0.228373
C58   C     C_R   0.675346 0.895411 0.599342 -0.236745
C59   C     C_R   0.642958 0.073886 0.512855 -0.228793
C60   C     C_R   0.324753 0.895221 0.400915 -0.236595
C61   C     C_R   0.856643 0.574335 0.486513 -0.228367
C62   C     C_R   0.175345 0.395413 0.599339 -0.236742
C63   C     C_R   0.142964 0.573894 0.512865 -0.228794
C64   C     C_R   0.824754 0.395222 0.400920 -0.236585
C65   C     C_R   0.408173 0.803923 0.496729 0.507196
C66   C     C_R   0.569756 0.175671 0.441778 0.482366
C67   C     C_R   0.592210 0.803733 0.504062 0.508155
C68   C     C_R   0.431018 0.175087 0.559774 0.484488
C69   C     C_R   0.908174 0.303924 0.496734 0.507198
C70   C     C_R   0.069761 0.675677 0.441790 0.482383
C71   C     C_R   0.092210 0.303733 0.504061 0.508147
C72   C     C_R   0.931017 0.675089 0.559771 0.484498
C73   C     C_R   0.589089 0.174897 0.728308 -0.179389
C74   C     C_R   0.396849 0.807026 0.286098 -0.130046
C75   C     C_R   0.409361 0.174646 0.270254 -0.205212
C76   C     C_R   0.604516 0.806723 0.712904 -0.133732
C77   C     C_R   0.089087 0.674892 0.728312 -0.179396
C78   C     C_R   0.896848 0.307023 0.286106 -0.130029
C79   C     C_R   0.909357 0.674650 0.270253 -0.205190
C80   C     C_R   0.104515 0.306725 0.712907 -0.133719
C81   C     C_R   0.674592 0.823660 0.805122 0.009566
C82   C     C_R   0.350606 0.142871 0.168985 0.037721
C83   C     C_R   0.327000 0.823503 0.193260 0.011923
C84   C     C_R   0.645165 0.141718 0.829500 0.029527
C85   C     C_R   0.174589 0.323662 0.805131 0.009568
C86   C     C_R   0.850597 0.642878 0.168984 0.037713
C87   C     C_R   0.826997 0.323495 0.193275 0.011923
C88   C     C_R   0.145160 0.641708 0.829503 0.029509
C89   C     C_R   0.386718 0.137642 0.558535 -0.069076
C90   C     C_R   0.664871 0.815960 0.580192 -0.086169
C91   C     C_R   0.612987 0.137197 0.441232 -0.041113
C92   C     C_R   0.335548 0.815854 0.420932 -0.086038
C93   C     C_R   0.886712 0.637648 0.558525 -0.069115
C94   C     C_R   0.164871 0.315961 0.580188 -0.086156
C95   C     C_R   0.112996 0.637209 0.441248 -0.041135
C96   C     C_R   0.835549 0.315856 0.420941 -0.086059
C97   C     C_3   0.666594 0.256056 0.948622 -0.172774
C98   C     C_3   0.298874 0.699163 0.085063 -0.175380
C99   C     C_3   0.328180 0.219139 0.017400 -0.147134
C100  C     C_3   0.704188 0.736861 0.946859 -0.149877
C101  C     C_3   0.166580 0.755989 0.948686 -0.172713
C102  C     C_3   0.798858 0.199096 0.085144 -0.175385
C103  C     C_3   0.828155 0.719076 0.017342 -0.147104
C104  C     C_3   0.204168 0.236795 0.946812 -0.149918
C105  C     C_3   0.214570 0.728268 0.068188 -0.141167
C106  C     C_3   0.751525 0.227417 0.967137 -0.141786
C107  C     C_3   0.754029 0.695170 0.901472 -0.144739
C108  C     C_3   0.277105 0.261449 0.060471 -0.147279
C109  C     C_3   0.714501 0.228350 0.068100 -0.141168
C110  C     C_3   0.251460 0.727499 0.967035 -0.141760
C111  C     C_3   0.254082 0.195210 0.901507 -0.144718
C112  C     C_3   0.777152 0.761492 0.060494 -0.147309
C113  C     C_3   0.276672 0.771058 0.103449 0.191559
C114  C     C_3   0.689029 0.184289 0.930392 0.186012
C115  C     C_3   0.724771 0.772305 0.896078 0.188289
C116  C     C_3   0.306961 0.184171 0.067446 0.185119
C117  C     C_3   0.776670 0.271050 0.103465 0.191561
C118  C     C_3   0.189030 0.684282 0.930393 0.186008
C119  C     C_3   0.224770 0.272306 0.896087 0.188291
C120  C     C_3   0.806954 0.684176 0.067443 0.185121
H1    H     H_    0.916124 0.813000 0.781160 0.131188
H2    H     H_    0.226990 0.069336 0.590982 0.136851
H3    H     H_    0.083668 0.811257 0.218917 0.131721
H4    H     H_    0.774678 0.069178 0.412342 0.136360
H5    H     H_    0.416128 0.312999 0.781161 0.131189
H6    H     H_    0.726986 0.569336 0.590976 0.136849
H7    H     H_    0.583660 0.311247 0.218908 0.131719
H8    H     H_    0.274680 0.569180 0.412349 0.136358
H9    H     H_    0.611269 0.277810 0.890592 0.117576
H10   H     H_    0.353852 0.676777 0.141834 0.114207
H11   H     H_    0.380238 0.210071 0.049474 0.115840
H12   H     H_    0.652484 0.745326 0.916146 0.110714
H13   H     H_    0.111242 0.777684 0.890713 0.117562
H14   H     H_    0.853822 0.176651 0.141976 0.114201
H15   H     H_    0.880194 0.709953 0.049374 0.115851
H16   H     H_    0.152446 0.245206 0.916056 0.110719
H17   H     H_    0.728403 0.359511 0.963092 0.111313
H18   H     H_    0.236470 0.594802 0.068870 0.113191
H19   H     H_    0.322900 0.354602 0.030582 0.107206
H20   H     H_    0.709228 0.601481 0.933509 0.109231
H21   H     H_    0.228259 0.859553 0.963029 0.111297
H22   H     H_    0.736322 0.094842 0.068821 0.113199
H23   H     H_    0.822956 0.854555 0.030526 0.107207
H24   H     H_    0.209293 0.101430 0.933471 0.109233
H25   H     H_    0.806979 0.839723 0.723142 0.118543
H26   H     H_    0.301370 0.069460 0.563811 0.125221
H27   H     H_    0.193467 0.838801 0.278861 0.121356
H28   H     H_    0.699319 0.069125 0.437463 0.124634
H29   H     H_    0.306978 0.339727 0.723129 0.118547
H30   H     H_    0.801364 0.569465 0.563800 0.125220
H31   H     H_    0.693470 0.338805 0.278886 0.121356
H32   H     H_    0.199323 0.569135 0.437472 0.124633
N1    N     N_R   0.625380 0.928280 0.709340 -0.037562
N2    N     N_R   0.374620 0.071720 0.290660 -0.036990
N3    N     N_R   0.374620 0.928280 0.290660 -0.036756
N4    N     N_R   0.625380 0.071720 0.709340 -0.037848
N5    N     N_R   0.125380 0.428280 0.709340 -0.037561
N6    N     N_R   0.874620 0.571720 0.290660 -0.036990
N7    N     N_R   0.874620 0.428280 0.290660 -0.036758
N8    N     N_R   0.125380 0.571720 0.709340 -0.037852
N9    N     N_R   0.386100 0.070250 0.452470 -0.058822
N10   N     N_R   0.613900 0.929750 0.547530 -0.057921
N11   N     N_R   0.613900 0.070250 0.547530 -0.057856
N12   N     N_R   0.386100 0.929750 0.452470 -0.058232
N13   N     N_R   0.886100 0.570250 0.452470 -0.058822
N14   N     N_R   0.113900 0.429750 0.547530 -0.057921
N15   N     N_R   0.113900 0.570250 0.547530 -0.057857
N16   N     N_R   0.886100 0.429750 0.452470 -0.058231
N17   N     N_R   0.437800 0.869550 0.507970 -0.085928
N18   N     N_R   0.562200 0.130450 0.492030 -0.110439
N19   N     N_R   0.562200 0.869550 0.492030 -0.085437
N20   N     N_R   0.437800 0.130450 0.507970 -0.100920
N21   N     N_R   0.937800 0.369550 0.507970 -0.085926
N22   N     N_R   0.062200 0.630450 0.492030 -0.110437
N23   N     N_R   0.062200 0.369550 0.492030 -0.085439
N24   N     N_R   0.937800 0.630450 0.507970 -0.100908
N25   N     N_R   0.573690 0.128980 0.653840 -0.054363
N26   N     N_R   0.426310 0.871020 0.346160 -0.041619
N27   N     N_R   0.426310 0.128980 0.346160 -0.054832
N28   N     N_R   0.573690 0.871020 0.653840 -0.042120
N29   N     N_R   0.073690 0.628980 0.653840 -0.054365
N30   N     N_R   0.926310 0.371020 0.346160 -0.041624
N31   N     N_R   0.926310 0.628980 0.346160 -0.054828
N32   N     N_R   0.073690 0.371020 0.653840 -0.042118
Ni1   Ni    Ni4+2 0.616560 1.000000 0.627280 0.194559
Ni2   Ni    Ni4+2 0.383440 1.000000 0.372720 0.193762
Ni3   Ni    Ni4+2 0.116560 0.500000 0.627280 0.194561
Ni4   Ni    Ni4+2 0.883440 0.500000 0.372720 0.193762
Ni5   Ni    Ni4+2 0.497990 0.870580 0.500000 0.277712
Ni6   Ni    Ni4+2 0.502010 0.129420 0.500000 0.191630
Ni7   Ni    Ni4+2 0.997990 0.370580 0.500000 0.277709
Ni8   Ni    Ni4+2 0.002010 0.629420 0.500000 0.191645
H33   H     H_    0.738410 0.926795 0.855116 0.086768
H34   H     H_    0.280106 0.046901 0.119496 0.088359
H35   H     H_    0.261544 0.925141 0.143444 0.092598
H36   H     H_    0.716717 0.045875 0.881660 0.096768
H37   H     H_    0.238409 0.426795 0.855122 0.086774
H38   H     H_    0.780102 0.546902 0.119499 0.088356
H39   H     H_    0.761543 0.425137 0.143451 0.092608
H40   H     H_    0.216716 0.545873 0.881659 0.096757
H41   H     H_    0.318895 0.033276 0.464907 0.138149
H42   H     H_    0.726108 0.923776 0.664767 0.127065
H43   H     H_    0.680299 0.032460 0.533638 0.136462
H44   H     H_    0.273840 0.923209 0.335469 0.126687
H45   H     H_    0.818888 0.533282 0.464894 0.138146
H46   H     H_    0.226108 0.423778 0.664763 0.127064
H47   H     H_    0.180308 0.532469 0.533651 0.136461
H48   H     H_    0.773840 0.423210 0.335474 0.126682
O1    O     O_3   0.442543 0.733781 0.531685 -0.645423
C121  C     C_3   0.459511 0.710514 0.624070 0.203183
H49   H     H_    0.411588 0.709273 0.605356 0.104491
H50   H     H_    0.499316 0.750459 0.694955 0.089560
C122  C     C_3   0.490854 0.629351 0.658267 -0.902458
H51   H     H_    0.539286 0.627785 0.678787 0.255168
H52   H     H_    0.505426 0.611364 0.731974 0.208205
H53   H     H_    0.451248 0.587827 0.590180 0.255505
O2    O     O_3   0.553411 0.253834 0.420112 -0.673195
C123  C     C_3   0.559445 0.288237 0.497802 0.264376
H54   H     H_    0.613806 0.279287 0.583377 0.099869
H55   H     H_    0.519324 0.264205 0.490482 0.100081
C124  C     C_3   0.546566 0.374715 0.476272 -0.913778
H56   H     H_    0.491439 0.385543 0.393348 0.252418
H57   H     H_    0.553981 0.403019 0.539501 0.213170
H58   H     H_    0.584808 0.400274 0.480310 0.261034
O3    O     O_3   0.558539 0.733335 0.471358 -0.644849
C125  C     C_3   0.542281 0.707195 0.380320 0.201419
H59   H     H_    0.590222 0.705930 0.399085 0.105012
H60   H     H_    0.501796 0.745284 0.307607 0.091380
C126  C     C_3   0.512582 0.625382 0.350029 -0.907244
H61   H     H_    0.465417 0.623527 0.332765 0.256036
H62   H     H_    0.496575 0.605787 0.275440 0.208736
H63   H     H_    0.553624 0.585264 0.418921 0.254965
O4    O     O_3   0.446970 0.253038 0.579479 -0.680096
C127  C     C_3   0.401002 0.291994 0.477589 0.269670
H64   H     H_    0.344212 0.281632 0.427189 0.096580
H65   H     H_    0.410190 0.273129 0.429960 0.088538
C128  C     C_3   0.415144 0.378414 0.499043 -0.923378
H66   H     H_    0.471756 0.390657 0.551122 0.257981
H67   H     H_    0.380821 0.409677 0.419624 0.212901
H68   H     H_    0.403290 0.399506 0.542256 0.256119
O5    O     O_3   0.942543 0.233782 0.531692 -0.645426
C129  C     C_3   0.959510 0.210515 0.624075 0.203185
H69   H     H_    0.911585 0.209276 0.605359 0.104492
H70   H     H_    0.999314 0.250460 0.694961 0.089556
C130  C     C_3   0.990852 0.129352 0.658274 -0.902472
H71   H     H_    0.039286 0.127785 0.678799 0.255168
H72   H     H_    0.005420 0.111365 0.731977 0.208206
H73   H     H_    0.951247 0.087828 0.590185 0.255512
O6    O     O_3   0.053401 0.753836 0.420108 -0.673209
C131  C     C_3   0.059420 0.788239 0.497783 0.264327
H74   H     H_    0.113793 0.779335 0.583357 0.099885
H75   H     H_    0.019324 0.764171 0.490499 0.100103
C132  C     C_3   0.046471 0.874706 0.476181 -0.913801
H76   H     H_    0.991310 0.885484 0.393296 0.252356
H77   H     H_    0.053941 0.903023 0.539458 0.213186
H78   H     H_    0.084638 0.900292 0.480071 0.261092
O7    O     O_3   0.058542 0.233334 0.471366 -0.644852
C133  C     C_3   0.042281 0.207189 0.380326 0.201422
H79   H     H_    0.090219 0.205930 0.399083 0.105008
H80   H     H_    0.001789 0.245271 0.307609 0.091392
C134  C     C_3   0.012591 0.125372 0.350054 -0.907240
H81   H     H_    0.965439 0.123510 0.332820 0.256044
H82   H     H_    0.996569 0.105777 0.275451 0.208739
H83   H     H_    0.053644 0.085259 0.418942 0.254944
O8    O     O_3   0.946973 0.753038 0.579479 -0.680100
C135  C     C_3   0.900980 0.792000 0.477590 0.269664
H84   H     H_    0.844197 0.781623 0.427216 0.096574
H85   H     H_    0.910151 0.773156 0.429932 0.088554
C136  C     C_3   0.915107 0.878422 0.499047 -0.923377
H86   H     H_    0.971708 0.890684 0.551079 0.257991
H87   H     H_    0.880747 0.909692 0.419624 0.212894
H88   H     H_    0.903290 0.899487 0.542322 0.256129
H89   H     H_    0.568047 0.231855 0.713523 0.169875
H90   H     H_    0.420441 0.750352 0.315051 0.156697
H91   H     H_    0.431897 0.230246 0.284062 0.168424
H92   H     H_    0.580902 0.750001 0.685068 0.161738
H93   H     H_    0.068050 0.731852 0.713535 0.169896
H94   H     H_    0.920443 0.250350 0.315064 0.156684
H95   H     H_    0.931892 0.730249 0.284060 0.168443
H96   H     H_    0.080900 0.250002 0.685072 0.161737
H97   H     H_    0.201577 0.730424 0.113189 0.125489
H98   H     H_    0.765690 0.226130 0.923716 0.112287
H99   H     H_    0.743019 0.670262 0.833258 0.125177
H100  H     H_    0.287165 0.287591 0.127325 0.108316
H101  H     H_    0.701455 0.230571 0.113025 0.125463
H102  H     H_    0.265570 0.726278 0.923535 0.112288
H103  H     H_    0.243112 0.170336 0.833317 0.125193
H104  H     H_    0.787251 0.787669 0.127371 0.108311
H105  H     H_    0.658977 0.654377 0.593147 0.188215
H106  H     H_    0.461441 0.247119 0.724928 0.169401
H107  H     H_    0.342780 0.654162 0.411110 0.188826
H108  H     H_    0.537534 0.245026 0.273357 0.169970
H109  H     H_    0.158981 0.154379 0.593150 0.188226
H110  H     H_    0.961432 0.747127 0.724915 0.169401
H111  H     H_    0.842779 0.154166 0.411111 0.188819
H112  H     H_    0.037550 0.745049 0.273384 0.170005

loop_
_geom_bond_atom_site_label_1
_geom_bond_atom_site_label_2
_ccdc_geom_bond_type
C14   C109  S    
C31   C52   A    
C110  C118  S    
N4    Ni1   S    
C98   C110  S    
C16   H24   S    
N12   Ni2   S    
C14   C102  S    
C7    N7    A    
C131  H75   S    
C30   C38   A    
C26   H6    S    
N9    N20   A    
C16   C104  S    
N10   N19   A    
C30   H2    S    
C77   C88   A    
C38   H109  S    
C105  H97   S    
C127  H65   S    
C75   N27   A    
C74   C83   A    
C108  H100  S    
C131  C132  S    
N1    N28   A    
C130  H71   S    
C100  C115  S    
C69   N21   A    
C41   C49   A    
C122  H52   S    
C129  C130  S    
C78   H94   S    
C99   C116  S    
C112  C120  S    
N26   Ni5   S    
N20   Ni6   S    
C14   C114  S    
N21   Ni7   S    
C3    H35   S    
C127  C128  S    
C1    H33   S    
C126  H61   S    
C110  H102  S    
N32   Ni7   S    
C59   C91   A    
C70   O6    S    
N15   N22   A    
C30   C49   A    
C136  H87   S    
C3    C83   A    
C15   C115  S    
C17   C34   A    
C58   N10   A    
C19   C44   A    
C6    H38   S    
C4    H36   S    
C84   C114  S    
C75   H91   S    
C18   C89   S    
C100  H12   S    
C101  H13   S    
C68   O4    S    
C48   H31   S    
C22   C45   A    
C57   N9    A    
C47   H32   S    
C58   H42   S    
C126  H62   S    
C130  H73   S    
C103  C107  S    
C10   H18   S    
C78   N30   A    
C42   H25   S    
C62   H46   S    
C16   C111  S    
C78   C87   A    
C14   H22   S    
N17   Ni5   S    
C24   C39   A    
C33   H106  S    
N2    Ni2   S    
O6    C131  S    
C101  C118  S    
C105  C113  S    
C126  H63   S    
N28   Ni5   S    
C132  H76   S    
N29   Ni8   S    
C111  C119  S    
O5    C129  S    
C85   C119  S    
N11   N18   A    
C25   H5    S    
C19   C92   S    
C20   C35   A    
C123  H55   S    
C60   H44   S    
C41   H26   S    
N5    N32   A    
N6    N31   A    
N3    N26   A    
C104  C119  S    
C5    C85   A    
C44   C52   A    
C63   N15   A    
C45   C53   A    
C2    N2    A    
C128  H66   S    
C27   H7    S    
C6    N6    A    
C60   C92   A    
C64   C96   A    
C5    H37   S    
O2    C123  S    
C67   C90   A    
C8    C88   A    
C124  H56   S    
C97   C109  S    
C77   N29   A    
C99   C111  S    
O1    C121  S    
C70   N22   A    
C102  C117  S    
C135  H85   S    
C42   C50   A    
C15   H23   S    
C62   N14   A    
C121  H50   S    
C8    H40   S    
C88   C118  S    
N8    N29   A    
C123  C124  S    
N25   Ni6   S    
C104  H16   S    
C15   C112  S    
N5    Ni3   S    
C135  C136  S    
N6    Ni4   S    
C134  H83   S    
C75   C82   A    
C71   O7    S    
C121  C122  S    
C6    C86   A    
C15   C103  S    
C133  H79   S    
C69   O5    S    
C60   N12   A    
C79   N31   A    
C61   N13   A    
C80   N32   A    
C18   C33   A    
C59   N11   A    
C46   H29   S    
C125  H59   S    
C128  H68   S    
C57   H41   S    
C11   C108  S    
C86   C120  S    
N8    Ni3   S    
C97   C114  S    
N2    N27   A    
C61   H45   S    
C36   H107  S    
C106  H98   S    
N16   Ni4   S    
C83   C113  S    
C103  C120  S    
N31   Ni8   S    
C109  C117  S    
C122  H51   S    
N13   N24   A    
N14   N23   A    
C57   C89   A    
C87   C117  S    
C124  H58   S    
C61   C93   A    
C67   O3    S    
C1    C81   A    
C23   C40   A    
C63   C95   A    
C44   H27   S    
C45   H30   S    
C109  H101  S    
C11   H19   S    
C17   C42   A    
C43   H28   S    
C9    H17   S    
C7    C87   A    
C29   H1    S    
C12   H20   S    
C13   H21   S    
C52   C55   A    
C34   H105  S    
C63   H47   S    
C136  H86   S    
C16   C116  S    
C20   C91   S    
N13   Ni4   S    
N14   Ni3   S    
C50   C53   A    
C25   C54   A    
C24   C95   S    
C129  H70   S    
C27   C56   A    
C98   C113  S    
C131  H74   S    
C22   C37   A    
C65   N17   A    
C2    H34   S    
C74   H90   S    
C32   C51   A    
C80   C85   A    
C132  H78   S    
N4    N25   A    
C46   C54   A    
C3    N3    A    
C68   C89   A    
C1    N1    A    
C58   C90   A    
C72   C93   A    
C4    N4    A    
C100  C112  S    
C5    N5    A    
C62   C94   A    
C2    C82   A    
C127  H64   S    
C8    N8    A    
C104  C108  S    
C122  H53   S    
C9    C97   S    
C107  H99   S    
C17   C90   S    
C76   N28   A    
C12   C107  S    
C66   O2    S    
C27   C35   A    
C108  C116  S    
N10   Ni1   S    
C82   C116  S    
C64   N16   A    
C68   N20   A    
C43   C51   A    
C134  H81   S    
C72   O8    S    
C71   N23   A    
C72   N24   A    
N7    N30   A    
C12   C100  S    
C97   H9    S    
C59   H43   S    
C28   C36   A    
C79   H95   S    
C136  H88   S    
C29   C37   A    
C80   H96   S    
C111  H103  S    
C79   C86   A    
C28   H8    S    
C65   C92   A    
C74   N26   A    
C37   H110  S    
C9    C117  S    
C32   H4    S    
C69   C96   A    
C11   C119  S    
C71   C94   A    
C64   H48   S    
C76   H92   S    
N9    Ni2   S    
C106  C114  S    
C11   C99   S    
O7    C133  S    
C19   C36   A    
N23   Ni7   S    
N24   Ni8   S    
C21   C94   S    
C49   C54   A    
C23   C96   S    
N19   Ni5   S    
C51   C56   A    
C77   H93   S    
C10   C98   S    
C103  H15   S    
C12   C120  S    
C26   C34   A    
C73   H89   S    
C4    C84   A    
O8    C135  S    
C73   C84   A    
C65   O1    S    
C73   N25   A    
C98   H10   S    
N12   N17   A    
C28   C55   A    
C129  H69   S    
C29   C50   A    
C101  C105  S    
N16   N21   A    
C21   C38   A    
C18   C41   A    
C134  H82   S    
C67   N19   A    
C9    C106  S    
N7    Ni4   S    
C133  H80   S    
C102  H14   S    
C13   C110  S    
C10   C118  S    
C132  H77   S    
C35   H108  S    
N15   Ni3   S    
C81   C115  S    
O3    C125  S    
C107  C115  S    
C125  H60   S    
C128  H67   S    
C22   C93   S    
C133  C134  S    
C13   C101  S    
C26   C53   A    
C20   C43   A    
C47   C55   A    
C21   C46   A    
O4    C127  S    
C48   C56   A    
C23   C48   A    
C24   C47   A    
C66   N18   A    
C40   H111  S    
N3    Ni2   S    
C76   C81   A    
C66   C91   A    
C125  C126  S    
N18   Ni6   S    
C99   H11   S    
N11   Ni1   S    
C130  H72   S    
C70   C95   A    
C31   H3    S    
C124  H57   S    
N22   Ni8   S    
C123  H54   S    
N27   Ni6   S    
N1    Ni1   S    
C31   C39   A    
C102  C106  S    
C32   C40   A    
C7    H39   S    
C135  H84   S    
C121  H49   S    
N30   Ni7   S    
C25   C33   A    
C39   H112  S    
C10   C105  S    
C112  H104  S    
C13   C113  S    
