data_mof_unit_43462.cif
_audit_creation_date              2012-12-10T17:57:24-0500
_audit_creation_method            fapswitch 2.2
_symmetry_space_group_name_H-M    P1
_symmetry_Int_Tables_number       1
_space_group_crystal_system       triclinic
_cell_length_a                    9.544705
_cell_length_b                    10.832608
_cell_length_c                    13.460768
_cell_angle_alpha                 90.472984
_cell_angle_beta                  72.613459
_cell_angle_gamma                 89.48999
_cell_volume                      1328.03489035

loop_
_atom_site_label
_atom_site_type_symbol
_atom_type_description
_atom_site_fract_x
_atom_site_fract_y
_atom_site_fract_z
_atom_type_partial_charge
C1    C     C_R   0.499664 0.737840 0.499977 0.793599
C2    C     C_R   0.440750 0.453508 0.976404 0.070138
C3    C     C_R   0.486873 0.441998 0.866228 0.034093
C4    C     C_R   0.548971 0.474664 0.028021 0.072543
C5    C     C_R   0.696675 0.491980 0.968127 0.085488
C6    C     C_R   0.741169 0.459541 0.863091 -0.268296
C7    C     C_R   0.638097 0.420378 0.816145 0.171129
C8    C     C_R   0.516162 0.478888 0.136524 -0.278544
C9    C     C_R   0.764966 0.543312 0.123501 0.163637
C10   C     C_R   0.380765 0.454408 0.811248 -0.096739
C11   C     C_R   0.628458 0.934961 0.496318 -0.178551
C12   C     C_R   0.423034 0.484862 0.698920 0.817750
C13   C     C_R   0.628925 0.062624 0.496046 -0.158090
C14   C     C_R   0.500625 0.128216 0.499245 -0.015326
C15   C     C_R   0.371861 0.064966 0.502270 -0.176812
C16   C     C_R   0.371389 0.937233 0.502439 -0.180042
C17   C     C_R   0.499651 0.871713 0.499586 -0.024531
C18   C     C_R   0.897911 0.578753 0.563542 -0.044858
C19   C     C_R   0.046511 0.578531 0.563630 -0.047641
C20   C     C_R   0.103839 0.421313 0.437136 -0.017209
C21   C     C_R   0.956314 0.420216 0.436058 0.318810
C22   C     C_R   0.500489 0.262126 0.499544 0.796373
C23   C     C_R   0.578509 0.504361 0.299842 0.797857
C24   C     C_R   0.800691 0.531924 0.015150 -0.182517
C25   C     C_R   0.623053 0.508584 0.185145 -0.061565
C26   C     C_R   0.231388 0.445599 0.866645 -0.182192
C27   C     C_R   0.187264 0.435224 0.974383 -0.158158
C28   C     C_R   0.288941 0.445614 0.029414 -0.161999
Cu1   Cu    Cu3+1 0.359340 0.499980 0.500000 0.944329
Cu2   Cu    Cu3+1 0.640660 0.500020 0.500000 0.958124
H1    H     H_    0.729500 0.109582 0.493519 0.169237
H2    H     H_    0.271376 0.113877 0.504706 0.156384
H3    H     H_    0.270763 0.890101 0.505002 0.151252
H4    H     H_    0.819906 0.641726 0.614646 0.135395
H5    H     H_    0.080152 0.641503 0.614750 0.128520
H6    H     H_    0.183995 0.358612 0.387257 0.127404
H7    H     H_    0.857069 0.451430 0.820916 0.159700
H8    H     H_    0.910263 0.553654 0.966747 0.131472
H9    H     H_    0.408374 0.455045 0.184969 0.155898
H10   H     H_    0.148151 0.447905 0.826842 0.151170
H11   H     H_    0.244658 0.447942 0.112996 0.121003
H12   H     H_    0.072579 0.424308 0.016344 0.153397
H13   H     H_    0.728947 0.886095 0.493936 0.151530
N1    N     N_R   0.147940 0.499970 0.499970 -0.175298
N2    N     N_R   0.852060 0.500060 0.499990 -0.146845
O1    O     O_R   0.381250 0.680340 0.500010 -0.584785
O2    O     O_R   0.618820 0.680370 0.500010 -0.590609
O3    O     O_R   0.323240 0.499950 0.650980 -0.583078
O4    O     O_R   0.560810 0.499980 0.650980 -0.559907
O5    O     O_R   0.381180 0.319630 0.499990 -0.592162
O6    O     O_R   0.618750 0.319660 0.499990 -0.569514
O7    O     O_R   0.439190 0.500020 0.349020 -0.589406
O8    O     O_R   0.676760 0.500050 0.349020 -0.586603
C29   C     C_3   0.878488 0.593878 0.169918 -0.848846
H14   H     H_    0.919303 0.519946 0.210849 0.244291
H15   H     H_    0.974531 0.631003 0.109226 0.222793
H16   H     H_    0.830313 0.670806 0.224899 0.241933
C30   C     C_3   0.924877 0.325952 0.362844 -0.850511
H17   H     H_    0.815633 0.330053 0.353238 0.282223
H18   H     H_    0.003455 0.337316 0.283902 0.183389
H19   H     H_    0.941513 0.232022 0.390020 0.207261
I1    I     I_    0.713780 0.275654 0.705035 -0.387487

loop_
_geom_bond_atom_site_label_1
_geom_bond_atom_site_label_2
_ccdc_geom_bond_type
C2    C4    A    
Cu2   O6    S    
C7    I1    S    
C11   H13   S    
C6    C7    A    
C8    H9    S    
C16   H3    S    
C11   C13   A    
C28   H11   S    
Cu2   N2    S    
C1    C17   S    
C12   O3    A    
Cu1   O1    S    
C22   O5    A    
C29   H16   S    
C10   C26   A    
C30   H19   S    
C12   O4    A    
C26   C27   A    
C6    H7    S    
C9    C25   A    
C21   C30   S    
C9    C24   A    
C3    C10   A    
C19   H5    S    
C13   C14   A    
C19   N1    A    
C8    C25   A    
C18   H4    S    
C27   H12   S    
C26   H10   S    
C23   O7    A    
Cu1   Cu2   S    
C5    C24   A    
C10   C12   S    
C1    O2    A    
C20   N1    A    
Cu2   O4    S    
C23   O8    A    
C3    C7    A    
C21   N2    A    
Cu1   O5    S    
C23   C25   S    
Cu1   N1    S    
C5    C6    A    
Cu2   O8    S    
C29   H15   S    
C1    O1    A    
C22   O6    A    
C2    C28   A    
Cu1   O3    S    
C30   H18   S    
C24   H8    S    
C20   H6    S    
C18   N2    A    
Cu2   O2    S    
C27   C28   A    
C20   C21   A    
C14   C22   S    
C18   C19   A    
C4    C8    A    
C14   C15   A    
C4    C5    A    
C2    C3    A    
C9    C29   S    
C30   H17   S    
C29   H14   S    
C13   H1    S    
C11   C17   A    
C15   C16   A    
C16   C17   A    
Cu1   O7    S    
C15   H2    S    
