data_mof_unit_30257.cif
_audit_creation_date              2013-03-05T16:48:43-0500
_audit_creation_method            fapswitch 2.2
_symmetry_space_group_name_H-M    P1
_symmetry_Int_Tables_number       1
_space_group_crystal_system       triclinic
_cell_length_a                    27.785344
_cell_length_b                    8.919584
_cell_length_c                    8.094446
_cell_angle_alpha                 89.963099
_cell_angle_beta                  90.000033
_cell_angle_gamma                 90.0
_cell_volume                      2006.07616472

loop_
_atom_site_label
_atom_site_type_symbol
_atom_site_description
_atom_site_fract_x
_atom_site_fract_y
_atom_site_fract_z
_atom_type_partial_charge
O1    O     O_R   0.500000 0.285350 0.636850 -0.623785
O2    O     O_R   0.500000 0.714650 0.363150 -0.623785
O3    O     O_R   0.500000 0.714650 0.636850 -0.609795
O4    O     O_R   0.500000 0.285350 0.363150 -0.609795
C1    C     C_R   0.500000 0.217975 0.500032 0.923073
C2    C     C_R   0.499999 0.782025 0.499968 0.923073
O5    O     O_R   0.428760 0.500000 0.636860 -0.567245
O6    O     O_R   0.571240 0.500000 0.363140 -0.566719
O7    O     O_R   0.571240 0.500000 0.636860 -0.566719
O8    O     O_R   0.428760 0.500000 0.363140 -0.567245
C3    C     C_R   0.405726 0.500000 0.500000 0.962884
C4    C     C_R   0.594284 0.500000 0.500000 0.961480
Zn1   Zn    Zn3+2 0.500000 0.500000 0.682780 1.101796
Zn2   Zn    Zn3+2 0.500000 0.500000 0.317220 1.101796
C5    C     C_R   0.177700 0.368438 0.526517 0.540081
C6    C     C_R   0.822326 0.631541 0.473353 0.540144
C7    C     C_R   0.177700 0.631562 0.473481 0.540081
C8    C     C_R   0.822326 0.368460 0.526650 0.540144
O9    O     O_2   0.202742 0.240871 0.552543 -0.517433
O10   O     O_2   0.797278 0.759088 0.447259 -0.517442
O11   O     O_2   0.202742 0.759129 0.447455 -0.517433
O12   O     O_2   0.797278 0.240913 0.552744 -0.517442
N1    N     N_R   0.201522 0.500000 0.499999 -0.332332
N2    N     N_R   0.798508 0.500001 0.500001 -0.332406
C9    C     C_R   0.277559 0.545992 0.640912 -0.172946
C10   C     C_R   0.722485 0.456530 0.358126 -0.173561
C11   C     C_R   0.277559 0.454007 0.359087 -0.172945
C12   C     C_R   0.722485 0.543471 0.641876 -0.173560
C13   C     C_R   0.327555 0.545970 0.641711 0.586738
C14   C     C_R   0.672489 0.456529 0.357324 0.587333
C15   C     C_R   0.327555 0.454030 0.358289 0.586738
C16   C     C_R   0.672489 0.543472 0.642677 0.587333
C17   C     C_R   0.252711 0.500000 0.499999 0.124314
C18   C     C_R   0.747325 0.500001 0.500001 0.124830
C19   C     C_R   0.101758 0.500000 0.500000 -0.049250
C20   C     C_R   0.898267 0.500000 0.500002 -0.049244
C21   C     C_R   0.127371 0.365964 0.527304 -0.036740
C22   C     C_R   0.872654 0.634018 0.472571 -0.036820
C23   C     C_R   0.127371 0.634036 0.472695 -0.036740
C24   C     C_R   0.872654 0.365983 0.527432 -0.036820
C25   C     C_R   0.102441 0.232826 0.555066 -0.133255
C26   C     C_R   0.897584 0.767138 0.444707 -0.133307
C27   C     C_R   0.102441 0.767174 0.444934 -0.133256
C28   C     C_R   0.897584 0.232863 0.555296 -0.133307
C29   C     C_R   0.353047 0.500000 0.500000 -0.356267
C30   C     C_R   0.646983 0.500000 0.500000 -0.357479
H1    H     H_    0.257975 0.418197 0.250345 0.188261
H2    H     H_    0.742075 0.577323 0.751365 0.187928
H3    H     H_    0.257975 0.581803 0.749653 0.188261
H4    H     H_    0.742075 0.422678 0.248637 0.187928
H5    H     H_    0.121396 0.128506 0.576861 0.190937
H6    H     H_    0.878629 0.871442 0.422808 0.190971
H7    H     H_    0.121396 0.871494 0.423139 0.190937
H8    H     H_    0.878629 0.128559 0.577195 0.190971
C31   C     C_R   0.974487 0.363598 0.528443 0.047567
C32   C     C_R   0.025538 0.636410 0.471604 0.047571
C33   C     C_R   0.974487 0.636403 0.471559 0.047567
C34   C     C_R   0.025538 0.363591 0.528397 0.047571
C35   C     C_R   0.949317 0.500000 0.500001 0.074647
C36   C     C_R   0.050708 0.500000 0.500000 0.074628
C37   C     C_R   0.947421 0.231330 0.556083 -0.216073
C38   C     C_R   0.052605 0.768701 0.444108 -0.216048
C39   C     C_R   0.947421 0.768671 0.443919 -0.216073
C40   C     C_R   0.052604 0.231300 0.555893 -0.216049
H9    H     H_    0.963310 0.123515 0.579257 0.135383
H10   H     H_    0.036715 0.876535 0.421057 0.135318
H11   H     H_    0.963310 0.876486 0.420746 0.135383
H12   H     H_    0.036715 0.123465 0.578944 0.135318
C41   C     C_1   0.499999 0.065211 0.500046 -0.134865
C42   C     C_1   0.499999 0.934789 0.499954 -0.134866
N3    N     N_1   0.500000 0.500000 0.073640 0.021779
N4    N     N_1   0.500000 0.500000 0.926360 0.021779
F1    F     F_    0.350740 0.406689 0.220160 -0.596602
F2    F     F_    0.649331 0.588299 0.781867 -0.595145
F3    F     F_    0.350740 0.593310 0.779840 -0.596602
F4    F     F_    0.649331 0.411702 0.218133 -0.595145

loop_
_geom_bond_atom_site_label_1
_geom_bond_atom_site_label_2
_geom_bond_distance
_ccdc_geom_bond_type
C31   C35   1.421963 A    
Zn2   N3    1.971645 S    
C20   C35   1.418458 A    
C11   C17   1.395176 A    
C5    O9    1.350154 S    
C7    N1    1.364162 A    
O1    C1    1.260355 A    
C40   H12   1.074538 S    
C19   C21   1.408648 A    
C22   C26   1.392913 A    
C10   H4    1.083157 S    
C16   F2    1.357897 S    
C15   F1    1.357950 S    
C34   C36   1.421962 A    
C32   C33   1.418470 A    
C7    C23   1.398597 A    
C8    C24   1.398589 A    
C5    C21   1.398597 A    
C20   C24   1.408662 A    
O7    Zn1   2.014022 S    
C27   H7    1.083565 S    
N1    C17   1.422310 S    
C1    C41   1.362591 S    
C8    N2    1.364096 A    
O3    Zn1   1.950115 S    
C6    O10   1.350160 S    
O3    C2    1.260127 A    
C5    N1    1.364161 A    
C12   C18   1.395025 A    
C6    N2    1.364096 A    
C21   C25   1.392919 A    
O2    C2    1.260355 A    
C10   C18   1.395025 A    
C33   C39   1.416742 A    
C9    C13   1.389163 A    
C39   H11   1.074556 S    
C38   H10   1.074539 S    
C11   C15   1.389166 A    
C12   C16   1.389166 A    
C4    C30   1.464252 S    
O8    Zn2   2.014025 S    
C23   C27   1.392920 A    
C34   C40   1.416732 A    
N2    C18   1.422134 S    
C32   C36   1.421962 A    
C13   C29   1.409329 A    
C19   C36   1.418442 A    
C19   C23   1.408648 A    
C37   H9    1.074555 S    
C14   F4    1.357895 S    
O5    C3    1.279390 A    
C24   C28   1.392912 A    
O6    C4    1.279533 A    
C9    C17   1.395177 A    
C10   C14   1.389168 A    
C32   C38   1.416733 A    
C3    C29   1.463715 S    
O1    Zn1   1.950586 S    
C11   H1    1.083159 S    
C2    C42   1.362591 S    
C12   H2    1.083158 S    
O6    Zn2   2.014021 S    
C8    O12   1.350160 S    
C16   C30   1.409594 A    
C14   C30   1.409594 A    
O4    C1    1.260127 A    
C13   F3    1.357950 S    
Zn1   N4    1.971645 S    
C28   C37   1.384812 A    
C20   C22   1.408663 A    
N3    N4    1.192149 T    
C31   C37   1.416739 A    
O4    Zn2   1.950116 S    
C41   C42   1.163304 T    
O2    Zn2   1.950585 S    
O7    C4    1.279533 A    
C9    H3    1.083160 S    
C33   C35   1.421965 A    
O8    C3    1.279390 A    
C28   H8    1.083575 S    
O5    Zn1   2.014024 S    
C15   C29   1.409328 A    
C31   C34   1.418472 A    
C6    C22   1.398589 A    
C25   C40   1.384796 A    
C26   C39   1.384809 A    
C25   H5    1.083566 S    
C27   C38   1.384793 A    
C26   H6    1.083576 S    
C7    O11   1.350154 S    
