data_mof_unit_40830.cif
_audit_creation_date              2012-10-26T20:06:15-0400
_audit_creation_method            fapswitch 2.2
_symmetry_space_group_name_H-M    P1
_symmetry_Int_Tables_number       1
_space_group_crystal_system       triclinic
_cell_length_a                    9.502717
_cell_length_b                    10.832082
_cell_length_c                    13.558966
_cell_angle_alpha                 90.069654
_cell_angle_beta                  73.208884
_cell_angle_gamma                 89.994971
_cell_volume                      1336.17446962

loop_
_atom_site_label
_atom_site_type_symbol
_atom_type_description
_atom_site_fract_x
_atom_site_fract_y
_atom_site_fract_z
_atom_type_partial_charge
C1    C     C_R   0.500085 0.737978 0.499851 0.553932
C2    C     C_R   0.379021 0.493236 0.812749 0.000117
C3    C     C_R   0.626737 0.936192 0.502589 -0.139656
C4    C     C_R   0.422650 0.493648 0.699524 0.540059
C5    C     C_R   0.626816 0.063898 0.502389 -0.142466
C6    C     C_R   0.500414 0.128234 0.498958 0.019701
C7    C     C_R   0.374200 0.063890 0.495124 -0.144632
C8    C     C_R   0.374092 0.936172 0.495402 -0.140559
C9    C     C_R   0.500278 0.871823 0.499318 0.021597
C10   C     C_R   0.905100 0.590749 0.549699 0.011688
C11   C     C_R   0.054054 0.590796 0.549565 0.007533
C12   C     C_R   0.443902 0.495115 0.974862 0.041277
C13   C     C_R   0.094049 0.408082 0.452074 0.027984
C14   C     C_R   0.945429 0.408425 0.451585 0.000455
C15   C     C_R   0.500146 0.262036 0.499568 0.539109
C16   C     C_R   0.577500 0.494507 0.300466 0.560712
C17   C     C_R   0.804958 0.444415 0.025338 -0.159658
C18   C     C_R   0.619789 0.480271 0.187955 0.002889
C19   C     C_R   0.239057 0.539119 0.864826 -0.141453
C20   C     C_R   0.204251 0.569498 0.968340 -0.172795
C21   C     C_R   0.307270 0.552961 0.021751 -0.100979
C22   C     C_3   0.338867 0.317840 0.191355 0.015187
C23   C     C_R   0.480725 0.464844 0.868853 0.014931
C24   C     C_3   0.182118 0.296944 0.185701 -0.268586
C25   C     C_3   0.133744 0.163323 0.209670 -0.491784
C26   C     C_R   0.548777 0.473554 0.029260 0.031124
C27   C     C_R   0.695650 0.444688 0.974600 0.006869
C28   C     C_R   0.728654 0.409013 0.871863 -0.145079
C29   C     C_R   0.619398 0.409681 0.822335 -0.126105
C30   C     C_R   0.509707 0.471357 0.137287 0.238228
C31   C     C_R   0.767993 0.468626 0.130748 -0.190098
Cu1   Cu    Cu3+1 0.359340 0.499980 0.500000 0.953952
Cu2   Cu    Cu3+1 0.640660 0.500020 0.500000 0.924035
H1    H     H_    0.854363 0.471160 0.168222 0.136073
H2    H     H_    0.918554 0.425632 0.983536 0.121837
H3    H     H_    0.159432 0.559950 0.823923 0.131260
H4    H     H_    0.279547 0.590216 0.098851 0.174917
H5    H     H_    0.099196 0.611669 0.006268 0.120601
H6    H     H_    0.647020 0.366936 0.747306 0.153055
H7    H     H_    0.725417 0.888160 0.505563 0.122986
H8    H     H_    0.352075 0.276928 0.263284 0.146023
H9    H     H_    0.415094 0.267652 0.125116 0.117701
H10   H     H_    0.104752 0.358726 0.240955 0.169397
H11   H     H_    0.176561 0.320219 0.107126 0.167220
H12   H     H_    0.725553 0.111954 0.505216 0.121075
H13   H     H_    0.208526 0.099933 0.154045 0.154471
H14   H     H_    0.020433 0.151352 0.203634 0.150207
H15   H     H_    0.134102 0.139078 0.289195 0.133548
H16   H     H_    0.275608 0.111946 0.491968 0.117479
H17   H     H_    0.275387 0.888113 0.492524 0.124154
H18   H     H_    0.832550 0.663193 0.589848 0.111521
H19   H     H_    0.093633 0.663311 0.589568 0.104528
H20   H     H_    0.165380 0.333918 0.414464 0.108826
H21   H     H_    0.905466 0.335146 0.412553 0.104344
H22   H     H_    0.837426 0.375553 0.830997 0.113037
N1    N     N_R   0.147940 0.499970 0.499970 -0.220138
N2    N     N_R   0.852060 0.500060 0.499990 -0.226558
O1    O     O_R   0.381250 0.680340 0.500010 -0.511674
O2    O     O_R   0.618820 0.680370 0.500010 -0.509037
O3    O     O_R   0.323240 0.499950 0.650980 -0.506281
O4    O     O_R   0.560810 0.499980 0.650980 -0.509582
O5    O     O_R   0.381180 0.319630 0.499990 -0.521554
O6    O     O_R   0.618750 0.319660 0.499990 -0.520249
O7    O     O_R   0.439190 0.500020 0.349020 -0.441582
O8    O     O_R   0.676760 0.500050 0.349020 -0.513155
O9    O     O_3   0.365550 0.446537 0.192689 -0.571978

loop_
_geom_bond_atom_site_label_1
_geom_bond_atom_site_label_2
_ccdc_geom_bond_type
C24   H11   S    
C2    C4    S    
C4    O4    A    
C6    C7    A    
C3    C9    A    
C16   O7    A    
C7    H16   S    
C20   H5    S    
C25   H14   S    
C19   C20   A    
C12   C23   A    
Cu1   O1    S    
Cu2   O6    S    
C13   N1    A    
Cu1   Cu2   S    
C4    O3    A    
C2    C19   A    
C31   H1    S    
Cu1   O5    S    
C7    C8    A    
Cu2   O2    S    
C15   O5    A    
C30   O9    S    
C13   C14   A    
C24   C25   S    
C25   H15   S    
C29   H6    S    
C26   C27   A    
C22   H9    S    
C18   C30   A    
C10   H18   S    
C23   C29   A    
Cu2   O4    S    
C28   C29   A    
C14   H21   S    
C28   H22   S    
C3    H7    S    
C26   C30   A    
C16   O8    A    
C13   H20   S    
C19   H3    S    
C1    O2    A    
C5    C6    A    
C17   C31   A    
C22   C24   S    
C22   H8    S    
C10   C11   A    
Cu1   O3    S    
Cu2   O8    S    
C12   C21   A    
C8    H17   S    
C27   C28   A    
C10   N2    A    
C1    C9    S    
C20   C21   A    
Cu1   O7    S    
C21   H4    S    
C16   C18   S    
C2    C23   A    
C24   H10   S    
C14   N2    A    
C15   O6    A    
C22   O9    S    
Cu2   N2    S    
C11   H19   S    
C17   H2    S    
C6    C15   S    
C1    O1    A    
C5    H12   S    
C25   H13   S    
Cu1   N1    S    
C11   N1    A    
C18   C31   A    
C12   C26   A    
C8    C9    A    
C3    C5    A    
C17   C27   A    
