data_mof_unit_55046.cif
_audit_creation_date              2012-12-11T15:44:55-0500
_audit_creation_method            fapswitch 2.2
_symmetry_space_group_name_H-M    P1
_symmetry_Int_Tables_number       1
_space_group_crystal_system       triclinic
_cell_length_a                    6.927051
_cell_length_b                    16.804704
_cell_length_c                    17.093769
_cell_angle_alpha                 100.34458
_cell_angle_beta                  89.712091
_cell_angle_gamma                 90.409842
_cell_volume                      1957.42731461

loop_
_atom_site_label
_atom_site_type_symbol
_atom_type_description
_atom_site_fract_x
_atom_site_fract_y
_atom_site_fract_z
_atom_type_partial_charge
O1    O     O_R   0.494370 0.415690 0.413450 -0.544671
O2    O     O_R   0.819420 0.429360 0.578420 -0.539851
O3    O     O_R   0.994280 0.584310 0.586550 -0.542211
C1    C     C_R   0.652053 0.413824 0.605380 0.698098
O4    O     O_R   0.823790 0.406230 0.413570 -0.541668
O5    O     O_R   0.998670 0.561000 0.420530 -0.538660
C2    C     C_R   0.655267 0.381457 0.386295 0.672686
O6    O     O_R   0.489970 0.439000 0.579470 -0.538625
O7    O     O_3   0.662300 0.550810 0.502470 -0.357404
V1    V     V_3+5 0.935380 0.490570 0.499540 1.397450
O8    O     O_R   0.328650 0.570640 0.421580 -0.542428
C3    C     C_R   0.161927 0.585328 0.394203 0.700983
O9    O     O_R   0.324290 0.593770 0.586430 -0.516601
C4    C     C_R   0.155641 0.617547 0.614480 0.723028
V2    V     V_3+5 0.435930 0.509430 0.500460 1.416584
O10   O     O_3   0.159140 0.449190 0.497530 -0.377673
C5    C     C_R   0.302384 0.740882 0.703361 0.208277
C6    C     C_R   0.287029 0.803241 0.770001 -0.244801
H1    H     H_    0.406692 0.845129 0.784229 0.147636
C7    C     C_R   0.118921 0.813542 0.817065 -0.096744
C8    C     C_R   0.962935 0.758819 0.796958 0.207317
C9    C     C_R   0.978215 0.696496 0.730268 -0.244390
H2    H     H_    0.858580 0.654593 0.716047 0.147980
C10   C     C_R   0.146238 0.686262 0.683129 -0.097300
C11   C     C_R   0.167622 0.633682 0.329477 -0.094213
C12   C     C_R   0.103916 0.856982 0.163370 -0.095553
C13   C     C_R   0.930311 0.809526 0.270173 -0.190613
C14   C     C_R   0.950157 0.863126 0.217622 -0.210193
C15   C     C_R   0.241853 0.794484 0.162242 0.112087
C16   C     C_R   0.223606 0.738346 0.216534 0.098265
C17   C     C_R   0.063277 0.747400 0.270447 0.100845
C18   C     C_R   0.036274 0.695063 0.325395 -0.234233
C19   C     C_R   0.323249 0.622878 0.276132 -0.182305
C20   C     C_R   0.356389 0.673454 0.219698 0.075639
H3    H     H_    0.916527 0.704006 0.367108 0.122669
H4    H     H_    0.420726 0.574098 0.280597 0.119312
H5    H     H_    0.808401 0.816515 0.310801 0.125989
H6    H     H_    0.842467 0.909832 0.219028 0.130394
C21   C     C_R   0.657546 0.362131 0.667662 -0.089388
C22   C     C_R   0.607138 0.135769 0.830545 -0.103197
C23   C     C_R   0.413130 0.182490 0.727507 0.187816
C24   C     C_R   0.444091 0.129036 0.780685 -0.202237
C25   C     C_R   0.744427 0.196129 0.824789 -0.247193
C26   C     C_R   0.714835 0.251030 0.772350 0.108068
C27   C     C_R   0.547704 0.245005 0.723630 0.142069
C28   C     C_R   0.519789 0.301356 0.671969 -0.228461
C29   C     C_R   0.820775 0.367420 0.717338 -0.149315
C30   C     C_R   0.848896 0.312929 0.768899 -0.148150
H7    H     H_    0.395678 0.296497 0.633074 0.151382
H8    H     H_    0.930071 0.413455 0.715271 0.123869
H9    H     H_    0.977203 0.318784 0.805569 0.127081
H10   H     H_    0.337581 0.082204 0.784094 0.122282
H11   H     H_    0.869398 0.202610 0.863400 0.130146
C31   C     C_R   0.794902 0.251060 0.303793 0.088009
C32   C     C_R   0.780835 0.189587 0.236081 -0.176632
H12   H     H_    0.893821 0.144725 0.223858 0.112900
C33   C     C_R   0.620544 0.183093 0.185438 -0.065289
C34   C     C_R   0.470903 0.239217 0.203355 -0.165064
H13   H     H_    0.344519 0.235344 0.165776 0.125112
C35   C     C_R   0.484411 0.302275 0.268845 -0.191338
H14   H     H_    0.367946 0.345617 0.279293 0.120285
C36   C     C_R   0.646300 0.310537 0.319385 -0.064548
O11   O     O_R   0.774880 0.061150 0.920630 -0.537041
O12   O     O_R   0.440980 0.093710 0.086500 -0.542912
O13   O     O_R   0.266190 0.938890 0.079390 -0.541801
C37   C     C_R   0.609679 0.116434 0.115406 0.687309
O14   O     O_R   0.445420 0.070740 0.921670 -0.542434
O15   O     O_R   0.270660 0.915760 0.913380 -0.544051
C38   C     C_R   0.612757 0.085694 0.894215 0.717317
O16   O     O_R   0.770400 0.084270 0.086640 -0.542206
O17   O     O_3   0.602590 0.949210 0.997500 -0.362430
V3    V     V_3+5 0.329470 0.009420 0.000470 1.400150
O18   O     O_R   0.940650 0.906250 0.913470 -0.517325
C39   C     C_R   0.109360 0.882397 0.885550 0.715210
O19   O     O_R   0.936210 0.929220 0.078300 -0.542730
C40   C     C_R   0.103861 0.912045 0.103805 0.694443
V4    V     V_3+5 0.828930 0.990510 0.999490 1.423912
O20   O     O_3   0.105680 0.050790 0.002500 -0.370305
N1    N     N_3   0.474679 0.734329 0.655414 -0.648691
H15   H     H_    0.580660 0.774941 0.681771 0.226911
H16   H     H_    0.439403 0.751587 0.601477 0.215802
N2    N     N_3   0.393509 0.786457 0.104045 -0.711666
H17   H     H_    0.483975 0.837184 0.115843 0.253009
H18   H     H_    0.333848 0.781493 0.047286 0.230245
N3    N     N_3   0.243695 0.174117 0.678463 -0.690175
H19   H     H_    0.146602 0.132770 0.696168 0.230566
H20   H     H_    0.287733 0.149474 0.620659 0.219466
C41   C     C_3   0.965709 0.247862 0.358663 -0.358340
C42   C     C_3   0.900730 0.226516 0.438520 -0.287465
C43   C     C_3   0.070008 0.228282 0.495520 -0.746764
H21   H     H_    0.179857 0.182922 0.470212 0.212599
H22   H     H_    0.137835 0.289283 0.507317 0.241245
H23   H     H_    0.016841 0.213848 0.552760 0.231910
H24   H     H_    0.789873 0.269402 0.467507 0.184808
H25   H     H_    0.835333 0.164920 0.427987 0.183546
H26   H     H_    0.070039 0.200890 0.331147 0.161141
H27   H     H_    0.049274 0.305221 0.366885 0.195715
N4    N     N_3   0.790907 0.765249 0.845073 -0.648133
H28   H     H_    0.826693 0.748167 0.899042 0.218267
H29   H     H_    0.685092 0.724455 0.818891 0.227506
C44   C     C_3   0.533654 0.658616 0.165161 -0.321345
C45   C     C_3   0.669376 0.589471 0.176658 -0.359455
C46   C     C_3   0.839529 0.582793 0.118723 -0.741186
H30   H     H_    0.787505 0.566834 0.056482 0.223202
H31   H     H_    0.920510 0.640860 0.125918 0.236809
H32   H     H_    0.939054 0.534846 0.130542 0.218056
H33   H     H_    0.727221 0.600864 0.238210 0.207408
H34   H     H_    0.589649 0.530891 0.165877 0.194354
H35   H     H_    0.482584 0.644853 0.102627 0.208109
H36   H     H_    0.622609 0.714763 0.174752 0.214129

loop_
_geom_bond_atom_site_label_1
_geom_bond_atom_site_label_2
_ccdc_geom_bond_type
C32   H12   S    
C41   H26   S    
C44   C45   S    
C23   C24   A    
O15   C39   A    
C33   C37   S    
C1    O6    A    
C43   H21   S    
V4    O20   S    
C28   H7    S    
O13   C40   A    
C6    H1    S    
O5    C3    A    
C16   C17   A    
C44   H35   S    
V2    O10   S    
C5    N1    S    
C19   H4    S    
C35   C36   A    
O14   V3    S    
O18   C39   A    
C4    C10   S    
C42   H24   S    
V3    O20   S    
O8    V2    S    
C25   H11   S    
C22   C25   A    
C17   C18   A    
C12   C40   S    
C45   H34   S    
O1    V2    S    
O7    V1    S    
C41   H27   S    
C11   C18   A    
C22   C24   A    
C8    C9    A    
O16   V4    S    
C19   C20   A    
C29   H8    S    
N3    H20   S    
C30   H9    S    
C5    C10   A    
C22   C38   S    
C16   C20   A    
C13   C17   A    
C20   C44   S    
C18   H3    S    
O11   C38   A    
O4    C2    A    
C31   C36   A    
C34   H13   S    
N3    H19   S    
C35   H14   S    
O14   C38   A    
O12   C37   A    
C42   H25   S    
O2    C1    A    
O19   C40   A    
C2    C36   S    
C15   C16   A    
C43   H22   S    
C29   C30   A    
C1    C21   S    
C14   H6    S    
O15   V3    S    
C5    C6    A    
C7    C39   S    
C45   H33   S    
C46   H31   S    
C41   C42   S    
O19   V4    S    
O3    C4    A    
C21   C28   A    
N4    H28   S    
O6    V2    S    
N2    H18   S    
C32   C33   A    
C25   C26   A    
C9    C10   A    
O2    V1    S    
O17   V4    S    
C26   C27   A    
C43   H23   S    
C21   C29   A    
O11   V4    S    
C31   C32   A    
O18   V4    S    
O1    C2    A    
C12   C14   A    
O5    V1    S    
O8    C3    A    
O13   V3    S    
C23   N3    S    
N1    H16   S    
C3    C11   S    
O9    V2    S    
C44   H36   S    
C15   N2    S    
O3    V1    S    
V1    O10   S    
C31   C41   S    
C8    N4    S    
C33   C34   A    
C37   O16   A    
C13   H5    S    
C46   H32   S    
C6    C7    A    
O12   V3    S    
O7    V2    S    
C45   C46   S    
N4    H29   S    
N1    H15   S    
C27   C28   A    
O4    V1    S    
O17   V3    S    
C7    C8    A    
C12   C15   A    
N2    H17   S    
C24   H10   S    
C46   H30   S    
C23   C27   A    
C9    H2    S    
C42   C43   S    
O9    C4    A    
C34   C35   A    
C26   C30   A    
C11   C19   A    
C13   C14   A    
