data_mof_unit_29560.cif
_audit_creation_date              2012-12-11T15:55:49-0500
_audit_creation_method            fapswitch 2.2
_symmetry_space_group_name_H-M    P1
_symmetry_Int_Tables_number       1
_space_group_crystal_system       triclinic
_cell_length_a                    6.93981
_cell_length_b                    14.499739
_cell_length_c                    16.082492
_cell_angle_alpha                 90.10225
_cell_angle_beta                  90.025189
_cell_angle_gamma                 89.858708
_cell_volume                      1618.30008175

loop_
_atom_site_label
_atom_site_type_symbol
_atom_type_description
_atom_site_fract_x
_atom_site_fract_y
_atom_site_fract_z
_atom_type_partial_charge
O1    O     O_R   0.505680 0.583900 0.413320 -0.537689
O2    O     O_R   0.176010 0.594950 0.586080 -0.544219
O3    O     O_R   0.005680 0.416100 0.586680 -0.548699
C1    C     C_R   0.344806 0.617137 0.614860 0.698588
O4    O     O_R   0.175960 0.594930 0.413930 -0.511942
O5    O     O_R   0.005640 0.416080 0.413300 -0.550567
C2    C     C_R   0.344534 0.617371 0.385313 0.742978
O6    O     O_R   0.505720 0.583920 0.586700 -0.539458
O7    O     O_3   0.339190 0.441320 0.500000 -0.378376
V1    V     V_3+5 0.064350 0.510890 0.500000 1.454502
O8    O     O_R   0.675920 0.405050 0.413920 -0.531332
C3    C     C_R   0.844691 0.383418 0.384576 0.730274
O9    O     O_R   0.675960 0.405070 0.586070 -0.521092
C4    C     C_R   0.844660 0.383447 0.615167 0.723688
V2    V     V_3+5 0.564340 0.489110 0.500000 1.465097
O10   O     O_3   0.839370 0.558680 0.500000 -0.363976
C5    C     C_R   0.992154 0.245033 0.684393 0.013933
C6    C     C_R   0.851654 0.314558 0.683166 -0.196205
C7    C     C_R   0.712015 0.314119 0.747595 0.454825
C8    C     C_R   0.721893 0.247584 0.811844 -0.263290
H1    H     H_    0.614657 0.249168 0.860744 0.137288
C9    C     C_R   0.876189 0.184347 0.816363 -0.158615
C10   C     C_R   0.005397 0.182497 0.749623 0.131095
C11   C     C_3   0.220243 0.183625 0.748250 -0.377438
C12   C     C_3   0.205606 0.251353 0.676305 -0.359163
H2    H     H_    0.282034 0.115800 0.729847 0.179763
H3    H     H_    0.282632 0.214491 0.805520 0.180829
H4    H     H_    0.257949 0.222397 0.616371 0.165210
H5    H     H_    0.258854 0.321464 0.691321 0.225927
C13   C     C_R   0.012992 0.184402 0.248579 -0.164601
H6    H     H_    0.126701 0.133099 0.249553 0.119692
C14   C     C_R   0.999325 0.247797 0.314222 -0.255326
H7    H     H_    0.102102 0.243661 0.364760 0.129437
C15   C     C_R   0.854072 0.315496 0.315236 -0.127662
C16   C     C_R   0.718899 0.317792 0.249573 0.464214
C17   C     C_R   0.732276 0.252928 0.184259 -0.227863
H8    H     H_    0.631698 0.256802 0.132849 0.124341
C18   C     C_R   0.878788 0.185865 0.183291 -0.090785
C19   C     C_R   0.204829 0.696506 0.740032 -0.137857
H9    H     H_    0.077388 0.653790 0.735502 0.124747
C20   C     C_R   0.218787 0.760418 0.805108 -0.139524
H10   H     H_    0.101438 0.765058 0.849318 0.157114
C21   C     C_R   0.382054 0.817171 0.813635 -0.084283
C22   C     C_R   0.531844 0.808804 0.754101 0.148354
C23   C     C_R   0.518736 0.742743 0.690643 -0.173349
H11   H     H_    0.634673 0.737309 0.645801 0.143194
C24   C     C_R   0.355711 0.686323 0.682699 -0.088972
C25   C     C_R   0.206590 0.750566 0.302199 0.486383
C26   C     C_R   0.220609 0.812194 0.235234 -0.233500
H12   H     H_    0.104761 0.861286 0.225674 0.156099
C27   C     C_R   0.381534 0.811911 0.182002 -0.157594
C28   C     C_R   0.529091 0.745963 0.196181 0.172013
C29   C     C_R   0.514945 0.684744 0.263122 -0.187823
H13   H     H_    0.628515 0.634345 0.272160 0.188082
C30   C     C_R   0.354670 0.685450 0.316383 -0.192610
O11   O     O_R   0.229200 0.915950 0.913350 -0.533499
O12   O     O_R   0.559090 0.905000 0.086080 -0.525517
O13   O     O_R   0.729280 0.083880 0.086680 -0.544695
C31   C     C_R   0.390646 0.881039 0.113656 0.742045
O14   O     O_R   0.558920 0.904980 0.913920 -0.518638
O15   O     O_R   0.729110 0.083860 0.913300 -0.535415
C32   C     C_R   0.390798 0.884458 0.883601 0.736482
O16   O     O_R   0.229360 0.915970 0.086730 -0.538384
O17   O     O_3   0.395680 0.058580 0.000030 -0.383382
V3    V     V_3+5 0.670570 0.989070 0.999990 1.493724
O18   O     O_R   0.058820 0.094950 0.913870 -0.544291
C33   C     C_R   0.889574 0.117322 0.885467 0.749795
O19   O     O_R   0.058990 0.094970 0.086020 -0.547859
C34   C     C_R   0.889932 0.117229 0.114808 0.688905
V4    V     V_3+5 0.170560 0.010930 0.999930 1.446762
O20   O     O_3   0.895590 0.941310 0.999960 -0.344422
O21   O     O_3   0.567572 0.379804 0.749433 -0.563947
C35   C     C_3   0.630828 0.455201 0.797609 -0.247795
H14   H     H_    0.762691 0.487021 0.770745 0.120130
H15   H     H_    0.656804 0.434567 0.863304 0.143358
H16   H     H_    0.516143 0.508659 0.797680 0.165695
I1    I     I_    0.774796 0.897838 0.748300 -0.464442
O22   O     O_3   0.043291 0.752157 0.351343 -0.540488
C36   C     C_3   0.068732 0.819010 0.414107 -0.216976
H17   H     H_    0.082186 0.889413 0.387275 0.119564
H18   H     H_    0.195951 0.802775 0.453767 0.114034
H19   H     H_    0.939735 0.818769 0.454825 0.168709
I2    I     I_    0.771819 0.725675 0.117239 -0.383832
O23   O     O_3   0.588895 0.390095 0.244513 -0.558689
C37   C     C_3   0.401684 0.356197 0.258387 -0.191251
H20   H     H_    0.301182 0.415616 0.263020 0.163829
H21   H     H_    0.393211 0.317662 0.318062 0.124170
H22   H     H_    0.352538 0.312297 0.205796 0.132465

loop_
_geom_bond_atom_site_label_1
_geom_bond_atom_site_label_2
_ccdc_geom_bond_type
C25   C30   A    
C20   C21   A    
C35   H14   S    
C4    C6    S    
C7    C8    A    
C11   H3    S    
C2    C30   S    
C1    O6    A    
C19   C20   A    
C29   H13   S    
C22   C23   A    
C12   H4    S    
C5    C10   A    
C17   H8    S    
C11   H2    S    
C6    C7    A    
O5    C3    A    
C13   H6    S    
O12   C31   A    
V2    O10   S    
C13   C18   A    
O14   C32   A    
C15   C16   A    
C20   H10   S    
C23   C24   A    
C25   O22   S    
O8    V2    S    
C16   C17   A    
O19   C34   A    
C26   C27   A    
C10   C11   S    
V4    O20   S    
O1    V2    S    
O17   V4    S    
O7    V1    S    
C29   C30   A    
O18   C33   A    
C18   C34   S    
O9    C4    A    
C35   H15   S    
C7    O21   S    
O4    C2    A    
C37   H21   S    
C12   H5    S    
C27   C28   A    
C11   C12   S    
C19   H9    S    
C36   H18   S    
O22   C36   S    
V3    O20   S    
C14   C15   A    
C28   I2    S    
O2    C1    A    
C21   C22   A    
O15   V3    S    
O15   C33   A    
O13   V3    S    
O16   V4    S    
O8    C3    A    
C5    C6    A    
O23   C37   S    
C37   H20   S    
O3    C4    A    
C25   C26   A    
C8    C9    A    
O14   V3    S    
O6    V2    S    
O11   V4    S    
O9    V2    S    
C35   H16   S    
O11   C32   A    
C27   C31   S    
C3    C15   S    
O2    V1    S    
C28   C29   A    
C19   C24   A    
C37   H22   S    
C22   I1    S    
O1    C2    A    
O12   V3    S    
O21   C35   S    
O5    V1    S    
C36   H19   S    
C16   O23   S    
O13   C34   A    
C31   O16   A    
C5    C12   S    
O17   V3    S    
C17   C18   A    
O7    V2    S    
O4    V1    S    
O3    V1    S    
V1    O10   S    
C14   H7    S    
C13   C14   A    
O18   V4    S    
C9    C33   S    
C36   H17   S    
C23   H11   S    
C8    H1    S    
O19   V4    S    
C26   H12   S    
C9    C10   A    
C21   C32   S    
C1    C24   S    
