data_mof_unit_12551.cif
_audit_creation_date              2012-12-11T17:10:13-0500
_audit_creation_method            fapswitch 2.2
_symmetry_space_group_name_H-M    P1
_symmetry_Int_Tables_number       1
_space_group_crystal_system       triclinic
_cell_length_a                    14.862589
_cell_length_b                    14.880038
_cell_length_c                    14.889866
_cell_angle_alpha                 109.260122
_cell_angle_beta                  110.180787
_cell_angle_gamma                 108.751857
_cell_volume                      2541.52008204

loop_
_atom_site_label
_atom_site_type_symbol
_atom_type_description
_atom_site_fract_x
_atom_site_fract_y
_atom_site_fract_z
_atom_type_partial_charge
C1    C     C_R   0.187739 0.283140 0.212972 0.292633
C2    C     C_R   0.452081 0.450051 0.776714 0.074550
C3    C     C_R   0.563524 0.195791 0.498543 0.079331
C4    C     C_R   0.201124 0.574259 0.496997 0.044850
C5    C     C_R   0.474412 0.720773 0.406761 -0.138087
C6    C     C_R   0.814771 0.564206 0.594766 -0.140274
C7    C     C_R   0.496168 0.404159 0.196741 -0.155829
C8    C     C_R   0.701386 0.793617 0.805509 -0.160850
C9    C     C_R   0.798202 0.707842 0.807182 -0.132128
C10   C     C_R   0.405574 0.496827 0.195138 -0.098386
C11   C     C_R   0.564011 0.814570 0.591028 -0.127610
C12   C     C_R   0.525859 0.432594 0.746718 -0.147434
C13   C     C_R   0.725565 0.473174 0.410647 -0.124943
C14   C     C_R   0.548093 0.824089 0.497522 0.065705
C15   C     C_R   0.829662 0.549749 0.505190 0.059952
C16   C     C_R   0.435912 0.434817 0.132329 0.074436
C17   C     C_R   0.794697 0.797241 0.871369 0.089447
C18   C     C_R   0.102362 0.615833 0.190990 -0.100706
C19   C     C_R   0.107329 0.634235 0.291392 -0.152287
C20   C     C_R   0.022951 0.559628 0.294298 0.102773
C21   C     C_R   0.933512 0.466673 0.194829 -0.161110
C22   C     C_R   0.928851 0.448854 0.094671 -0.056220
C23   C     C_R   0.502803 0.199980 0.407912 -0.147261
C24   C     C_R   0.013117 0.523408 0.092739 -0.037592
C25   C     C_R   0.933393 0.572817 0.407825 -0.236544
C26   C     C_R   0.935446 0.598142 0.508470 0.064392
C27   C     C_R   0.039618 0.658549 0.606715 0.029012
C28   C     C_R   0.132233 0.669722 0.598900 -0.229347
C29   C     C_R   0.122802 0.615005 0.497331 0.052145
C30   C     C_R   0.026951 0.581253 0.400739 0.034051
C31   C     C_R   0.070142 0.804145 0.775864 -0.154439
C32   C     C_R   0.104351 0.850952 0.888128 -0.102549
C33   C     C_R   0.127966 0.795446 0.944809 -0.113558
C34   C     C_R   0.293397 0.600218 0.589399 -0.134774
C35   C     C_R   0.115692 0.692428 0.889196 -0.122347
C36   C     C_R   0.082370 0.645732 0.777340 -0.172066
C37   C     C_R   0.059379 0.701378 0.720037 0.099978
C38   C     C_R   0.453258 0.347489 0.878719 0.166027
C39   C     C_R   0.407863 0.401818 0.833202 0.032438
C40   C     C_R   0.334289 0.426524 0.861522 -0.210619
C41   C     C_R   0.331012 0.424055 0.953571 -0.183101
C42   C     C_R   0.400553 0.395844 0.015950 0.040744
C43   C     C_R   0.449164 0.344160 0.968680 0.163485
C44   C     C_3   0.561622 0.356118 0.018901 -0.529089
C45   C     C_R   0.594737 0.289324 0.590793 -0.142466
C46   C     C_3   0.566641 0.360486 0.921085 -0.523547
C47   C     C_R   0.546238 0.924772 0.393787 0.167737
C48   C     C_R   0.592206 0.924449 0.493123 0.030653
C49   C     C_R   0.665850 0.025870 0.590794 -0.195268
C50   C     C_R   0.668709 0.121126 0.591663 -0.200720
C51   C     C_R   0.598774 0.114366 0.494554 0.028968
C52   C     C_R   0.549934 0.018757 0.394581 0.164429
C53   C     C_3   0.437069 0.957128 0.295424 -0.530620
C54   C     C_3   0.432461 0.854442 0.294866 -0.527148
C55   C     C_R   0.968880 0.076042 0.097700 0.157648
C56   C     C_R   0.199813 0.505220 0.407278 -0.119107
C57   C     C_R   0.069579 0.077437 0.124024 0.045883
C58   C     C_R   0.069279 0.978887 0.110622 -0.211752
C59   C     C_R   0.970410 0.879878 0.041761 -0.207754
C60   C     C_R   0.873013 0.880564 0.986502 0.032635
C61   C     C_R   0.871032 0.978479 0.031861 0.173638
C62   C     C_3   0.811784 0.029974 0.982789 -0.599246
C63   C     C_3   0.919098 0.134872 0.052817 -0.425565
C64   C     C_R   0.436008 0.527568 0.751026 -0.127023
C65   C     C_R   0.276583 0.186359 0.219745 -0.182103
C66   C     C_R   0.172721 0.177241 0.171264 0.011928
H1    H     H_    0.872684 0.616415 0.680895 0.128269
H2    H     H_    0.515907 0.340163 0.169261 0.103815
H3    H     H_    0.659293 0.833958 0.832138 0.106877
H4    H     H_    0.851904 0.676868 0.836438 0.097484
H5    H     H_    0.344918 0.520735 0.165726 0.122059
H6    H     H_    0.617022 0.878391 0.676227 0.094456
H7    H     H_    0.704994 0.441158 0.325624 0.091542
H8    H     H_    0.009398 0.509436 0.015130 0.094993
H9    H     H_    0.167451 0.673440 0.189216 0.101606
H10   H     H_    0.176634 0.706735 0.366746 0.115641
H11   H     H_    0.553349 0.374516 0.749871 0.111271
H12   H     H_    0.867818 0.407611 0.194767 0.108015
H13   H     H_    0.859941 0.377083 0.018523 0.106937
H14   H     H_    0.857996 0.542036 0.333567 0.121051
H15   H     H_    0.209549 0.710497 0.674681 0.126881
H16   H     H_    0.054940 0.848890 0.733277 0.120654
H17   H     H_    0.114384 0.931029 0.931473 0.129522
H18   H     H_    0.156697 0.832214 0.032046 0.101953
H19   H     H_    0.134065 0.649730 0.933273 0.109034
H20   H     H_    0.076382 0.567262 0.735644 0.119103
H21   H     H_    0.290598 0.461049 0.822757 0.129515
H22   H     H_    0.482315 0.152358 0.324203 0.100526
H23   H     H_    0.284950 0.456771 0.982425 0.140432
H24   H     H_    0.623022 0.434377 0.097394 0.200331
H25   H     H_    0.559462 0.281592 0.021299 0.190309
H26   H     H_    0.630944 0.441527 0.944809 0.201824
H27   H     H_    0.568071 0.288813 0.867717 0.191306
H28   H     H_    0.709867 0.030511 0.668611 0.130612
H29   H     H_    0.714826 0.195728 0.670099 0.127421
H30   H     H_    0.375962 0.974722 0.313283 0.200744
H31   H     H_    0.438439 0.961404 0.222718 0.191502
H32   H     H_    0.368965 0.814662 0.313026 0.197674
H33   H     H_    0.329186 0.662213 0.673455 0.087941
H34   H     H_    0.430317 0.799344 0.221437 0.192087
H35   H     H_    0.144617 0.975892 0.143291 0.124099
H36   H     H_    0.973537 0.804497 0.019586 0.132581
H37   H     H_    0.783865 0.002016 0.894246 0.204262
H38   H     H_    0.749372 0.033319 0.006725 0.202683
H39   H     H_    0.946854 0.155376 0.998523 0.244022
H40   H     H_    0.918486 0.200420 0.115672 0.212422
H41   H     H_    0.656107 0.320503 0.674724 0.085673
H42   H     H_    0.145746 0.475584 0.322143 0.169481
H43   H     H_    0.382931 0.560092 0.762057 0.095509
H44   H     H_    0.298375 0.122482 0.204590 0.106906
H45   H     H_    0.447188 0.696717 0.321503 0.108066
N1    N     N_R   0.291070 0.347930 0.293870 -0.058062
N2    N     N_R   0.708930 0.502750 0.556810 -0.042748
N3    N     N_R   0.502760 0.445970 0.293860 -0.039948
N4    N     N_R   0.652110 0.708890 0.706130 -0.039139
N5    N     N_R   0.708930 0.652070 0.706130 -0.041564
N6    N     N_R   0.445950 0.502780 0.293850 -0.036521
N7    N     N_R   0.502760 0.708900 0.556790 -0.042435
N8    N     N_R   0.652110 0.445950 0.443190 -0.040301
N9    N     N_R   0.554050 0.497220 0.706150 -0.040920
N10   N     N_R   0.497240 0.291100 0.443210 -0.037861
N11   N     N_R   0.347890 0.554050 0.556810 -0.043262
N12   N     N_R   0.554050 0.347900 0.556830 -0.039470
N13   N     N_R   0.291070 0.497250 0.443190 -0.041293
N14   N     N_R   0.497240 0.554030 0.706140 -0.041077
N15   N     N_R   0.347890 0.291110 0.293870 -0.050819
N16   N     N_R   0.445950 0.652100 0.443170 -0.036329
Ni1   Ni    Ni4+2 0.369690 0.500010 0.369700 0.250514
Ni2   Ni    Ni4+2 0.630310 0.499990 0.630300 0.206146
Ni3   Ni    Ni4+2 0.500000 0.369720 0.369720 0.208599
Ni4   Ni    Ni4+2 0.500000 0.630280 0.630280 0.204299
Br1   Br    Br    0.128016 0.343520 0.128577 -0.694898

loop_
_geom_bond_atom_site_label_1
_geom_bond_atom_site_label_2
_ccdc_geom_bond_type
C41   H23   S    
C18   H9    S    
C25   H14   S    
C41   C42   A    
C3    C23   A    
C35   C36   A    
N10   Ni3   S    
C1    Br1   S    
C2    C12   A    
C57   C58   A    
C23   N10   A    
C20   C30   S    
C53   C54   S    
C45   N12   A    
C28   C29   A    
C8    H3    S    
C62   C63   S    
C31   H16   S    
N2    Ni2   S    
C18   C24   A    
C56   N13   A    
C7    N3    A    
C19   H10   S    
C22   H13   S    
C1    N1    A    
C38   C39   A    
N4    Ni4   S    
C11   C14   A    
C50   H29   S    
C46   H26   S    
N15   Ni3   S    
N4    N5    A    
N8    Ni3   S    
C18   C19   A    
C56   H42   S    
N7    Ni4   S    
C8    N4    A    
C6    C15   A    
C12   N9    A    
C2    C39   S    
N5    Ni2   S    
C19   C20   A    
N1    Ni1   S    
C44   C46   S    
C55   C63   S    
C21   H12   S    
C49   H28   S    
C63   H39   S    
C57   C66   S    
N1    N15   A    
C4    C29   S    
N13   Ni1   S    
C10   H5    S    
C7    H2    S    
C59   C60   A    
C34   N11   A    
N2    N8    A    
C21   C22   A    
N12   Ni2   S    
C53   H30   S    
N3    Ni3   S    
C54   H34   S    
C13   N8    A    
C2    C64   A    
C1    C66   A    
C62   H38   S    
C4    C34   A    
N10   N12   A    
N9    Ni2   S    
C9    H4    S    
C33   H18   S    
C39   C40   A    
C3    C51   S    
C11   H6    S    
C15   C26   S    
C14   C48   S    
C5    H45   S    
C36   H20   S    
C58   C59   A    
C3    C45   A    
C31   C37   A    
C60   C61   A    
C43   C44   S    
C6    N2    A    
C29   C30   A    
N14   Ni4   S    
C47   C48   A    
C12   H11   S    
C5    N16   A    
C50   C51   A    
C26   C27   A    
C58   H35   S    
C63   H40   S    
C59   H36   S    
C5    C14   A    
C44   H25   S    
C47   C54   S    
C9    C17   A    
C40   C41   A    
C13   H7    S    
C64   N14   A    
C23   H22   S    
C13   C15   A    
C22   C24   A    
C42   C43   A    
N11   N13   A    
N16   Ni1   S    
C16   C42   S    
N11   Ni4   S    
C44   H24   S    
C52   C53   S    
C40   H21   S    
C62   H37   S    
C25   C30   A    
C32   H17   S    
C36   C37   A    
C28   H15   S    
N9    N14   A    
C9    N5    A    
C31   C32   A    
C7    C16   A    
C47   C52   A    
C34   H33   S    
C8    C17   A    
C53   H31   S    
C32   C33   A    
C55   C57   A    
C25   C26   A    
C51   C52   A    
C10   N6    A    
C6    H1    S    
C65   N15   A    
C35   H19   S    
C24   H8    S    
C64   H43   S    
C46   H27   S    
C27   C37   S    
C48   C49   A    
C55   C61   A    
C33   C35   A    
C65   C66   A    
C61   C62   S    
N6    Ni1   S    
C65   H44   S    
C38   C46   S    
N3    N6    A    
C17   C60   S    
C38   C43   A    
C20   C21   A    
C49   C50   A    
N7    N16   A    
C27   C28   A    
C54   H32   S    
C10   C16   A    
C11   N7    A    
C4    C56   A    
C45   H41   S    
