data_mof_unit_66539.cif
_audit_creation_date              2013-03-05T15:53:46-0500
_audit_creation_method            fapswitch 2.2
_symmetry_space_group_name_H-M    P1
_symmetry_Int_Tables_number       1
_space_group_crystal_system       triclinic
_cell_length_a                    7.206826
_cell_length_b                    12.680274
_cell_length_c                    35.14113
_cell_angle_alpha                 89.8257
_cell_angle_beta                  92.93154
_cell_angle_gamma                 89.870301
_cell_volume                      3207.12881808

loop_
_atom_site_label
_atom_site_type_symbol
_atom_site_description
_atom_site_fract_x
_atom_site_fract_y
_atom_site_fract_z
_atom_type_partial_charge
O1    O     O_R   0.379730 0.148600 0.662710 -0.601331
O2    O     O_R   0.620270 0.851400 0.337290 -0.605222
O3    O     O_R   0.120270 0.648600 0.337290 -0.574941
O4    O     O_R   0.879730 0.351400 0.662710 -0.576859
O5    O     O_R   0.722480 0.134490 0.741330 -0.562495
O6    O     O_R   0.277520 0.865510 0.258670 -0.567218
O7    O     O_R   0.777520 0.634490 0.258670 -0.559340
O8    O     O_R   0.222480 0.365510 0.741330 -0.561621
O9    O     O_R   0.892880 0.345890 0.741600 -0.581225
O10   O     O_R   0.107120 0.654110 0.258400 -0.574142
O11   O     O_R   0.607120 0.845890 0.258400 -0.584728
O12   O     O_R   0.392880 0.154110 0.741600 -0.581053
C1    C     C_R   0.555925 0.116475 0.755452 1.002329
C2    C     C_R   0.444147 0.882408 0.244278 1.013934
C3    C     C_R   0.942679 0.619472 0.243808 1.018584
C4    C     C_R   0.056987 0.380896 0.756169 1.029132
O13   O     O_R   0.709490 0.135560 0.662990 -0.584614
O14   O     O_R   0.290510 0.864440 0.337010 -0.584993
O15   O     O_R   0.790510 0.635560 0.337010 -0.564658
O16   O     O_R   0.209490 0.364440 0.662990 -0.569283
C5    C     C_R   0.538069 0.107702 0.652247 1.012191
C6    C     C_R   0.461886 0.892689 0.347739 0.999749
C7    C     C_R   0.964411 0.606687 0.348004 0.967510
C8    C     C_R   0.035802 0.392190 0.651535 0.983389
O17   O     O_3   0.552800 0.316610 0.702160 -0.260580
O18   O     O_3   0.447200 0.683390 0.297840 -0.250217
O19   O     O_3   0.947200 0.816610 0.297840 -0.293312
O20   O     O_3   0.052800 0.183390 0.702160 -0.293063
V1    V     V_3+5 0.827630 0.234380 0.702160 1.287007
V2    V     V_3+5 0.172370 0.765620 0.297840 1.292963
V3    V     V_3+5 0.672370 0.734380 0.297840 1.304558
V4    V     V_3+5 0.327630 0.265620 0.702160 1.295869
C9    C     C_R   0.000145 0.679091 0.911700 0.497789
C10   C     C_R   0.008131 0.328560 0.086051 0.506747
C11   C     C_R   0.507641 0.169136 0.085852 0.505723
C12   C     C_R   0.499533 0.819689 0.910936 0.493583
O21   O     O_2   0.932094 0.581991 0.916894 -0.478799
O22   O     O_2   0.075803 0.426002 0.081435 -0.483120
O23   O     O_2   0.574956 0.071365 0.081434 -0.477882
O24   O     O_2   0.434683 0.917742 0.915901 -0.477807
N1    N     N_R   0.035187 0.711531 0.875141 -0.183041
N2    N     N_R   0.968641 0.295081 0.122343 -0.178333
N3    N     N_R   0.468002 0.202337 0.121996 -0.179672
N4    N     N_R   0.533398 0.786804 0.874446 -0.183073
C13   C     C_R   0.071708 0.817426 0.870273 0.498478
C14   C     C_R   0.930954 0.188961 0.126274 0.503955
C15   C     C_R   0.427695 0.307861 0.126263 0.519393
C16   C     C_R   0.571509 0.681185 0.869777 0.511178
C17   C     C_R   0.970291 0.645925 0.804983 -0.014700
C18   C     C_R   0.017538 0.354059 0.193949 -0.011566
C19   C     C_R   0.539466 0.139052 0.192074 -0.051759
C20   C     C_R   0.458479 0.855884 0.804936 -0.063170
C21   C     C_R   0.960231 0.558753 0.779551 -0.204671
C22   C     C_R   0.012235 0.437171 0.221285 -0.199893
C23   C     C_R   0.561441 0.051701 0.217165 -0.178134
C24   C     C_R   0.434790 0.946268 0.781326 -0.144769
C25   C     C_R   0.130165 0.447845 0.824999 -0.093123
C26   C     C_R   0.883066 0.558410 0.173916 -0.088142
C27   C     C_R   0.367465 0.944172 0.174963 -0.097800
C28   C     C_R   0.642545 0.045974 0.823137 -0.046501
C29   C     C_R   0.120472 0.530282 0.852230 -0.086750
C30   C     C_R   0.890289 0.476688 0.146343 -0.101780
C31   C     C_R   0.381496 0.023175 0.146449 -0.110992
C32   C     C_R   0.627776 0.965306 0.850946 -0.067865
C33   C     C_R   0.040963 0.631258 0.843944 0.196784
C34   C     C_R   0.961410 0.373668 0.154294 0.206880
C35   C     C_R   0.463345 0.123483 0.153645 0.223003
C36   C     C_R   0.539235 0.867019 0.843239 0.203080
C37   C     C_R   0.034049 0.856933 0.937290 -0.086771
C38   C     C_R   0.981512 0.150854 0.059810 -0.109385
C39   C     C_R   0.479941 0.347165 0.059784 -0.106413
C40   C     C_R   0.531491 0.641647 0.936815 -0.087875
C41   C     C_R   0.023837 0.748045 0.943874 -0.244116
C42   C     C_R   0.990580 0.259920 0.053551 -0.241857
C43   C     C_R   0.489435 0.238114 0.053428 -0.244784
C44   C     C_R   0.522237 0.750560 0.943246 -0.243960
C45   C     C_R   0.037520 0.713258 0.982377 0.416610
C46   C     C_R   0.983448 0.295007 0.015062 0.424296
C47   C     C_R   0.481749 0.203424 0.014972 0.422643
C48   C     C_R   0.536396 0.785131 0.981713 0.417887
C49   C     C_R   0.051133 0.891667 0.899798 -0.017020
C50   C     C_R   0.959720 0.115505 0.097006 -0.013139
C51   C     C_R   0.457827 0.382062 0.097076 -0.024260
C52   C     C_R   0.549220 0.606911 0.899352 -0.018127
C53   C     C_R   0.050103 0.462493 0.787639 -0.274321
C54   C     C_R   0.947342 0.538670 0.212135 -0.223542
C55   C     C_R   0.453654 0.960300 0.211778 -0.257563
C56   C     C_R   0.547608 0.035494 0.786989 -0.234507
H1    H     H_    0.183011 0.516438 0.880390 0.181853
H2    H     H_    0.833199 0.493245 0.117947 0.189382
H3    H     H_    0.319572 0.007909 0.118393 0.183340
H4    H     H_    0.693916 0.977755 0.878825 0.165602
C57   C     C_R   0.992942 0.967446 0.036606 0.204037
C58   C     C_R   0.024901 0.040671 0.960373 0.199058
C59   C     C_R   0.523361 0.458016 0.960218 0.195833
C60   C     C_R   0.491573 0.530820 0.036473 0.203032
C61   C     C_R   0.004675 0.113587 0.991128 0.015187
C62   C     C_R   0.017128 0.894772 0.006023 0.034475
C63   C     C_R   0.514872 0.603653 0.005701 0.033650
C64   C     C_R   0.502735 0.385085 0.991055 0.016146
C65   C     C_R   0.988476 0.077161 0.028966 0.164862
C66   C     C_R   0.030814 0.931013 0.968100 0.186211
C67   C     C_R   0.528319 0.567563 0.967776 0.186891
C68   C     C_R   0.486974 0.421203 0.028906 0.167817
C69   C     C_R   0.969421 0.934638 0.074653 -0.088248
C70   C     C_R   0.044838 0.072896 0.922111 -0.101387
C71   C     C_R   0.545591 0.425797 0.922060 -0.088778
C72   C     C_R   0.469301 0.563236 0.074618 -0.082682
C73   C     C_R   0.950181 0.006903 0.103904 -0.043363
C74   C     C_R   0.062152 0.000187 0.892828 -0.038941
C75   C     C_R   0.561124 0.498494 0.892585 -0.044259
C76   C     C_R   0.450215 0.490557 0.103986 -0.039365
O25   O     O_2   0.856638 0.152046 0.157504 -0.607034
O26   O     O_2   0.135380 0.853009 0.837700 -0.585303
O27   O     O_2   0.640481 0.646346 0.837591 -0.579038
O28   O     O_2   0.350571 0.342546 0.157735 -0.571397
C77   C     C_R   0.026693 0.786077 0.012146 -0.326872
C78   C     C_R   0.001344 0.222572 0.985325 -0.334162
C79   C     C_R   0.497704 0.276306 0.985222 -0.333267
C80   C     C_R   0.524125 0.712311 0.011616 -0.328370
H5    H     H_    0.929428 0.976838 0.132274 0.178652
H6    H     H_    0.080438 0.029847 0.864317 0.181537
H7    H     H_    0.580170 0.468927 0.864143 0.162041
H8    H     H_    0.430139 0.520076 0.132396 0.162972
H9    H     H_    0.958675 0.853399 0.082902 0.144699
H10   H     H_    0.051823 0.153989 0.913573 0.141778
H11   H     H_    0.557272 0.344729 0.913781 0.143354
H12   H     H_    0.458982 0.644505 0.082857 0.146051
H13   H     H_    0.034884 0.755513 0.040638 0.199046
H14   H     H_    0.004197 0.254096 0.957056 0.201035
H15   H     H_    0.497074 0.245466 0.956886 0.198852
H16   H     H_    0.531124 0.742798 0.040057 0.198195
C81   C     C_R   0.990654 0.528274 0.379032 -0.231946
C82   C     C_R   0.010531 0.470160 0.620304 -0.245797
C83   C     C_R   0.523326 0.029433 0.622102 -0.253947
C84   C     C_R   0.476782 0.970977 0.378106 -0.252285
C85   C     C_R   0.091645 0.359291 0.405249 -0.115087
C86   C     C_R   0.897652 0.636278 0.593437 -0.169822
C87   C     C_R   0.504725 0.851021 0.598971 -0.191747
C88   C     C_R   0.527242 0.147416 0.401813 -0.188980
C89   C     C_R   0.099264 0.435104 0.376465 0.276708
C90   C     C_R   0.893746 0.560081 0.622074 0.399178
C91   C     C_R   0.522525 0.920930 0.629479 0.358003
C92   C     C_R   0.499235 0.078973 0.371020 0.340581
C93   C     C_R   0.928794 0.555514 0.414633 -0.214740
C94   C     C_R   0.082779 0.445681 0.585342 -0.201802
C95   C     C_R   0.511196 0.066418 0.584925 -0.238367
C96   C     C_R   0.475552 0.933852 0.415275 -0.233854
C97   C     C_R   0.980027 0.493476 0.446882 0.132243
C98   C     C_R   0.033482 0.507327 0.552871 0.143212
C99   C     C_R   0.504382 0.996996 0.553656 0.157062
C100  C     C_R   0.488744 0.002695 0.446748 0.157705
C101  C     C_R   0.033286 0.387525 0.441074 0.045478
C102  C     C_R   0.968225 0.611229 0.558386 0.084064
C103  C     C_R   0.488420 0.886879 0.560915 0.040330
C104  C     C_R   0.516644 0.112309 0.439729 0.041427
C105  C     C_R   0.988762 0.534853 0.484207 0.058211
C106  C     C_R   0.033326 0.466654 0.515490 0.047490
C107  C     C_R   0.511431 0.034948 0.515601 0.064150
C108  C     C_R   0.480739 0.964485 0.484841 0.062886
C109  C     C_R   0.054800 0.357711 0.508861 -0.187559
C110  C     C_R   0.967076 0.643697 0.490913 -0.223375
C111  C     C_R   0.443737 0.857635 0.493030 -0.196518
C112  C     C_R   0.550012 0.141572 0.507656 -0.204872
C113  C     C_R   0.050310 0.316758 0.472062 -0.102318
C114  C     C_R   0.956369 0.683062 0.527694 -0.104283
C115  C     C_R   0.456055 0.816669 0.530008 -0.109389
C116  C     C_R   0.541179 0.182711 0.470787 -0.109807
H17   H     H_    0.163172 0.373993 0.583356 0.128108
H18   H     H_    0.855063 0.629322 0.417085 0.135740
H19   H     H_    0.468465 0.849506 0.418320 0.125383
H20   H     H_    0.502386 0.150803 0.581647 0.123275
H21   H     H_    0.162416 0.284932 0.401774 0.190435
H22   H     H_    0.818149 0.707808 0.596362 0.157419
H23   H     H_    0.509084 0.768667 0.606078 0.214078
H24   H     H_    0.559466 0.227973 0.395236 0.217341
H25   H     H_    0.064888 0.302204 0.532187 0.167349
H26   H     H_    0.961567 0.699793 0.467748 0.170274
H27   H     H_    0.401542 0.803111 0.470932 0.163056
H28   H     H_    0.586859 0.196058 0.530089 0.171248
C117  C     C_2   0.216021 0.345794 0.837541 0.998806
O29   O     O_2   0.281347 0.285768 0.814572 -0.635290
O30   O     O_R   0.222211 0.318034 0.876107 -0.817667
H29   H     H_    0.287084 0.248000 0.881231 0.330901
C118  C     C_2   0.808111 0.663399 0.161268 0.991219
O31   O     O_2   0.765830 0.729848 0.184438 -0.630768
O32   O     O_R   0.785055 0.686492 0.122375 -0.820570
H30   H     H_    0.727731 0.758609 0.117329 0.333803
C119  C     C_2   0.277813 0.842394 0.163831 0.999740
O33   O     O_2   0.210357 0.785590 0.187591 -0.638346
O34   O     O_R   0.271932 0.810784 0.125696 -0.817465
H31   H     H_    0.208247 0.740206 0.121554 0.330132
C120  C     C_2   0.738858 0.145048 0.834719 0.975054
O35   O     O_2   0.829402 0.194207 0.812203 -0.626333
O36   O     O_R   0.725987 0.182266 0.871896 -0.814517
H32   H     H_    0.796244 0.250655 0.876436 0.328231
N5    N     N_R   0.748982 0.568476 0.648146 0.236297
O37   O     O_R   0.707361 0.661364 0.660784 -0.335680
O38   O     O_R   0.622898 0.495275 0.648305 -0.379199
N6    N     N_R   0.235858 0.420355 0.348701 0.238966
O39   O     O_R   0.283077 0.324603 0.340104 -0.317122
O40   O     O_R   0.352726 0.495526 0.342360 -0.317204
N7    N     N_R   0.495489 0.120915 0.333032 0.268005
O41   O     O_R   0.588124 0.206242 0.326043 -0.256096
O42   O     O_R   0.379573 0.083934 0.306788 -0.378862
N8    N     N_R   0.530336 0.879857 0.667561 0.262393
O43   O     O_R   0.434450 0.796398 0.675323 -0.234728
O44   O     O_R   0.639969 0.921168 0.694002 -0.420988
N9    N     N_R   0.091610 0.608078 0.992856 0.268659
O45   O     O_R   0.164818 0.546616 0.968367 -0.385217
O46   O     O_R   0.117725 0.584484 0.028740 -0.363472
N10   N     N_R   0.926985 0.399578 0.004252 0.268536
O47   O     O_R   0.850860 0.460821 0.028409 -0.383865
O48   O     O_R   0.900647 0.422002 0.968280 -0.360308
N11   N     N_R   0.427748 0.098633 0.004237 0.267750
O49   O     O_R   0.352446 0.036761 0.028374 -0.383636
O50   O     O_R   0.402952 0.076298 0.968278 -0.360793
N12   N     N_R   0.592856 0.889750 0.992032 0.269152
O51   O     O_R   0.666820 0.950698 0.967411 -0.383579
O52   O     O_R   0.620152 0.912894 0.027874 -0.365125
C121  C     C_2   0.060992 0.414757 0.261448 1.049438
O53   O     O_2   0.221971 0.394875 0.271185 -0.528589
O54   O     O_R   0.917988 0.406493 0.286699 -0.784797
H33   H     H_    0.952720 0.362605 0.309982 0.356527
C122  C     C_2   0.851733 0.567253 0.743390 1.124447
O55   O     O_2   0.933537 0.575679 0.714052 -0.602551
O56   O     O_R   0.658541 0.558948 0.743222 -0.749318
H34   H     H_    0.595913 0.560759 0.716873 0.393643
C123  C     C_2   0.264128 0.955325 0.756354 1.084690
O57   O     O_2   0.260264 0.924054 0.723553 -0.552728
O58   O     O_R   0.109177 0.005124 0.770550 -0.739385
H35   H     H_    0.002775 0.011696 0.750757 0.343649
C124  C     C_2   0.731150 0.045241 0.242505 1.140941
O59   O     O_2   0.736303 0.083953 0.274196 -0.535033
O60   O     O_R   0.885415 0.991264 0.229869 -0.757641
H36   H     H_    0.993768 0.991875 0.249394 0.348429
C125  C     C_2   0.057672 0.247148 0.210109 1.127957
O61   O     O_2   0.988405 0.219480 0.239545 -0.620259
O62   O     O_R   0.167406 0.176426 0.191940 -0.803141
H37   H     H_    0.168935 0.105167 0.205014 0.342869
C126  C     C_2   0.919576 0.749309 0.787307 1.088196
O63   O     O_2   0.831378 0.813757 0.804130 -0.648535
O64   O     O_R   0.971853 0.772356 0.750429 -0.744489
H38   H     H_    0.911639 0.839027 0.739756 0.370337
C127  C     C_2   0.423218 0.754672 0.784750 1.139876
O65   O     O_2   0.467883 0.746339 0.751813 -0.525161
O66   O     O_R   0.343083 0.669261 0.801959 -0.813410
H39   H     H_    0.344562 0.603932 0.785414 0.354683
C128  C     C_2   0.582110 0.243048 0.209602 1.127134
O67   O     O_2   0.653435 0.312715 0.191805 -0.669166
O68   O     O_R   0.537592 0.261644 0.247223 -0.667158
H40   H     H_    0.574375 0.334898 0.256242 0.391146
C129  C     C_2   0.052732 0.199855 0.467327 0.978802
O69   O     O_2   0.991773 0.159309 0.437739 -0.645960
O70   O     O_R   0.115638 0.135453 0.497668 -0.813261
H41   H     H_    0.111255 0.057868 0.490926 0.331176
C130  C     C_2   0.943141 0.799458 0.532905 0.975253
O71   O     O_2   0.992896 0.840082 0.563251 -0.620226
O72   O     O_R   0.882397 0.863523 0.502300 -0.810640
H42   H     H_    0.878938 0.940830 0.509400 0.329281
C131  C     C_2   0.428190 0.700282 0.533941 0.965911
O73   O     O_2   0.367366 0.662091 0.562666 -0.630198
O74   O     O_R   0.463367 0.634035 0.503382 -0.806618
H43   H     H_    0.425320 0.558541 0.508278 0.331378
C132  C     C_2   0.554358 0.300199 0.467216 0.985015
O75   O     O_2   0.482188 0.347201 0.439923 -0.654667
O76   O     O_R   0.639420 0.358415 0.496914 -0.818717
H44   H     H_    0.640359 0.436696 0.491280 0.337627

loop_
_geom_bond_atom_site_label_1
_geom_bond_atom_site_label_2
_geom_bond_distance
_ccdc_geom_bond_type
C26   C30   1.423537 A    
C63   C67   1.418344 A    
C39   C68   1.435610 A    
C48   C80   1.403084 A    
O1    C5    1.322005 A    
C105  C106  1.419973 A    
C22   C54   1.399269 A    
O13   V1    2.021195 S    
C88   C92   1.396087 A    
C87   H23   1.072985 S    
O62   H37   1.012210 S    
C10   N2    1.386394 A    
N11   O49   1.294015 A    
O15   V3    2.013594 S    
C116  C132  1.498311 S    
C84   C96   1.387508 A    
C25   C117  1.488839 S    
C28   C56   1.418430 A    
C38   C65   1.435983 A    
N12   O51   1.294195 A    
O68   H40   1.013835 S    
C19   C23   1.417170 A    
C117  O29   1.222095 D    
C16   C52   1.415890 A    
N7    O42   1.301487 A    
C11   C43   1.434772 A    
C128  O67   1.211326 D    
C18   C22   1.429910 A    
C17   C33   1.447483 A    
C109  C113  1.393846 A    
C32   C36   1.421890 A    
O20   V1    1.745466 S    
C46   C78   1.404074 A    
O9    C4    1.341547 A    
C2    C55   1.511978 S    
C76   H8    1.083762 S    
C45   C77   1.402471 A    
O10   C3    1.342341 A    
N11   O50   1.299302 A    
C107  C108  1.413513 A    
C48   N12   1.430797 S    
C131  O73   1.220183 D    
O4    C8    1.316608 A    
O11   C2    1.332930 A    
N8    O44   1.300693 A    
C100  C108  1.426198 A    
C118  O32   1.398398 S    
C91   N8    1.432884 S    
C82   C90   1.419085 A    
C104  C116  1.416459 A    
O64   H38   1.011658 S    
C92   N7    1.434449 S    
C60   C63   1.436557 A    
C97   C105  1.412641 A    
C64   C68   1.418018 A    
C96   H19   1.076146 S    
N10   O47   1.293993 A    
N5    O38   1.300606 A    
C130  O71   1.223198 D    
C115  C131  1.496808 S    
C61   C78   1.396273 A    
C119  O34   1.398538 S    
C97   C101  1.414670 A    
C38   C42   1.401899 A    
C85   C89   1.396537 A    
C12   C44   1.434781 A    
C106  C109  1.411118 A    
C21   C122  1.461161 S    
C63   C80   1.395262 A    
C14   C50   1.412508 A    
C20   C24   1.417699 A    
O3    C7    1.315539 A    
C13   O26   1.332647 S    
C100  C104  1.427396 A    
C103  C115  1.416894 A    
N6    O39   1.300809 A    
C120  O36   1.397880 S    
C47   C79   1.402565 A    
C86   H22   1.079721 S    
C79   H15   1.070690 S    
O60   H36   1.012846 S    
C37   C41   1.402006 A    
O14   V2    2.021190 S    
C89   N6    1.433336 S    
C15   C51   1.414996 A    
C11   N3    1.382733 A    
C124  O59   1.217257 D    
C98   C102  1.415149 A    
O5    C1    1.341915 A    
O4    V1    2.075549 S    
C20   C36   1.446319 A    
C12   N4    1.382973 A    
C45   N9    1.430487 S    
O72   H42   1.012833 S    
C57   C69   1.417592 A    
C86   C102  1.393715 A    
O17   V4    1.748186 S    
C47   N11   1.431714 S    
C60   C72   1.420087 A    
O11   V3    2.014890 S    
O18   V3    1.748186 S    
O8    C4    1.340022 A    
C110  C114  1.392722 A    
C125  O61   1.222173 D    
C20   C127  1.484380 S    
O19   V2    1.745466 S    
C31   H3    1.079430 S    
C119  O33   1.221360 D    
C87   C91   1.394247 A    
C23   C124  1.477575 S    
O16   V4    2.013599 S    
C19   C128  1.483320 S    
C26   C54   1.419464 A    
C29   H1    1.079897 S    
C28   C120  1.484529 S    
N9    O45   1.294197 A    
C39   C51   1.401153 A    
C117  O30   1.397660 S    
O17   V1    2.236258 S    
C15   O28   1.337997 S    
C82   C94   1.394245 A    
C31   C35   1.421199 A    
C128  O68   1.396862 S    
C52   C75   1.399073 A    
O7    V3    2.046036 S    
C7    C81   1.478097 S    
C59   C67   1.415224 A    
O19   V3    2.240435 S    
O34   H31   1.014181 S    
O8    V4    2.046036 S    
C108  C111  1.413067 A    
C44   C48   1.421121 A    
C12   O24   1.342299 S    
C37   C49   1.399388 A    
C59   C64   1.436210 A    
O54   H33   1.008698 S    
C86   C90   1.394325 A    
C57   C65   1.416060 A    
C131  O74   1.398389 S    
C127  O65   1.221967 D    
C30   C34   1.423860 A    
N8    O43   1.301049 A    
C22   C121  1.463758 S    
N1    C33   1.500325 S    
C58   C61   1.437261 A    
C37   C66   1.436591 A    
C75   H7    1.083711 S    
O1    V4    2.080359 S    
O13   C5    1.322346 A    
C72   C76   1.393771 A    
C6    C84   1.459800 S    
O2    V3    2.080359 S    
C130  O72   1.397547 S    
C5    C83   1.453891 S    
C10   O22   1.341811 S    
O3    V2    2.075549 S    
O15   C7    1.342210 A    
O30   H29   1.013993 S    
C50   C73   1.399998 A    
C85   H21   1.081193 S    
C123  O57   1.219070 D    
C78   H14   1.070867 S    
N9    O46   1.299322 A    
C3    C54   1.516670 S    
O6    C2    1.344004 A    
C121  O53   1.218243 D    
C132  O76   1.396857 S    
O10   V2    2.022288 S    
N12   O52   1.299396 A    
O56   H34   1.009281 S    
C107  C112  1.410880 A    
O20   V4    2.240435 S    
C111  C115  1.396467 A    
C88   H24   1.075135 S    
C61   C65   1.416835 A    
C122  O55   1.218059 D    
C85   C101  1.395078 A    
C40   C44   1.402080 A    
C64   C79   1.395393 A    
C19   C35   1.445669 A    
C49   C74   1.400112 A    
C124  O60   1.396625 S    
C40   C52   1.401413 A    
C59   C71   1.419723 A    
C10   C42   1.438640 A    
C16   O27   1.334570 S    
C112  C116  1.393573 A    
C9    C41   1.434906 A    
O6    V2    2.042973 S    
C88   C104  1.409326 A    
O18   V2    2.236258 S    
C83   C95   1.385211 A    
C127  O66   1.380865 S    
N2    C14   1.381279 A    
C4    C53   1.519323 S    
C123  O58   1.396549 S    
C90   N5    1.427263 S    
N4    C36   1.495693 S    
C81   C93   1.393622 A    
C32   H4    1.079537 S    
C109  H25   1.078317 S    
O70   H41   1.012811 S    
O5    V1    2.042973 S    
C46   N10   1.430671 S    
C80   H16   1.071525 S    
C77   H13   1.071313 S    
C95   H20   1.077236 S    
C62   C77   1.395335 A    
C129  O70   1.397420 S    
C70   C74   1.393865 A    
C8    C82   1.478962 S    
C94   C98   1.411059 A    
C60   C68   1.416116 A    
C69   C73   1.391120 A    
C93   H18   1.081021 S    
C58   C70   1.418535 A    
N1    C13   1.380730 A    
C98   C106  1.412645 A    
C14   O25   1.329843 S    
C101  C113  1.409247 A    
O14   C6    1.323278 A    
C71   C75   1.393436 A    
C84   C92   1.402331 A    
C18   C125  1.490189 S    
C13   C49   1.416241 A    
C96   C100  1.410610 A    
N10   O48   1.299185 A    
N3    C15   1.378850 A    
C112  H28   1.073341 S    
C17   C126  1.485814 S    
O76   H44   1.011692 S    
C18   C34   1.451598 A    
C25   C29   1.423343 A    
C40   C67   1.436388 A    
O9    V1    2.022283 S    
C87   C103  1.410297 A    
C70   H10   1.072286 S    
C27   C31   1.422178 A    
C99   C103  1.424634 A    
C69   H9    1.073336 S    
C9    O21   1.341783 S    
C28   C32   1.420464 A    
C9    N1    1.383434 A    
C57   C62   1.434959 A    
C125  O62   1.374465 S    
C71   H11   1.073482 S    
O32   H30   1.013990 S    
C121  O54   1.397836 S    
C62   C66   1.416622 A    
O2    C6    1.324076 A    
C74   H6    1.083559 S    
C39   C43   1.403463 A    
C73   H5    1.083888 S    
C118  O31   1.222356 D    
C129  O69   1.223098 D    
C132  O75   1.220532 D    
C126  O63   1.208469 D    
O74   H43   1.013005 S    
C11   O23   1.342617 S    
C30   H2    1.079539 S    
C1    C56   1.512083 S    
O7    C3    1.337520 A    
C83   C91   1.399368 A    
C122  O56   1.396232 S    
C25   C53   1.418292 A    
C24   C123  1.477955 S    
C113  C129  1.492332 S    
C23   C55   1.404595 A    
N5    O37   1.299895 A    
C38   C50   1.397090 A    
C27   C55   1.421736 A    
C110  H26   1.078543 S    
C17   C21   1.423216 A    
C24   C56   1.403483 A    
O36   H32   1.014104 S    
C27   C119  1.488976 S    
C29   C33   1.424749 A    
C93   C97   1.410649 A    
O12   C1    1.335270 A    
C58   C66   1.416071 A    
N3    C35   1.495007 S    
C120  O35   1.221493 D    
C42   C46   1.420929 A    
C94   H17   1.081210 S    
C95   C99   1.409001 A    
O58   H35   1.011710 S    
N2    C34   1.506319 S    
C41   C45   1.420385 A    
C51   C76   1.399174 A    
C102  C114  1.408735 A    
C21   C53   1.402006 A    
C81   C89   1.421353 A    
C72   H12   1.074698 S    
N7    O41   1.301952 A    
C126  O64   1.398197 S    
C114  C130  1.491247 S    
C111  H27   1.074045 S    
C43   C47   1.420878 A    
C105  C110  1.410524 A    
O16   C8    1.341009 A    
N6    O40   1.299670 A    
O12   V4    2.014885 S    
N4    C16   1.378523 A    
O66   H39   1.013857 S    
C99   C107  1.423271 A    
C26   C118  1.493400 S    
