data_mof_unit_33383.cif
_audit_creation_date              2012-12-11T17:29:56-0500
_audit_creation_method            fapswitch 2.2
_symmetry_space_group_name_H-M    P1
_symmetry_Int_Tables_number       1
_space_group_crystal_system       triclinic
_cell_length_a                    19.185576
_cell_length_b                    18.910214
_cell_length_c                    20.342152
_cell_angle_alpha                 107.015915
_cell_angle_beta                  106.376996
_cell_angle_gamma                 111.650901
_cell_volume                      5894.25721308

loop_
_atom_site_label
_atom_site_type_symbol
_atom_type_description
_atom_site_fract_x
_atom_site_fract_y
_atom_site_fract_z
_atom_type_partial_charge
C1    C     C_R   0.090070 0.088508 0.356475 -0.151196
C2    C     C_R   0.245171 0.071326 0.540495 -0.160337
C3    C     C_R   0.153726 0.222885 0.710589 -0.102754
C4    C     C_R   0.764481 0.924977 0.507315 -0.029402
C5    C     C_R   0.000937 0.765311 0.431212 -0.153127
C6    C     C_R   0.229911 0.272902 0.713334 0.033414
C7    C     C_R   0.948026 0.709316 0.448099 0.014483
C8    C     C_R   0.252191 0.999058 0.527192 0.166362
C9    C     C_R   0.011930 0.981911 0.729035 -0.123397
C10   C     C_R   0.959232 0.585913 0.377588 -0.173333
C11   C     C_R   0.919290 0.617648 0.416322 0.085546
C12   C     C_R   0.762350 0.992653 0.552091 -0.032899
C13   C     C_R   0.858855 0.563418 0.430476 -0.152056
C14   C     C_R   0.847579 0.482252 0.416464 0.095349
C15   C     C_R   0.896875 0.455516 0.387304 0.009853
C16   C     C_R   0.839772 0.813786 0.280590 0.493587
C17   C     C_R   0.949911 0.505622 0.363501 -0.066420
C18   C     C_R   0.794211 0.431170 0.438526 -0.340649
C19   C     C_R   0.794838 0.357520 0.438690 0.583844
C20   C     C_R   0.853097 0.337627 0.420236 -0.064550
C21   C     C_R   0.900605 0.384056 0.390571 -0.010626
C22   C     C_R   0.958970 0.364832 0.372302 0.096231
C23   C     C_R   0.758389 0.792640 0.271134 -0.243336
C24   C     C_R   0.003614 0.408061 0.340019 -0.323813
C25   C     C_R   0.999080 0.478041 0.334290 0.464990
C26   C     C_R   0.871037 0.278352 0.437909 -0.117981
C27   C     C_R   0.939960 0.271630 0.433260 0.123041
C28   C     C_R   0.959356 0.206853 0.528252 0.419352
C29   C     C_R   0.978634 0.309110 0.394142 -0.188490
C30   C     C_R   0.385899 0.016235 0.606646 0.490763
C31   C     C_R   0.328091 0.998863 0.536047 -0.065230
C32   C     C_R   0.341794 0.982405 0.471116 -0.313762
C33   C     C_R   0.413513 0.980780 0.474482 0.154363
C34   C     C_R   0.973901 0.228471 0.471138 -0.105647
C35   C     C_R   0.472230 0.995659 0.544247 -0.017848
C36   C     C_R   0.458579 0.012840 0.610725 -0.037867
C37   C     C_R   0.426789 0.963888 0.408811 -0.165685
C38   C     C_R   0.498576 0.961173 0.411711 -0.200053
C39   C     C_R   0.557042 0.975545 0.480322 0.121669
C40   C     C_R   0.760753 0.804411 0.343552 0.433271
C41   C     C_R   0.544411 0.993047 0.547092 0.072642
C42   C     C_R   0.604256 0.008358 0.616522 0.134139
C43   C     C_R   0.590250 0.024171 0.681871 -0.190033
C44   C     C_R   0.517449 0.025720 0.678883 -0.151392
C45   C     C_R   0.230197 0.227940 0.646176 -0.132590
C46   C     C_R   0.628665 0.973543 0.483439 -0.202124
C47   C     C_R   0.687867 0.990226 0.552249 0.128155
C48   C     C_R   0.677114 0.007783 0.618890 -0.222201
C49   C     C_R   0.290650 0.362940 0.767549 0.140711
C50   C     C_R   0.273615 0.409508 0.822544 -0.170283
C51   C     C_R   0.333644 0.492671 0.876430 -0.159282
C52   C     C_R   0.029590 0.203330 0.456718 -0.188982
C53   C     C_R   0.412215 0.530583 0.876399 0.221511
C54   C     C_R   0.426927 0.486134 0.818766 -0.164295
C55   C     C_R   0.367158 0.403172 0.765030 -0.179714
C56   C     C_R   0.919787 0.754179 0.490616 0.023559
C57   C     C_R   0.622731 0.726334 0.063913 -0.269408
C58   C     C_R   0.693258 0.762190 0.132147 -0.209560
C59   C     C_R   0.543022 0.697405 0.062500 0.130073
C60   C     C_R   0.686077 0.769270 0.200385 0.153402
C61   C     C_R   0.609470 0.757630 0.200678 -0.275793
C62   C     C_R   0.536876 0.717133 0.131855 0.518399
C63   C     C_R   0.118584 0.030166 0.244115 0.106010
C64   C     C_R   0.832599 0.064698 0.571558 -0.072623
C65   C     C_R   0.123229 0.960596 0.200704 -0.386722
C66   C     C_R   0.153320 0.963436 0.145415 0.578731
C67   C     C_R   0.175172 0.929142 0.475880 -0.128571
C68   C     C_R   0.183154 0.039601 0.137535 0.108191
C69   C     C_R   0.189603 0.112070 0.188940 -0.259583
C70   C     C_R   0.156039 0.107219 0.240660 -0.161718
C71   C     C_R   0.111236 0.050529 0.940390 -0.183203
C72   C     C_R   0.074891 0.049847 0.870712 -0.168191
C73   C     C_R   0.121904 0.981451 0.943193 0.224075
C74   C     C_R   0.049162 0.980754 0.802300 0.192806
C75   C     C_R   0.063327 0.913626 0.804993 -0.094862
C76   C     C_R   0.022909 0.948564 0.292491 -0.041257
C77   C     C_R   0.097765 0.913167 0.875063 -0.188564
C78   C     C_R   0.030023 0.054729 0.719214 -0.204119
C79   C     C_R   0.073776 0.022564 0.291931 0.040757
C80   C     C_3   0.679690 0.236427 0.411448 0.181496
C81   C     C_3   0.601667 0.245724 0.387381 -0.305512
C82   C     C_3   0.523955 0.160101 0.330730 -0.971731
C83   C     C_3   0.402855 0.118091 0.713496 0.166841
C84   C     C_3   0.349659 0.132334 0.753918 -0.237451
C85   C     C_3   0.387453 0.226180 0.806896 -1.009179
C86   C     C_3   0.828833 0.702180 0.185663 0.134865
C87   C     C_3   0.871304 0.667560 0.233232 -0.306734
C88   C     C_3   0.833650 0.571790 0.188570 -0.917821
C89   C     C_R   0.956092 0.913125 0.657137 0.505308
C90   C     C_3   0.435661 0.638345 0.160631 0.208242
C91   C     C_3   0.402057 0.547759 0.100758 -0.352773
C92   C     C_3   0.372122 0.483067 0.131027 -0.904559
C93   C     C_3   0.081877 0.817771 0.065475 0.177687
C94   C     C_3   0.093276 0.756725 0.097409 -0.276082
C95   C     C_3   0.010638 0.675703 0.065671 -0.954095
H1    H     H_    0.139242 0.153581 0.381475 0.100610
H2    H     H_    0.755406 0.450875 0.459928 0.165487
H3    H     H_    0.725480 0.860023 0.493994 0.223039
H4    H     H_    0.835122 0.241690 0.459903 0.184293
H5    H     H_    0.029122 0.301328 0.386062 0.120383
H6    H     H_    0.046225 0.390498 0.323873 0.187999
H7    H     H_    0.295942 0.970803 0.417715 0.157504
H8    H     H_    0.381645 0.952657 0.355362 0.138480
H9    H     H_    0.508508 0.948089 0.360579 0.140851
H10   H     H_    0.639699 0.960916 0.432760 0.136571
H11   H     H_    0.724965 0.020753 0.671575 0.143436
H12   H     H_    0.866064 0.725467 0.499951 0.197273
H13   H     H_    0.635472 0.035180 0.735128 0.139002
H14   H     H_    0.507644 0.037085 0.729976 0.158503
H15   H     H_    0.752359 0.781540 0.129676 0.185594
H16   H     H_    0.630281 0.716381 0.011737 0.163580
H17   H     H_    0.487232 0.514120 0.818418 0.127430
H18   H     H_    0.382943 0.369894 0.723733 0.112498
H19   H     H_    0.604831 0.778188 0.253566 0.192756
H20   H     H_    0.319725 0.525522 0.919823 0.136132
H21   H     H_    0.214951 0.381682 0.825534 0.134825
H22   H     H_    0.064758 0.102460 0.870571 0.129075
H23   H     H_    0.160642 0.863782 0.449367 0.132292
H24   H     H_    0.126413 0.102895 0.991968 0.134590
H25   H     H_    0.212241 0.170397 0.182985 0.156242
H26   H     H_    0.155164 0.162653 0.274554 0.129988
H27   H     H_    0.047558 0.861472 0.753179 0.179664
H28   H     H_    0.104172 0.858947 0.876259 0.142657
H29   H     H_    0.101378 0.903387 0.208015 0.133146
H30   H     H_    0.054835 0.209931 0.416462 0.129402
H31   H     H_    0.854243 0.126286 0.615560 0.204753
H32   H     H_    0.010594 0.885783 0.258482 0.138753
H33   H     H_    0.272422 0.252809 0.622909 0.094895
H34   H     H_    0.070978 0.119455 0.762744 0.133334
H35   H     H_    0.866435 0.691161 0.622541 0.377412
H36   H     H_    0.669324 0.189721 0.435441 0.154102
H37   H     H_    0.689355 0.209322 0.360247 0.059733
H38   H     H_    0.592883 0.273088 0.438762 0.223697
H39   H     H_    0.609827 0.289692 0.360443 0.195014
H40   H     H_    0.530872 0.131956 0.278407 0.268857
H41   H     H_    0.468598 0.168997 0.314166 0.274854
H42   H     H_    0.513499 0.115676 0.357129 0.266041
H43   H     H_    0.963579 0.501098 0.192351 0.340122
H44   H     H_    0.406337 0.154670 0.679121 0.072551
H45   H     H_    0.294653 0.136617 0.572860 0.098877
H46   H     H_    0.467125 0.143564 0.757173 0.112421
H47   H     H_    0.285899 0.108942 0.710411 0.206224
H48   H     H_    0.344490 0.095844 0.788021 0.211708
H49   H     H_    0.449278 0.249649 0.853485 0.270388
H50   H     H_    0.345589 0.234872 0.832731 0.275078
H51   H     H_    0.395107 0.264087 0.774290 0.265458
H52   H     H_    0.836689 0.686953 0.132087 0.134030
H53   H     H_    0.760483 0.668463 0.167977 0.129916
H54   H     H_    0.939221 0.699480 0.249097 0.216809
H55   H     H_    0.862313 0.680307 0.286190 0.203342
H56   H     H_    0.126961 0.243073 0.747451 0.122817
H57   H     H_    0.765201 0.539096 0.170018 0.261684
H58   H     H_    0.861556 0.547197 0.225477 0.280270
H59   H     H_    0.846178 0.557003 0.137540 0.264985
H60   H     H_    0.384831 0.640787 0.175416 0.150561
H61   H     H_    0.486474 0.654033 0.214603 0.165621
H62   H     H_    0.349141 0.532055 0.048485 0.212838
H63   H     H_    0.451848 0.543270 0.085193 0.207328
H64   H     H_    0.424483 0.496744 0.182688 0.285573
H65   H     H_    0.348179 0.418296 0.086470 0.260429
H66   H     H_    0.321035 0.484839 0.145689 0.269180
H67   H     H_    0.023501 0.750691 0.388954 0.112548
H68   H     H_    0.051550 0.388235 0.627564 0.340847
H69   H     H_    0.065157 0.788672 0.003404 0.135925
H70   H     H_    0.027867 0.825216 0.069351 0.087389
H71   H     H_    0.138127 0.739876 0.082027 0.219086
H72   H     H_    0.119550 0.787817 0.160769 0.204571
H73   H     H_    0.965853 0.690961 0.082752 0.257444
H74   H     H_    0.021317 0.632371 0.088922 0.292643
H75   H     H_    0.983364 0.642736 0.002272 0.268026
H76   H     H_    0.676540 0.662139 0.422828 0.388334
H77   H     H_    0.003894 0.626582 0.364777 0.199257
H78   H     H_    0.825300 0.586022 0.457773 0.129322
N1    N     N_R   0.052570 0.055840 0.395080 -0.045414
N2    N     N_2   0.468883 0.636604 0.994168 -0.073274
N3    N     N_2   0.187304 0.042117 0.069826 -0.083529
N4    N     N_R   0.834730 0.954500 0.499860 -0.073349
N5    N     N_2   0.140158 0.972622 0.011723 -0.062721
N6    N     N_R   0.890190 0.849120 0.355200 -0.125075
N7    N     N_R   0.997110 0.161210 0.539740 -0.085626
N8    N     N_R   0.841940 0.845190 0.395070 -0.123011
N9    N     N_R   0.045360 0.165140 0.499870 -0.061919
N10   N     N_R   0.877490 0.041590 0.539730 -0.070747
N11   N     N_R   0.009810 0.968740 0.355210 -0.048339
N12   N     N_R   0.954640 0.834860 0.500130 -0.062680
N13   N     N_R   0.158060 0.154810 0.604930 -0.042391
N14   N     N_R   0.122510 0.958410 0.460270 -0.052115
N15   N     N_R   0.990190 0.031260 0.644790 -0.063881
N16   N     N_R   0.947430 0.944160 0.604920 -0.098469
N17   N     N_R   0.165270 0.045500 0.500140 -0.043485
N18   N     N_R   0.109810 0.150880 0.644800 -0.040242
N19   N     N_R   0.002890 0.838790 0.460260 -0.053438
N20   N     N_2   0.482305 0.605222 0.939233 -0.098253
Ni1   Ni    Ni4+2 0.104370 0.104380 0.500010 0.199670
Ni2   Ni    Ni4+2 0.895630 0.895620 0.499990 0.297465
Ni3   Ni    Ni4+2 0.006290 0.904630 0.408560 0.203349
Ni4   Ni    Ni4+2 0.993710 0.095370 0.591440 0.259667
O1    O     O_2   0.866380 0.830690 0.716173 -0.274061
O2    O     O_3   0.459392 0.697902 0.131061 -0.662130
O3    O     O_2   0.856435 0.240697 0.582539 -0.291536
O4    O     O_2   0.988258 0.268196 0.675628 -0.327501
O5    O     O_3   0.992355 0.371875 0.614959 -0.474441
O6    O     O_3   0.158236 0.895250 0.101311 -0.657311
O7    O     O_2   0.621747 0.759063 0.366865 -0.355604
O8    O     O_2   0.632892 0.646874 0.280868 -0.318745
O9    O     O_3   0.723526 0.710590 0.425906 -0.528558
O10   O     O_2   0.800035 0.782863 0.578386 -0.289977
O11   O     O_3   0.914110 0.744595 0.633304 -0.595402
O12   O     O_3   0.749066 0.314885 0.469909 -0.620499
O13   O     O_2   0.135602 0.615049 0.363147 -0.252067
O14   O     O_2   0.094748 0.481577 0.258442 -0.279334
O15   O     O_3   0.007809 0.556912 0.235480 -0.541363
O16   O     O_3   0.367555 0.029797 0.668832 -0.655728
O17   O     O_3   0.865478 0.791772 0.224485 -0.686982
S1    S     S_3+6 0.880736 0.816042 0.645605 -0.072765
S2    S     S_3+6 0.062563 0.533651 0.297905 -0.039549
S3    S     S_3+6 0.947217 0.270910 0.602307 -0.051006
S4    S     S_3+6 0.680948 0.728870 0.353112 -0.088239

loop_
_geom_bond_atom_site_label_1
_geom_bond_atom_site_label_2
_ccdc_geom_bond_type
C92   H66   S    
C66   C68   A    
C87   C88   S    
C63   C65   A    
H68   O5    S    
C28   S3    S    
C80   H37   S    
C6    C45   A    
C4    H3    S    
N14   Ni3   S    
C27   C29   A    
C75   H27   S    
C53   N20   S    
C41   C42   A    
C14   C18   A    
C35   C36   A    
C28   N7    A    
C76   C79   A    
C4    N4    A    
C3    C6    A    
C95   H73   S    
C94   H71   S    
C83   H44   S    
C81   C82   S    
C68   N3    S    
C81   H39   S    
C39   C41   A    
C63   C79   S    
C53   C54   A    
O9    S4    S    
C7    C11   S    
C26   C27   A    
N10   Ni4   S    
C92   H64   S    
N19   Ni3   S    
O5    S3    S    
C22   C29   A    
C78   H34   S    
C52   N9    A    
C62   O2    S    
C18   C19   A    
C82   H42   S    
C59   N2    S    
C30   C31   A    
C12   C64   A    
C45   N13   A    
C57   C59   A    
C10   C17   A    
C10   H77   S    
C23   C40   A    
C46   H10   S    
C82   H40   S    
C24   H6    S    
C65   H29   S    
N13   N18   A    
C91   H63   S    
C38   H9    S    
N7    Ni4   S    
C54   C55   A    
C64   N10   A    
C84   C85   S    
C48   H11   S    
O15   S2    S    
C5    H67   S    
C67   N14   A    
C68   C69   A    
N14   N17   A    
C87   H55   S    
C72   H22   S    
C76   N11   A    
N9    Ni1   S    
C18   H2    S    
C43   H13   S    
C4    C12   A    
C50   H21   S    
C61   C62   A    
C90   C91   S    
C16   N6    A    
C26   H4    S    
C89   S1    S    
C44   H14   S    
N3    N5    D    
O14   S2    D    
C28   C34   A    
C80   H36   S    
C58   H15   S    
C21   C22   A    
C86   H52   S    
O3    S3    D    
C88   H57   S    
C94   C95   S    
C7    C56   A    
N12   Ni2   S    
C12   C47   S    
N8    Ni2   S    
O1    S1    D    
C85   H49   S    
C83   O16   S    
N7    N9    A    
N6    Ni3   S    
C27   C34   S    
C23   C60   S    
C1    N1    A    
O8    S4    D    
C74   C75   A    
C47   C48   A    
C2    N17   A    
C38   C39   A    
C24   C25   A    
C72   C74   A    
C9    C89   A    
C91   C92   S    
C83   H46   S    
C86   C87   S    
C90   O2    S    
C55   H18   S    
C84   H48   S    
N11   Ni3   S    
C33   C37   A    
O7    S4    D    
N15   N16   A    
C51   C53   A    
C88   H59   S    
C13   H78   S    
C43   C44   A    
C86   O17   S    
C56   H12   S    
C37   C38   A    
C77   H28   S    
C3    N18   A    
C95   H74   S    
N16   Ni2   S    
C31   C32   A    
C63   C70   A    
C84   H47   S    
C20   C21   A    
O10   S1    D    
C50   C51   A    
C54   H17   S    
C93   C94   S    
C42   C48   A    
C85   H51   S    
H76   O9    S    
C16   O17   S    
C75   C77   A    
C35   C41   A    
C39   C46   A    
C66   O6    S    
C67   H23   S    
N1    Ni1   S    
O11   S1    S    
C64   H31   S    
C87   H54   S    
C1    C79   A    
C22   C24   A    
C83   C84   S    
C78   N15   A    
C42   C43   A    
C73   N5    S    
C90   H61   S    
N12   N19   A    
C5    C7    A    
C40   N8    A    
C15   C17   A    
N1    N11   A    
C46   C47   A    
C59   C62   A    
C73   C77   A    
N4    Ni2   S    
C29   H5    S    
C40   S4    S    
C19   O12   S    
C8    C31   S    
C34   C52   A    
N13   Ni1   S    
C25   S2    S    
C2    C8    A    
N18   Ni4   S    
C5    N19   A    
C85   H50   S    
C80   C81   S    
C86   H53   S    
C94   H72   S    
C37   H8    S    
C52   H30   S    
C81   H38   S    
C71   H24   S    
C16   C23   A    
C69   H25   S    
C3    H56   S    
C93   H69   S    
C30   C36   A    
C92   H65   S    
C17   C25   A    
C88   H58   S    
C19   C20   A    
O4    S3    D    
C71   C72   A    
C49   C55   A    
C32   C33   A    
C30   O16   S    
C11   C13   A    
C70   H26   S    
C57   C58   A    
C57   H16   S    
C20   C26   A    
N15   Ni4   S    
C1    H1    S    
O13   S2    D    
H43   O15   S    
C33   C35   A    
C32   H7    S    
C9    C78   A    
C65   C66   A    
C6    C49   S    
C82   H41   S    
C69   C70   A    
C93   O6    S    
C95   H75   S    
C51   H20   S    
C91   H62   S    
C36   C44   A    
C10   C11   A    
N17   Ni1   S    
C93   H70   S    
C15   C21   A    
C56   N12   A    
C8    C67   A    
C49   C50   A    
C9    C74   S    
C71   C73   A    
C61   H19   S    
C76   H32   S    
C89   N16   A    
C14   C15   A    
C60   C61   A    
N4    N10   A    
C2    H45   S    
C45   H33   S    
C90   H60   S    
C13   C14   A    
C58   C60   A    
N2    N20   D    
C80   O12   S    
N6    N8    A    
H35   O11   S    
