data_mof_unit_6086.cif
_audit_creation_date              2012-12-10T18:50:00-0500
_audit_creation_method            fapswitch 2.2
_symmetry_space_group_name_H-M    P1
_symmetry_Int_Tables_number       1
_space_group_crystal_system       triclinic
_cell_length_a                    10.69866
_cell_length_b                    9.909618
_cell_length_c                    10.680099
_cell_angle_alpha                 90.245534
_cell_angle_beta                  92.558413
_cell_angle_gamma                 89.910015
_cell_volume                      1131.16007919

loop_
_atom_site_label
_atom_site_type_symbol
_atom_type_description
_atom_site_fract_x
_atom_site_fract_y
_atom_site_fract_z
_atom_type_partial_charge
C1    C     C_R   0.260149 0.500134 0.500295 0.910594
C2    C     C_R   0.586437 0.927949 0.573575 0.249627
C3    C     C_R   0.415279 0.928268 0.426691 -0.144362
C4    C     C_R   0.416199 0.071459 0.425602 -0.142844
C5    C     C_R   0.489661 0.499974 0.258487 0.917848
C6    C     C_R   0.739858 0.499951 0.499762 0.864878
C7    C     C_R   0.489093 0.500628 0.741421 0.852462
C8    C     C_3   0.424948 0.639365 0.072210 -0.190980
C9    C     C_3   0.396123 0.380467 0.068300 -0.149994
C10   C     C_3   0.436609 0.646215 0.927768 0.008077
C11   C     C_3   0.379633 0.396593 0.923955 -0.100856
C12   C     C_3   0.611041 0.466411 0.935500 -0.397705
C13   C     C_3   0.612754 0.483050 0.077587 -0.469899
C14   C     C_3   0.477451 0.500762 0.122171 0.013401
C15   C     C_3   0.479847 0.502333 0.878307 0.102196
C16   C     C_2   0.294499 0.671639 0.115087 0.416136
C17   C     C_2   0.270023 0.356642 0.125083 0.375514
C18   C     C_3   0.518237 0.770353 0.896517 -0.905081
C19   C     C_3   0.377022 0.254794 0.862280 -0.904301
C20   C     C_3   0.674085 0.143077 0.667667 -0.889066
C21   C     C_3   0.690931 0.855357 0.646457 -0.871381
C22   C     C_R   0.065979 0.383953 0.536643 -0.185062
C23   C     C_R   0.062311 0.616395 0.462149 -0.155125
C24   C     C_R   0.937942 0.383772 0.535993 -0.192644
C25   C     C_R   0.934135 0.616198 0.461717 -0.191551
C26   C     C_R   0.872443 0.499953 0.499066 -0.013341
C27   C     C_R   0.127661 0.500308 0.499903 0.018466
C28   C     C_R   0.583963 0.072033 0.576425 0.283317
H1    H     H_    0.485115 0.719477 0.116402 0.148347
H2    H     H_    0.635220 0.360373 0.911987 0.183485
H3    H     H_    0.116396 0.293989 0.566777 0.149927
H4    H     H_    0.109895 0.706288 0.432033 0.147098
H5    H     H_    0.890721 0.293700 0.565384 0.153893
H6    H     H_    0.883640 0.705939 0.431239 0.156148
H7    H     H_    0.281770 0.692699 0.213425 0.095172
H8    H     H_    0.207066 0.282018 0.082735 0.078564
H9    H     H_    0.619568 0.747722 0.906368 0.250725
H10   H     H_    0.493111 0.810580 0.802305 0.275161
H11   H     H_    0.498789 0.857266 0.958813 0.225673
H12   H     H_    0.450685 0.286516 0.088676 0.152095
H13   H     H_    0.472081 0.210440 0.860851 0.263433
H14   H     H_    0.318070 0.184636 0.914824 0.220260
H15   H     H_    0.333276 0.258655 0.766132 0.269421
H16   H     H_    0.669657 0.252142 0.667366 0.292801
H17   H     H_    0.654203 0.113775 0.764909 0.205762
H18   H     H_    0.771727 0.115013 0.647968 0.217768
H19   H     H_    0.668707 0.751602 0.669393 0.294200
H20   H     H_    0.777337 0.857756 0.592779 0.230735
H21   H     H_    0.711339 0.900715 0.739940 0.215183
H22   H     H_    0.347128 0.874413 0.367843 0.131166
H23   H     H_    0.348976 0.125149 0.365669 0.158627
H24   H     H_    0.344054 0.667296 0.880392 0.191999
H25   H     H_    0.285347 0.440352 0.901019 0.168816
H26   H     H_    0.670654 0.572455 0.105626 0.194381
H27   H     H_    0.658971 0.393081 0.121626 0.185525
H28   H     H_    0.685020 0.530448 0.896397 0.169565
N1    N     N_R   0.499970 0.857200 0.499970 -0.097663
N2    N     N_R   0.499970 0.142800 0.499970 -0.099967
O1    O     O_R   0.316750 0.614620 0.499990 -0.640967
O2    O     O_2   0.237804 0.416077 0.218531 -0.592513
O3    O     O_R   0.316750 0.385380 0.499990 -0.611568
O4    O     O_R   0.499970 0.614670 0.314790 -0.650321
O5    O     O_R   0.499970 0.385330 0.314790 -0.604890
O6    O     O_R   0.683220 0.614710 0.500010 -0.626089
O7    O     O_R   0.683220 0.385290 0.500010 -0.630000
O8    O     O_R   0.500010 0.614660 0.685200 -0.636366
O9    O     O_R   0.500010 0.385340 0.685200 -0.628571
O10   O     O_2   0.202848 0.673977 0.042759 -0.588000
Zn1   Zn    Zn3+2 0.499980 0.653120 0.500000 0.926029
Zn2   Zn    Zn3+2 0.499980 0.346880 0.500000 0.946633

loop_
_geom_bond_atom_site_label_1
_geom_bond_atom_site_label_2
_ccdc_geom_bond_type
O3    Zn2   S    
C9    H12   S    
C6    O6    A    
C18   H11   S    
O5    Zn2   S    
C16   O10   D    
C17   H8    S    
C28   N2    A    
C2    C28   A    
C20   C28   S    
C20   H17   S    
C11   H25   S    
C12   C15   S    
C25   H6    S    
C9    C14   S    
C21   H20   S    
C10   H24   S    
C23   H4    S    
O9    Zn2   S    
C2    C21   S    
C21   H21   S    
C18   H10   S    
C2    N1    A    
C8    C16   S    
C6    C26   S    
O6    Zn1   S    
C7    O8    A    
O4    Zn1   S    
C9    C11   S    
C19   H14   S    
C11   C19   S    
C5    C14   S    
C12   H28   S    
O1    Zn1   S    
C8    H1    S    
C3    N1    A    
C9    C17   S    
C20   H16   S    
C18   H9    S    
C24   C26   A    
C5    O4    A    
C23   C27   A    
C22   C27   A    
C23   C25   A    
C16   H7    S    
N1    Zn1   S    
C10   C18   S    
C22   C24   A    
O8    Zn1   S    
C13   H27   S    
C22   H3    S    
C4    H23   S    
C7    O9    A    
O7    Zn2   S    
C19   H13   S    
C12   C13   S    
C5    O5    A    
C8    C10   S    
C13   H26   S    
C4    N2    A    
C1    O1    A    
C1    C27   S    
N2    Zn2   S    
C8    C14   S    
C7    C15   S    
C17   O2    D    
C12   H2    S    
C25   C26   A    
C13   C14   S    
C11   C15   S    
C3    H22   S    
C6    O7    A    
C20   H18   S    
C3    C4    A    
C24   H5    S    
C19   H15   S    
C10   C15   S    
C21   H19   S    
C1    O3    A    
