data_mof_unit_13340.cif
_audit_creation_date              2012-12-10T19:46:24-0500
_audit_creation_method            fapswitch 2.2
_symmetry_space_group_name_H-M    P1
_symmetry_Int_Tables_number       1
_space_group_crystal_system       triclinic
_cell_length_a                    10.900221
_cell_length_b                    10.868906
_cell_length_c                    10.408764
_cell_angle_alpha                 91.208919
_cell_angle_beta                  90.644932
_cell_angle_gamma                 90.400019
_cell_volume                      1232.7777324

loop_
_atom_site_label
_atom_site_type_symbol
_atom_type_description
_atom_site_fract_x
_atom_site_fract_y
_atom_site_fract_z
_atom_type_partial_charge
C1    C     C_R   0.501939 0.261431 0.498444 0.786197
C2    C     C_R   0.498058 0.738569 0.501556 0.786223
C3    C     C_R   0.872020 0.501177 0.502690 -0.297157
C4    C     C_R   0.127981 0.498839 0.497308 -0.297165
C5    C     C_R   0.940225 0.531080 0.615610 -0.195405
C6    C     C_R   0.059776 0.468940 0.384388 -0.195397
C7    C     C_R   0.496901 0.166837 0.043775 -0.187746
C8    C     C_R   0.503107 0.833063 0.956185 -0.187739
C9    C     C_R   0.468344 0.127567 0.166777 -0.135212
C10   C     C_R   0.531654 0.872353 0.833186 -0.135146
C11   C     C_R   0.561342 0.111525 0.258977 0.054086
C12   C     C_R   0.438643 0.888472 0.741020 0.054060
C13   C     C_R   0.685014 0.133865 0.226161 0.164388
C14   C     C_R   0.314970 0.866191 0.773867 0.164366
C15   C     C_R   0.713235 0.171154 0.100794 0.224006
C16   C     C_R   0.286762 0.828870 0.899229 0.224039
C17   C     C_R   0.618808 0.188339 0.010836 -0.168151
C18   C     C_R   0.381199 0.811612 0.989154 -0.168170
C19   C     C_R   0.525801 0.930920 0.389544 -0.252642
C20   C     C_R   0.474187 0.069081 0.610455 -0.252647
C21   C     C_R   0.497750 0.872023 0.503962 -0.080139
C22   C     C_R   0.502240 0.127977 0.496038 -0.080135
C23   C     C_R   0.261425 0.498806 0.499003 0.869873
C24   C     C_R   0.738575 0.501200 0.500997 0.869851
C25   C     C_R   0.471110 0.941982 0.616018 0.005305
C26   C     C_R   0.528875 0.058018 0.383980 0.005302
C27   C     C_1   0.500052 0.500011 0.071895 0.083790
C28   C     C_1   0.499948 0.499988 0.928105 0.083802
C29   C     C_R   0.185607 0.487665 0.048194 -0.108250
C30   C     C_R   0.814401 0.512358 0.951806 -0.108226
C31   C     C_R   0.142016 0.522700 0.169292 -0.091568
C32   C     C_R   0.857985 0.477322 0.830705 -0.091570
C33   C     C_R   0.115850 0.432990 0.260401 0.238454
C34   C     C_R   0.884151 0.567031 0.739596 0.238457
C35   C     C_R   0.132374 0.308132 0.228494 -0.121328
C36   C     C_R   0.867635 0.691888 0.771506 -0.121322
C37   C     C_R   0.174632 0.273537 0.106697 -0.178653
C38   C     C_R   0.825389 0.726484 0.893306 -0.178721
C39   C     C_R   0.201625 0.363225 0.016791 -0.095772
C40   C     C_R   0.798394 0.636798 0.983212 -0.095785
C41   C     C_R   0.932756 0.470358 0.388321 0.556744
C42   C     C_R   0.067245 0.529671 0.611675 0.556735
Cu1   Cu    Cu3+1 0.500000 0.500000 0.625300 0.995422
Cu2   Cu    Cu3+1 0.500000 0.500000 0.374700 0.995422
H1    H     H_    0.234597 0.336336 0.922666 0.145941
H2    H     H_    0.765430 0.663687 0.077340 0.145948
H3    H     H_    0.547153 0.877827 0.303296 0.158436
H4    H     H_    0.452836 0.122173 0.696703 0.158422
H5    H     H_    0.206632 0.556781 0.978441 0.189477
H6    H     H_    0.793374 0.443245 0.021558 0.189467
H7    H     H_    0.127843 0.619267 0.191835 0.127130
H8    H     H_    0.872153 0.380756 0.808160 0.127124
H9    H     H_    0.110133 0.237840 0.296868 0.123610
H10   H     H_    0.889877 0.762178 0.703132 0.123615
H11   H     H_    0.185391 0.177141 0.081524 0.127690
H12   H     H_    0.814639 0.822880 0.918482 0.127712
H13   H     H_    0.640085 0.217031 0.914536 0.150737
H14   H     H_    0.359931 0.782898 0.085449 0.150734
H15   H     H_    0.424602 0.178629 0.973072 0.139662
H16   H     H_    0.575414 0.821212 0.026862 0.139666
H17   H     H_    0.373854 0.107605 0.190053 0.135201
H18   H     H_    0.626146 0.892267 0.809885 0.135202
N1    N     N_1   0.500010 0.499990 0.186410 -0.135959
N2    N     N_1   0.499990 0.500010 0.813590 -0.135956
O1    O     O_R   0.499990 0.319650 0.605810 -0.598483
O2    O     O_R   0.500010 0.680350 0.394190 -0.598488
O3    O     O_R   0.499990 0.319640 0.394190 -0.567139
O4    O     O_R   0.500010 0.680360 0.605810 -0.567135
O5    O     O_R   0.319640 0.500010 0.605810 -0.512645
O6    O     O_R   0.680360 0.499990 0.394190 -0.512640
O7    O     O_R   0.319650 0.500010 0.394190 -0.595400
O8    O     O_R   0.680350 0.499990 0.605810 -0.595404
N3    N     N_3   0.782465 0.117267 0.317687 -0.604295
H19   H     H_    0.766354 0.174719 0.397460 0.227415
H20   H     H_    0.780317 0.026075 0.347576 0.211287
N4    N     N_3   0.217506 0.882885 0.682382 -0.604341
H21   H     H_    0.233553 0.825456 0.602581 0.227429
H22   H     H_    0.219701 0.974083 0.652530 0.211297
N5    N     N_3   0.837696 0.188349 0.062079 -0.613434
H23   H     H_    0.883925 0.105290 0.073727 0.220280
H24   H     H_    0.878809 0.253935 0.123693 0.290317
N6    N     N_3   0.162303 0.811708 0.937970 -0.613437
H25   H     H_    0.116106 0.894790 0.926367 0.220279
H26   H     H_    0.121152 0.746156 0.876344 0.290290
F1    F     F_    0.868747 0.439609 0.279217 -0.686053
F2    F     F_    0.131256 0.560443 0.720772 -0.686033

loop_
_geom_bond_atom_site_label_1
_geom_bond_atom_site_label_2
_ccdc_geom_bond_type
C30   C32   A    
C5    C42   A    
Cu1   O8    S    
C35   H9    S    
N3    H19   S    
C23   O5    A    
Cu2   O2    S    
C24   O6    A    
C29   H5    S    
C40   H2    S    
C9    H17   S    
C35   C37   A    
N4    H22   S    
C2    O4    A    
C19   H3    S    
C20   C25   A    
Cu2   O7    S    
C15   C17   A    
C19   C26   A    
C32   H8    S    
C33   C35   A    
C18   H14   S    
C15   N5    S    
Cu1   O4    S    
C7    C17   A    
C6    C41   A    
C1    O1    A    
C31   C33   A    
Cu2   O6    S    
C42   F2    S    
C39   H1    S    
C30   H6    S    
C1    C22   S    
Cu1   O5    S    
N3    H20   S    
C3    C24   S    
C10   H18   S    
C7    H15   S    
Cu1   N2    S    
Cu2   N1    S    
C23   O7    A    
N4    H21   S    
C4    C6    A    
C31   H7    S    
N5    H24   S    
C4    C23   S    
C11   C26   S    
C2    O2    A    
C8    C18   A    
C14   N4    S    
Cu1   Cu2   S    
Cu1   O1    S    
C5    C34   S    
C29   C39   A    
C2    C21   S    
C16   N6    S    
C30   C40   A    
C16   C18   A    
C9    C11   A    
C20   H4    S    
C10   C12   A    
C28   N2    T    
C8    C10   A    
C13   N3    S    
N6    H26   S    
C13   C15   A    
C14   C16   A    
C24   O8    A    
C7    C9    A    
C21   C25   A    
C3    C41   A    
C19   C21   A    
C20   C22   A    
C3    C5    A    
C41   F1    S    
C6    C33   S    
C12   C25   S    
C36   C38   A    
C12   C14   A    
C29   C31   A    
C8    H16   S    
C38   C40   A    
C11   C13   A    
C4    C42   A    
C1    O3    A    
C34   C36   A    
C36   H10   S    
N5    H23   S    
C37   H11   S    
C38   H12   S    
C37   C39   A    
N6    H25   S    
C22   C26   A    
C17   H13   S    
C27   C28   S    
C27   N1    T    
Cu2   O3    S    
C32   C34   A    
