data_mof_unit_43384.cif
_audit_creation_date              2012-12-10T20:42:41-0500
_audit_creation_method            fapswitch 2.2
_symmetry_space_group_name_H-M    P1
_symmetry_Int_Tables_number       1
_space_group_crystal_system       triclinic
_cell_length_a                    8.890484
_cell_length_b                    10.66996
_cell_length_c                    9.96576
_cell_angle_alpha                 90.878639
_cell_angle_beta                  90.115242
_cell_angle_gamma                 90.6268
_cell_volume                      945.193078427

loop_
_atom_site_label
_atom_site_type_symbol
_atom_type_description
_atom_site_fract_x
_atom_site_fract_y
_atom_site_fract_z
_atom_type_partial_charge
C1    C     C_R   0.494262 0.260343 0.499526 0.882325
C2    C     C_R   0.393392 0.933963 0.393367 -0.039712
C3    C     C_R   0.455977 0.870460 0.504377 -0.163066
C4    C     C_R   0.489249 0.937969 0.621710 0.017053
C5    C     C_3   0.618644 0.930785 0.718602 0.282389
C6    C     C_3   0.627853 0.073626 0.715734 -0.318730
C7    C     C_R   0.376824 0.459737 0.069483 0.058547
C8    C     C_R   0.617673 0.549222 0.073271 -0.067081
C9    C     C_R   0.621211 0.543103 0.930142 -0.071263
C10   C     C_R   0.375049 0.462972 0.927523 0.198994
C11   C     C_3   0.300857 0.337466 0.915332 0.120223
C12   C     C_R   0.219050 0.499768 0.499905 0.930461
C13   C     C_3   0.308324 0.330805 0.067810 0.163531
C14   C     C_R   0.488905 0.739402 0.500774 0.904262
C15   C     C_R   0.780917 0.500152 0.500112 0.944365
C16   C     C_1   0.065486 0.499960 0.499916 -0.131847
C17   C     C_1   0.934469 0.500115 0.500174 -0.140548
C18   C     C_R   0.498306 0.065429 0.619422 -0.043089
C19   C     C_R   0.469432 0.128734 0.501841 -0.062363
C20   C     C_R   0.402100 0.064762 0.393690 -0.203974
H1    H     H_    0.358466 0.115871 0.309894 0.238786
H2    H     H_    0.368418 0.266942 0.858993 0.129296
H3    H     H_    0.197257 0.326369 0.118696 0.191573
H4    H     H_    0.717411 0.881698 0.675607 0.179774
H5    H     H_    0.596477 0.120782 0.811848 0.175277
N1    N     N_R   0.499010 0.499140 0.142800 -0.137706
N2    N     N_R   0.499010 0.499180 0.857150 -0.172371
O1    O     O_R   0.500020 0.316790 0.614690 -0.635328
O2    O     O_R   0.500000 0.316760 0.385350 -0.579009
O3    O     O_R   0.285350 0.500020 0.614650 -0.586662
O4    O     O_R   0.285340 0.499980 0.385310 -0.607180
O5    O     O_R   0.500000 0.683240 0.614650 -0.587962
O6    O     O_R   0.499980 0.683210 0.385310 -0.571578
O7    O     O_R   0.714660 0.500020 0.614690 -0.599606
O8    O     O_R   0.714650 0.499980 0.385350 -0.609959
Zn1   Zn    Zn3+2 0.500010 0.500020 0.653130 1.025267
Zn2   Zn    Zn3+2 0.499990 0.499980 0.346870 1.031861
O9    O     O_3   0.407919 0.238402 0.111954 -0.743277
H6    H     H_    0.505978 0.249034 0.065533 0.345395
C21   C     C_2   0.321084 0.868995 0.276888 0.989232
O10   O     O_2   0.334914 0.911595 0.164240 -0.588496
O11   O     O_R   0.232810 0.761647 0.296228 -0.802463
H7    H     H_    0.191825 0.725368 0.208800 0.342972
O12   O     O_3   0.575380 0.884496 0.844613 -0.664140
H8    H     H_    0.480073 0.925102 0.872383 0.365831
C22   C     C_2   0.771103 0.124941 0.655305 0.919618
O13   O     O_2   0.821509 0.079954 0.551231 -0.627877
O14   O     O_R   0.844380 0.226226 0.718382 -0.752712
H9    H     H_    0.936941 0.254721 0.667493 0.352706
C23   C     C_2   0.743479 0.610554 0.145941 0.992341
O15   O     O_2   0.725392 0.712519 0.200621 -0.576485
O16   O     O_R   0.884055 0.553222 0.148767 -0.780823
H10   H     H_    0.960996 0.603771 0.202382 0.341573
C24   C     C_2   0.763522 0.574820 0.863352 1.029512
O17   O     O_2   0.865702 0.499043 0.862484 -0.535616
O18   O     O_R   0.783821 0.691798 0.805710 -0.765410
H11   H     H_    0.887253 0.702353 0.764417 0.329853
O19   O     O_3   0.153296 0.347958 0.868112 -0.680855
H12   H     H_    0.109907 0.261987 0.870545 0.364172

loop_
_geom_bond_atom_site_label_1
_geom_bond_atom_site_label_2
_ccdc_geom_bond_type
C10   N2    A    
C7    C10   A    
C23   O16   S    
N1    Zn2   S    
C2    C21   S    
N2    Zn1   S    
C1    O1    A    
C11   O19   S    
C8    N1    A    
C11   H2    S    
C19   C20   A    
C9    N2    A    
O3    Zn1   S    
C4    C18   A    
C14   O6    A    
C21   O11   S    
C23   O15   D    
C20   H1    S    
C11   C13   S    
O1    Zn1   S    
C13   O9    S    
C5    C6    S    
C3    C14   S    
C7    N1    A    
C12   C16   S    
C4    C5    S    
O5    Zn1   S    
C15   O8    A    
C21   O10   D    
O8    Zn2   S    
C5    O12   S    
C2    C3    A    
O7    Zn1   S    
C12   O4    A    
C6    C22   S    
O9    H6    S    
C6    C18   S    
C24   O18   S    
C1    C19   S    
C6    H5    S    
C16   C17   T    
C10   C11   S    
C1    O2    A    
C2    C20   A    
C3    C4    A    
C22   O14   S    
C8    C23   S    
C5    H4    S    
C7    C13   S    
O16   H10   S    
C13   H3    S    
C15   C17   S    
C18   C19   A    
O11   H7    S    
O2    Zn2   S    
O18   H11   S    
C22   O13   D    
O14   H9    S    
C9    C24   S    
C15   O7    A    
C12   O3    A    
O19   H12   S    
C24   O17   D    
O6    Zn2   S    
O12   H8    S    
O4    Zn2   S    
C14   O5    A    
C8    C9    A    
