data_mof_unit_24496.cif
_audit_creation_date              2012-12-10T20:31:00-0500
_audit_creation_method            fapswitch 2.2
_symmetry_space_group_name_H-M    P1
_symmetry_Int_Tables_number       1
_space_group_crystal_system       triclinic
_cell_length_a                    14.937966
_cell_length_b                    10.674503
_cell_length_c                    9.866086
_cell_angle_alpha                 89.225683
_cell_angle_beta                  90.338758
_cell_angle_gamma                 89.848476
_cell_volume                      1573.02332803

loop_
_atom_site_label
_atom_site_type_symbol
_atom_type_description
_atom_site_fract_x
_atom_site_fract_y
_atom_site_fract_z
_atom_type_partial_charge
C1    C     C_R   0.505338 0.260343 0.501006 0.960113
C2    C     C_R   0.903926 0.604265 0.432186 -0.116930
C3    C     C_R   0.955843 0.302001 0.610903 -0.198550
C4    C     C_R   0.048384 0.300675 0.605350 0.708194
C5    C     C_R   0.094266 0.402062 0.545860 -0.126158
C6    C     C_R   0.046499 0.505026 0.488429 -0.034688
C7    C     C_R   0.092089 0.608922 0.429208 -0.001695
C8    C     C_R   0.041590 0.702835 0.358014 -0.222194
C9    C     C_R   0.948418 0.702125 0.365427 0.657383
C10   C     C_R   0.186939 0.402526 0.542426 0.625867
C11   C     C_R   0.231597 0.508512 0.496174 -0.246609
C12   C     C_R   0.327149 0.503943 0.499318 1.012324
C13   C     C_R   0.185863 0.615417 0.446268 -0.046165
C14   C     C_R   0.513514 0.061981 0.623609 -0.145020
C15   C     C_R   0.524537 0.129976 0.504154 -0.205962
C16   C     C_R   0.556231 0.069387 0.388286 0.667517
C17   C     C_R   0.554274 0.938737 0.383308 -0.166578
C18   C     C_R   0.519411 0.872076 0.497469 -0.273109
C19   C     C_R   0.508369 0.935197 0.619207 0.031779
C20   C     C_3   0.441916 0.928448 0.733074 0.518824
C21   C     C_3   0.447998 0.072083 0.737432 -0.285312
C22   C     C_R   0.431566 0.553499 0.070209 0.081019
C23   C     C_R   0.504382 0.740127 0.498731 0.931600
C24   C     C_R   0.571233 0.453814 0.073169 -0.026414
C25   C     C_R   0.571349 0.454201 0.929271 -0.109716
C26   C     C_R   0.430713 0.551439 0.927640 0.075459
C27   C     C_3   0.333934 0.513667 0.925373 0.351745
C28   C     C_3   0.335339 0.518814 0.079291 0.459540
C29   C     C_R   0.672833 0.499624 0.500387 1.032826
C30   C     C_R   0.810811 0.601958 0.436816 0.577009
C31   C     C_R   0.767936 0.502140 0.500717 -0.351844
C32   C     C_R   0.814974 0.403371 0.560784 0.555656
C33   C     C_R   0.907767 0.402691 0.555152 -0.068412
C34   C     C_R   0.952848 0.504010 0.491563 -0.127044
H1    H     H_    0.386580 0.124460 0.706461 0.210996
H2    H     H_    0.627838 0.414974 0.128294 0.190166
H3    H     H_    0.628077 0.415829 0.876179 0.187038
H4    H     H_    0.323821 0.428140 0.133311 0.057662
H5    H     H_    0.921939 0.223615 0.658807 0.236874
N1    N     N_R   0.499390 0.499140 0.142800 -0.156394
N2    N     N_R   0.499390 0.499180 0.857150 -0.157942
O1    O     O_R   0.500010 0.316790 0.614690 -0.657925
O2    O     O_R   0.500000 0.316760 0.385350 -0.568197
O3    O     O_R   0.367850 0.499990 0.614680 -0.625831
O4    O     O_R   0.367840 0.499950 0.385340 -0.583242
O5    O     O_R   0.500000 0.683240 0.614650 -0.598114
O6    O     O_R   0.499990 0.683210 0.385310 -0.612023
O7    O     O_R   0.632160 0.500050 0.614660 -0.602624
O8    O     O_R   0.632150 0.500010 0.385320 -0.611102
Zn1   Zn    Zn3+2 0.500010 0.500020 0.653130 1.012136
Zn2   Zn    Zn3+2 0.499990 0.499980 0.346870 1.056799
F1    F     F_    0.760845 0.696422 0.381027 -0.585443
C35   C     C_2   0.585021 0.878967 0.256547 0.681884
H6    H     H_    0.545396 0.808683 0.206007 0.092573
O9    O     O_2   0.655121 0.911765 0.204029 -0.428284
C36   C     C_2   0.351512 0.876728 0.694409 0.480618
H7    H     H_    0.345339 0.778597 0.669520 0.097644
O10   O     O_2   0.284333 0.942141 0.694642 -0.497535
F2    F     F_    0.477834 0.867686 0.846068 -0.609579
C37   C     C_2   0.490854 0.121292 0.864414 0.602349
H8    H     H_    0.560175 0.151688 0.864552 0.091659
O11   O     O_2   0.447669 0.127154 0.968753 -0.515094
F3    F     F_    0.280005 0.604710 0.865360 -0.558375
C38   C     C_2   0.315514 0.384415 0.873335 0.443752
H9    H     H_    0.367373 0.331511 0.823221 0.073197
O12   O     O_2   0.241368 0.338293 0.886712 -0.431537
F4    F     F_    0.285012 0.616680 0.128635 -0.503194
F5    F     F_    0.769981 0.306858 0.620638 -0.652740
F6    F     F_    0.092516 0.200987 0.661046 -0.543841
F7    F     F_    0.234976 0.301075 0.586295 -0.603761
C39   C     C_2   0.233060 0.737911 0.434081 0.503786
H10   H     H_    0.199192 0.822964 0.464557 0.086434
O13   O     O_2   0.308299 0.746173 0.387595 -0.533057
C40   C     C_2   0.080960 0.795728 0.262429 0.512552
H11   H     H_    0.053843 0.890075 0.255874 0.125853
O14   O     O_2   0.140032 0.765676 0.184349 -0.410291
F8    F     F_    0.901140 0.794425 0.300532 -0.579444
F9    F     F_    0.582140 0.136432 0.276994 -0.612854

loop_
_geom_bond_atom_site_label_1
_geom_bond_atom_site_label_2
_ccdc_geom_bond_type
C19   C20   S    
C20   C36   S    
C7    C8    A    
C29   O8    A    
C35   H6    S    
C26   C27   S    
C24   H2    S    
C40   O14   D    
C14   C21   S    
C5    C6    A    
C16   C17   A    
O4    Zn2   S    
C15   C16   A    
C36   H7    S    
C37   O11   D    
C18   C19   A    
C25   H3    S    
C1    O2    A    
C8    C9    A    
O8    Zn2   S    
C1    C15   S    
C32   F5    S    
C2    C34   A    
O7    Zn1   S    
C3    H5    S    
C23   O5    A    
C22   C28   S    
C4    F6    S    
C17   C18   A    
C35   O9    D    
C23   O6    A    
C40   H11   S    
C29   O7    A    
C18   C23   S    
C28   F4    S    
C24   C25   A    
C21   C37   S    
C10   C11   A    
C25   N2    A    
C39   O13   D    
C12   O4    A    
O6    Zn2   S    
C13   C39   S    
C6    C34   A    
C37   H8    S    
C38   O12   D    
C31   C32   A    
C28   H4    S    
C22   N1    A    
C8    C40   S    
C33   C34   A    
C9    F8    S    
C20   F2    S    
C27   F3    S    
O1    Zn1   S    
C10   F7    S    
C3    C4    A    
C17   C35   S    
N2    Zn1   S    
O3    Zn1   S    
C30   F1    S    
C14   C19   A    
C4    C5    A    
C11   C12   S    
C6    C7    A    
C21   H1    S    
N1    Zn2   S    
O5    Zn1   S    
C2    C30   A    
C38   H9    S    
C5    C10   A    
C12   O3    A    
C32   C33   A    
C11   C13   A    
O2    Zn2   S    
C30   C31   A    
C24   N1    A    
C36   O10   D    
C16   F9    S    
C27   C38   S    
C1    O1    A    
C7    C13   A    
C39   H10   S    
C20   C21   S    
C29   C31   S    
C22   C26   A    
C27   C28   S    
C3    C33   A    
C14   C15   A    
C2    C9    A    
C26   N2    A    
