data_mof_unit_29972.cif
_audit_creation_date              2012-12-10T17:23:09-0500
_audit_creation_method            fapswitch 2.2
_symmetry_space_group_name_H-M    P1
_symmetry_Int_Tables_number       1
_space_group_crystal_system       triclinic
_cell_length_a                    15.852679
_cell_length_b                    10.83929
_cell_length_c                    9.634686
_cell_angle_alpha                 89.870568
_cell_angle_beta                  89.914184
_cell_angle_gamma                 94.623905
_cell_volume                      1650.15048689

loop_
_atom_site_label
_atom_site_type_symbol
_atom_type_description
_atom_site_fract_x
_atom_site_fract_y
_atom_site_fract_z
_atom_type_partial_charge
C1    C     C_R   0.505614 0.262981 0.500849 0.780500
C2    C     C_3   0.082678 0.500315 0.500130 0.192095
C3    C     C_3   0.978182 0.612598 0.538709 -0.158847
C4    C     C_3   0.917361 0.500662 0.499916 0.192420
C5    C     C_3   0.033037 0.586589 0.410524 -0.158940
C6    C     C_3   0.970679 0.474660 0.371734 -0.155873
C7    C     C_1   0.174470 0.499972 0.500215 -0.074508
C8    C     C_1   0.825555 0.500645 0.499844 -0.078585
C9    C     C_R   0.542361 0.114251 0.757170 -0.165303
C10   C     C_R   0.529758 0.050024 0.881866 -0.270986
C11   C     C_R   0.480999 0.937546 0.884136 -0.114060
C12   C     C_R   0.339947 0.499305 0.500062 0.811414
C13   C     C_R   0.453227 0.881795 0.760004 0.437296
C14   C     C_R   0.481428 0.935939 0.630945 -0.030354
C15   C     C_R   0.511505 0.061721 0.630949 0.064683
C16   C     C_R   0.510712 0.128456 0.504035 -0.095520
C17   C     C_R   0.503542 0.063666 0.378597 -0.211775
C18   C     C_R   0.494721 0.935801 0.378319 -0.197342
C19   C     C_R   0.484818 0.870224 0.503510 -0.137982
C20   C     C_R   0.613059 0.684429 0.133569 0.457678
C21   C     C_R   0.657773 0.773982 0.050099 -0.286507
C22   C     C_R   0.656303 0.765935 0.909322 -0.280049
C23   C     C_R   0.493218 0.736558 0.500590 0.800956
C24   C     C_R   0.608283 0.670922 0.847536 -0.099395
C25   C     C_R   0.553933 0.585205 0.922750 0.151842
C26   C     C_R   0.554877 0.587929 0.072619 0.083664
C27   C     C_R   0.447189 0.419751 0.074314 0.324687
C28   C     C_R   0.447630 0.420713 0.926059 -0.085037
C29   C     C_R   0.660032 0.500119 0.499991 0.835420
C30   C     C_3   0.967005 0.414398 0.589518 -0.160987
C31   C     C_3   0.021845 0.388391 0.461339 -0.161693
C32   C     C_1   0.250115 0.499636 0.500210 -0.181199
C33   C     C_1   0.749890 0.500445 0.499862 -0.176386
C34   C     C_3   0.029357 0.526325 0.628314 -0.153461
Cu1   Cu    Cu3+1 0.499990 0.499990 0.640660 0.954349
Cu2   Cu    Cu3+1 0.500010 0.500010 0.359340 0.992599
H1    H     H_    0.041106 0.296355 0.429576 0.128564
H2    H     H_    0.464089 0.893927 0.982649 0.148010
H3    H     H_    0.495891 0.888460 0.279495 0.166395
H4    H     H_    0.698607 0.848239 0.095246 0.144335
H5    H     H_    0.694574 0.832494 0.847091 0.168512
H6    H     H_    0.616486 0.670923 0.738957 0.206863
H7    H     H_    0.404120 0.357677 0.869350 0.153320
H8    H     H_    0.938555 0.343722 0.662997 0.128281
H9    H     H_    0.945247 0.453463 0.266409 0.130553
H10   H     H_    0.061488 0.657265 0.337047 0.130160
H11   H     H_    0.958901 0.704624 0.570467 0.127780
H12   H     H_    0.054785 0.547533 0.733639 0.132495
H13   H     H_    0.506735 0.111678 0.280048 0.166655
H14   H     H_    0.579533 0.202237 0.760487 0.172698
H15   H     H_    0.554569 0.090287 0.977598 0.149741
N1    N     N_R   0.500800 0.501210 0.147910 -0.205399
N2    N     N_R   0.500830 0.501290 0.852040 -0.198352
O1    O     O_R   0.499990 0.319640 0.618810 -0.595848
O2    O     O_R   0.500000 0.319660 0.381240 -0.552534
O3    O     O_R   0.379070 0.499980 0.618770 -0.557876
O4    O     O_R   0.379080 0.500000 0.381190 -0.576860
O5    O     O_R   0.500000 0.680340 0.618760 -0.575870
O6    O     O_R   0.500010 0.680360 0.381190 -0.529780
O7    O     O_R   0.620920 0.500000 0.618810 -0.617856
O8    O     O_R   0.620930 0.500020 0.381230 -0.507822
O9    O     O_3   0.393548 0.782152 0.769257 -0.715421
H16   H     H_    0.363311 0.773729 0.679325 0.312228
N3    N     N_2   0.386809 0.340194 0.147813 -0.377144
H17   H     H_    0.330623 0.379583 0.164371 0.253512
C35   C     C_3   0.374330 0.213045 0.101941 -0.734874
H18   H     H_    0.341830 0.156171 0.185060 0.238735
H19   H     H_    0.435959 0.175659 0.080391 0.229846
H20   H     H_    0.334260 0.205978 0.007404 0.214138
O10   O     O_3   0.632002 0.691264 0.271687 -0.693873
H21   H     H_    0.672070 0.763497 0.294463 0.291874

loop_
_geom_bond_atom_site_label_1
_geom_bond_atom_site_label_2
_ccdc_geom_bond_type
C23   O5    A    
C35   H19   S    
C6    H9    S    
Cu1   N2    S    
C24   H6    S    
C2    C7    S    
C4    C8    S    
Cu2   O6    S    
C30   H8    S    
C23   O6    A    
Cu1   O5    S    
C25   N2    A    
C5    C6    S    
C35   H20   S    
C15   C16   A    
C29   C33   S    
C18   C19   A    
C13   O9    S    
Cu1   Cu2   S    
C16   C17   A    
O10   H21   S    
C9    C10   A    
Cu2   N1    S    
C2    C34   S    
C6    C31   S    
C21   C22   A    
C12   C32   S    
Cu1   O1    S    
C20   O10   S    
C10   H15   S    
C29   O8    A    
C30   C34   S    
C24   C25   A    
C4    C6    S    
Cu2   O4    S    
C27   N3    S    
C17   H13   S    
C3    C34   S    
C25   C26   A    
C31   H1    S    
Cu1   O7    S    
N3    C35   S    
C11   H2    S    
C19   C23   S    
C18   H3    S    
O9    H16   S    
C26   N1    A    
C29   O7    A    
C17   C18   A    
C1    C16   S    
C12   O3    A    
C1    O1    A    
C12   O4    A    
C22   C24   A    
C2    C5    S    
C34   H12   S    
C3    C4    S    
C27   N1    A    
C7    C32   T    
Cu1   O3    S    
C14   C19   A    
C9    H14   S    
C3    C5    S    
C28   N2    A    
C5    H10   S    
C28   H7    S    
N3    H17   S    
C1    O2    A    
Cu2   O2    S    
C11   C13   A    
C30   C31   S    
C21   H4    S    
C20   C26   A    
C3    H11   S    
C35   H18   S    
C8    C33   T    
C9    C15   A    
C10   C11   A    
C22   H5    S    
C20   C21   A    
C27   C28   A    
C14   C15   A    
C2    C31   S    
C13   C14   A    
C4    C30   S    
Cu2   O8    S    
