data_mof_unit_43621.cif
_audit_creation_date              2013-03-05T15:47:58-0500
_audit_creation_method            fapswitch 2.2
_symmetry_space_group_name_H-M    P1
_symmetry_Int_Tables_number       1
_space_group_crystal_system       triclinic
_cell_length_a                    27.044738
_cell_length_b                    7.099361
_cell_length_c                    11.918217
_cell_angle_alpha                 90.081252
_cell_angle_beta                  103.424226
_cell_angle_gamma                 89.501619
_cell_volume                      2225.69586837

loop_
_atom_site_label
_atom_site_type_symbol
_atom_site_description
_atom_site_fract_x
_atom_site_fract_y
_atom_site_fract_z
_atom_type_partial_charge
O1    O     O_R   0.437360 0.505910 0.042120 -0.607085
O2    O     O_R   0.562640 0.005910 0.957880 -0.553700
O3    O     O_R   0.542480 0.176660 0.157100 -0.553356
O4    O     O_R   0.457520 0.676660 0.842900 -0.599374
C1    C     C_R   0.556454 0.344391 0.198266 1.067908
C2    C     C_R   0.443514 0.844617 0.801802 1.065446
O5    O     O_R   0.436520 0.176250 0.054800 -0.547984
O6    O     O_R   0.563480 0.676250 0.945200 -0.601059
O7    O     O_R   0.455920 0.005040 0.854840 -0.557449
O8    O     O_R   0.544080 0.505040 0.145160 -0.603598
C3    C     C_R   0.417451 0.345525 0.062358 1.046963
C4    C     C_R   0.582618 0.843695 0.937817 1.044693
O9    O     O_3   0.506490 0.338900 0.934520 -0.262955
O10   O     O_3   0.493510 0.838900 0.065480 -0.268753
V1    V     V_3+5 0.498800 0.064400 0.012150 1.334475
V2    V     V_3+5 0.501200 0.564400 0.987850 1.279001
C5    C     C_R   0.678480 0.799839 0.757600 -0.146888
C6    C     C_R   0.321913 0.432007 0.239556 -0.143998
H1    H     H_    0.597939 0.770309 0.728504 0.202622
H2    H     H_    0.402596 0.454457 0.267111 0.203511
H3    H     H_    0.768046 0.825850 0.710149 0.171568
H4    H     H_    0.232261 0.419276 0.288361 0.171244
H5    H     H_    0.678088 0.773957 0.667709 0.147013
H6    H     H_    0.322482 0.469493 0.328076 0.146585
C7    C     C_R   0.631594 0.846848 0.904820 -0.188699
C8    C     C_R   0.368447 0.358402 0.094878 -0.190921
C9    C     C_R   0.866610 0.843792 0.202157 -0.169794
C10   C     C_R   0.133549 0.365202 0.797640 -0.168951
C11   C     C_R   0.821988 0.812718 0.236883 -0.098089
C12   C     C_R   0.178447 0.382634 0.761968 -0.101018
C13   C     C_R   0.775995 0.808292 0.155973 -0.094832
C14   C     C_R   0.224489 0.387530 0.842672 -0.097138
C15   C     C_R   0.772856 0.847962 0.038475 0.098012
C16   C     C_R   0.227276 0.361666 0.961412 0.101004
C17   C     C_R   0.819251 0.861822 0.000025 0.019564
C18   C     C_R   0.180800 0.359645 0.000133 0.019642
C19   C     C_R   0.724851 0.854424 0.956954 0.011765
C20   C     C_R   0.275194 0.357916 0.043178 0.013131
C21   C     C_R   0.724289 0.829397 0.838787 0.084154
C22   C     C_R   0.275925 0.397645 0.159961 0.080970
C23   C     C_R   0.769286 0.836949 0.801575 -0.233317
C24   C     C_R   0.230924 0.399068 0.197449 -0.231932
C25   C     C_R   0.815897 0.864912 0.878651 0.319623
C26   C     C_R   0.184187 0.367947 0.121444 0.319581
C27   C     C_R   0.677175 0.884396 0.986865 0.204351
C28   C     C_R   0.322624 0.316804 0.014758 0.206588
C29   C     C_R   0.632774 0.800033 0.791669 -0.097762
C30   C     C_R   0.367589 0.421166 0.205493 -0.098698
C31   C     C_R   0.866389 0.862790 0.085272 -0.152177
C32   C     C_R   0.133642 0.358980 0.914966 -0.150714
H7    H     H_    0.902017 0.843386 0.266788 0.171212
H8    H     H_    0.098122 0.366171 0.733053 0.170811
H9    H     H_    0.743440 0.762574 0.186114 0.156864
H10   H     H_    0.257466 0.423052 0.810991 0.156398
H11   H     H_    0.823210 0.786243 0.326946 0.147749
H12   H     H_    0.177449 0.398991 0.671145 0.148001
C33   C     C_R   0.093438 0.860941 0.310025 -0.273137
C34   C     C_R   0.906615 0.360024 0.689883 -0.272840
C35   C     C_R   0.410350 0.854165 0.685096 -0.311568
C36   C     C_R   0.589525 0.351399 0.315189 -0.315276
C37   C     C_R   0.109746 0.840805 0.517484 -0.176141
C38   C     C_R   0.890200 0.358321 0.482057 -0.176936
C39   C     C_R   0.075577 0.853032 0.411164 0.316838
C40   C     C_R   0.924418 0.356107 0.588570 0.316765
C41   C     C_R   0.146282 0.864412 0.315618 0.258976
C42   C     C_R   0.853766 0.358634 0.684547 0.260533
C43   C     C_R   0.181856 0.869013 0.426028 0.014224
C44   C     C_R   0.818093 0.344957 0.574558 0.016044
C45   C     C_R   0.162145 0.845160 0.525794 0.063727
C46   C     C_R   0.837798 0.356693 0.474035 0.063321
C47   C     C_R   0.235913 0.890086 0.442882 0.086313
C48   C     C_R   0.763958 0.326720 0.558541 0.089540
C49   C     C_R   0.269031 0.853584 0.553302 0.094326
C50   C     C_R   0.730878 0.354040 0.446966 0.095679
C51   C     C_R   0.246896 0.818310 0.647277 -0.165741
C52   C     C_R   0.753062 0.377588 0.351871 -0.165999
C53   C     C_R   0.194696 0.822079 0.634207 -0.177757
C54   C     C_R   0.805250 0.370919 0.364999 -0.180465
C55   C     C_R   0.257919 0.961495 0.356388 -0.165005
C56   C     C_R   0.741785 0.267113 0.647572 -0.168891
C57   C     C_R   0.309866 0.955165 0.366068 -0.148576
C58   C     C_R   0.689838 0.275931 0.637545 -0.151073
C59   C     C_R   0.343136 0.898194 0.468822 -0.024639
C60   C     C_R   0.656641 0.323971 0.532823 -0.020733
C61   C     C_R   0.323140 0.860464 0.566494 0.087447
C62   C     C_R   0.676736 0.350206 0.433999 0.087295
C63   C     C_R   0.396196 0.890802 0.477150 0.244967
C64   C     C_R   0.603561 0.333949 0.524077 0.241798
C65   C     C_R   0.430256 0.877146 0.586583 0.299199
C66   C     C_R   0.569610 0.342469 0.414440 0.301766
C67   C     C_R   0.358031 0.835997 0.673864 -0.215483
C68   C     C_R   0.641903 0.365458 0.325791 -0.212734
H13   H     H_    0.179555 0.800973 0.709888 0.153156
H14   H     H_    0.820395 0.383213 0.288662 0.152828
H15   H     H_    0.345942 0.809014 0.752175 0.159034
H16   H     H_    0.654074 0.381108 0.246556 0.160649
H17   H     H_    0.323612 0.006466 0.293611 0.189007
H18   H     H_    0.676075 0.233921 0.711904 0.189349
H19   H     H_    0.095134 0.827050 0.594446 0.175807
H20   H     H_    0.904781 0.362798 0.404667 0.175814
H21   H     H_    0.268697 0.791224 0.733454 0.153849
H22   H     H_    0.731302 0.397702 0.264894 0.153647
H23   H     H_    0.235838 0.034097 0.282555 0.191476
H24   H     H_    0.763677 0.201506 0.724185 0.192070
O11   O     O_R   0.955980 0.206520 0.854760 -0.561422
O12   O     O_R   0.044020 0.706520 0.145240 -0.560185
O13   O     O_R   0.063490 0.536770 0.945200 -0.577729
O14   O     O_R   0.936510 0.036770 0.054800 -0.580350
C69   C     C_R   0.083544 0.368080 0.942309 1.014447
C70   C     C_R   0.916494 0.869563 0.058009 1.015102
O15   O     O_R   0.957530 0.536190 0.842880 -0.560017
O16   O     O_R   0.042470 0.036190 0.157120 -0.561908
O17   O     O_R   0.937350 0.707210 0.042130 -0.572871
O18   O     O_R   0.062650 0.207210 0.957870 -0.575985
C71   C     C_R   0.943231 0.367958 0.802344 1.089171
C72   C     C_R   0.056864 0.867748 0.197521 1.089048
O19   O     O_3   0.993540 0.373870 0.065440 -0.264969
O20   O     O_3   0.006460 0.873870 0.934560 -0.264715
V3    V     V_3+5 0.001200 0.648440 0.987860 1.301653
V4    V     V_3+5 0.998800 0.148440 0.012140 1.299421
N1    N     N_R   0.484389 0.893718 0.598806 0.251569
O21   O     O_R   0.511501 0.991261 0.682963 -0.400071
O22   O     O_R   0.507370 0.809095 0.528213 -0.297690
N2    N     N_R   0.515412 0.337179 0.403393 0.251913
O23   O     O_R   0.486825 0.236124 0.323439 -0.400748
O24   O     O_R   0.493783 0.439393 0.469272 -0.302405
Br1   Br    Br    0.004440 0.850104 0.408232 -0.524895
Br2   Br    Br    0.995544 0.356131 0.591208 -0.524826
Br3   Br    Br    0.165132 0.831173 0.168807 -0.573672
Br4   Br    Br    0.835159 0.407241 0.830156 -0.576238
Br5   Br    Br    0.421354 0.896217 0.338059 -0.411368
Br6   Br    Br    0.577695 0.333619 0.662343 -0.413950
Br7   Br    Br    0.671310 0.014218 0.126367 -0.623754
Br8   Br    Br    0.327497 0.166258 0.881972 -0.620022
Br9   Br    Br    0.871207 0.891326 0.803394 -0.507418
Br10  Br    Br    0.128955 0.348930 0.197581 -0.507774

loop_
_geom_bond_atom_site_label_1
_geom_bond_atom_site_label_2
_geom_bond_distance
_ccdc_geom_bond_type
C26   Br10  1.925132 S    
C59   C63   1.415740 A    
O12   V3    2.006702 S    
C46   C54   1.393371 A    
C23   C25   1.392287 A    
C45   C53   1.393290 A    
O14   V4    2.036420 S    
C42   C44   1.439677 A    
O1    C3    1.310079 A    
O2    C4    1.312901 A    
C2    O7    1.309716 A    
C47   C55   1.401950 A    
C61   C67   1.412518 A    
O3    V1    2.019899 S    
C21   C23   1.390074 A    
O5    C3    1.314816 A    
C39   Br1   1.916356 S    
C5    H5    1.084365 S    
C50   C52   1.410829 A    
C56   H24   1.070803 S    
C6    H6    1.084358 S    
C52   C54   1.383869 A    
C60   C62   1.420139 A    
O19   V3    2.190562 S    
C35   C65   1.410859 A    
H1    C29   1.082834 S    
C9    C11   1.383133 A    
C63   Br5   1.933080 S    
C68   H16   1.075964 S    
C38   C46   1.398250 A    
O15   V3    2.020022 S    
C5    C21   1.400896 A    
O13   V3    2.024414 S    
C37   C39   1.386490 A    
C6    C22   1.401108 A    
O20   V3    1.741804 S    
C38   C40   1.386536 A    
C15   C17   1.436438 A    
O17   V3    2.019800 S    
C10   C32   1.398494 A    
C34   C42   1.415987 A    
C41   C43   1.439052 A    
C17   C31   1.433956 A    
C13   C15   1.411752 A    
O11   V4    2.003654 S    
C12   C14   1.386134 A    
C17   C25   1.428417 A    
C7    C29   1.395937 A    
C16   C18   1.436197 A    
C8    C30   1.396222 A    
O5    V1    2.024615 S    
O6    V2    2.036637 S    
C52   H22   1.075627 S    
O13   C69   1.314084 A    
C55   H23   1.071699 S    
C37   H19   1.084573 S    
C24   C26   1.392725 A    
C14   H10   1.078015 S    
C57   C59   1.398711 A    
C9    H7    1.080637 S    
C33   C39   1.400185 A    
C33   C72   1.470408 S    
C36   C68   1.397096 A    
C34   C40   1.400073 A    
C20   C28   1.428386 A    
C58   H18   1.081089 S    
C60   C64   1.416148 A    
C48   C50   1.432353 A    
O19   V4    1.737871 S    
O16   V4    2.013840 S    
C11   H11   1.082856 S    
C3    C8    1.466741 S    
C40   Br2   1.916540 S    
C12   H12   1.082880 S    
C32   C69   1.466124 S    
C15   C19   1.430041 A    
C48   C56   1.402039 A    
O12   C72   1.312804 A    
C44   C48   1.438803 A    
C43   C45   1.422354 A    
C14   C16   1.411757 A    
O4    V2    2.013715 S    
C28   Br8   1.937467 S    
O15   C71   1.314936 A    
O6    C4    1.311833 A    
O1    V2    2.025701 S    
C35   C67   1.397096 A    
C13   H9    1.077821 S    
C25   Br9   1.924970 S    
O2    V1    2.019158 S    
C51   C53   1.383935 A    
C70   O17   1.311525 A    
C49   C61   1.436285 A    
N1    O21   1.299460 A    
H2    C30   1.082625 S    
C69   O18   1.310927 A    
C38   H20   1.084627 S    
C56   C58   1.382915 A    
C59   C61   1.419502 A    
C64   C66   1.412922 A    
C58   C60   1.398462 A    
C63   C65   1.414186 A    
C34   C71   1.471314 S    
H3    C23   1.085114 S    
C18   C26   1.428493 A    
O4    C2    1.308753 A    
C49   C51   1.410765 A    
C19   C27   1.429441 A    
C7    C27   1.411431 A    
O16   C72   1.311454 A    
C18   C32   1.433855 A    
C53   H13   1.084731 S    
N2    O24   1.299783 A    
C37   C45   1.398063 A    
C1    C36   1.471786 S    
C16   C20   1.429308 A    
C66   N2    1.441724 S    
C2    C35   1.470941 S    
O11   C71   1.310664 A    
C5    C29   1.387737 A    
C33   C41   1.415583 A    
O3    C1    1.312094 A    
C6    C30   1.388457 A    
C41   Br3   1.946298 S    
C36   C66   1.410669 A    
C27   Br7   1.937637 S    
C50   C62   1.436761 A    
C55   C57   1.383025 A    
C4    C7    1.466953 S    
C10   C12   1.383117 A    
O7    V1    2.008546 S    
C1    O8    1.307827 A    
C19   C21   1.415846 A    
C62   C68   1.413106 A    
C20   C22   1.415407 A    
C10   H8    1.080745 S    
H4    C24   1.085063 S    
C65   N1    1.443013 S    
C54   H14   1.084900 S    
C22   C24   1.390367 A    
C57   H17   1.081148 S    
O14   C70   1.313218 A    
C43   C47   1.437845 A    
O20   V4    2.185014 S    
N1    O22   1.299975 A    
C8    C28   1.410991 A    
C67   H15   1.076097 S    
C11   C13   1.386271 A    
O9    V2    1.738593 S    
C47   C49   1.432089 A    
C51   H21   1.075593 S    
C44   C46   1.422595 A    
C64   Br6   1.933952 S    
O10   V1    1.742539 S    
C31   C70   1.466192 S    
O8    V2    2.005426 S    
O18   V4    2.026374 S    
C9    C31   1.398389 A    
N2    O23   1.298495 A    
C42   Br4   1.945434 S    
