data_mof_unit_28830.cif
_audit_creation_date              2012-12-10T17:02:03-0500
_audit_creation_method            fapswitch 2.2
_symmetry_space_group_name_H-M    P1
_symmetry_Int_Tables_number       1
_space_group_crystal_system       triclinic
_cell_length_a                    10.781784
_cell_length_b                    11.052611
_cell_length_c                    9.805052
_cell_angle_alpha                 111.63251
_cell_angle_beta                  97.200176
_cell_angle_gamma                 91.208163
_cell_volume                      1074.70411084

loop_
_atom_site_label
_atom_site_type_symbol
_atom_type_description
_atom_site_fract_x
_atom_site_fract_y
_atom_site_fract_z
_atom_type_partial_charge
C1    C     C_R   0.490560 0.253829 0.440069 0.853867
C2    C     C_R   0.076597 0.506055 0.632103 0.015872
C3    C     C_R   0.130748 0.534702 0.521728 -0.152483
C4    C     C_R   0.052070 0.560263 0.410972 0.157036
C5    C     C_R   0.923110 0.539925 0.399344 -0.212426
C6    C     C_R   0.871491 0.487741 0.491496 -0.129907
C7    C     C_2   0.485247 0.114054 0.406224 -0.331759
C8    C     C_2   0.499089 0.071061 0.517150 -0.130809
C9    C     C_2   0.511692 0.886782 0.597518 0.005064
C10   C     C_2   0.496357 0.932198 0.487785 -0.174871
C11   C     C_2   0.512323 0.508814 0.080756 -0.032765
C12   C     C_R   0.263634 0.515008 0.507146 0.841243
C13   C     C_2   0.492162 0.486493 0.918089 -0.038018
C14   C     C_R   0.508525 0.746347 0.560350 0.833354
C15   C     C_R   0.737189 0.491930 0.495685 0.802783
C16   C     C_R   0.140775 0.524920 0.774533 0.194989
C17   C     C_R   0.096479 0.456578 0.855560 -0.163564
C18   C     C_R   0.981837 0.383167 0.804993 -0.153919
C19   C     C_R   0.906164 0.388629 0.681418 -0.135138
C20   C     C_R   0.950248 0.458566 0.599862 0.067790
Cu1   Cu    Cu3+1 0.521920 0.521810 0.644910 0.988785
Cu2   Cu    Cu3+1 0.478080 0.478190 0.355090 0.987415
H1    H     H_    0.470487 0.046563 0.291269 0.183557
H2    H     H_    0.420976 0.412335 0.844904 0.163289
H3    H     H_    0.585518 0.580736 0.153413 0.154801
H4    H     H_    0.621704 0.624520 0.934679 0.211568
H5    H     H_    0.376090 0.377889 0.065915 0.206793
H6    H     H_    0.147382 0.466296 0.961723 0.176207
H7    H     H_    0.947299 0.330628 0.868067 0.166139
H8    H     H_    0.813829 0.337970 0.650079 0.152543
H9    H     H_    0.863035 0.568370 0.320750 0.173790
H10   H     H_    0.482017 0.865224 0.372512 0.183150
H11   H     H_    0.513279 0.140053 0.630861 0.207814
N1    N     N_2   0.445130 0.445430 0.137370 -0.270253
N2    N     N_2   0.554930 0.554500 0.862630 -0.270695
O1    O     O_R   0.511700 0.332330 0.577400 -0.594539
O2    O     O_R   0.474680 0.295500 0.332650 -0.555415
O3    O     O_R   0.338160 0.518420 0.622400 -0.569175
O4    O     O_R   0.301140 0.481590 0.377650 -0.548778
O5    O     O_R   0.525320 0.704500 0.667350 -0.531276
O6    O     O_R   0.488300 0.667670 0.422600 -0.589702
O7    O     O_R   0.698860 0.518410 0.622350 -0.571540
O8    O     O_R   0.661840 0.481580 0.377600 -0.583153
I1    I     I_    0.118618 0.652782 0.275977 -0.349254
I2    I     I_    0.256420 0.699054 0.901829 -0.288903
I3    I     I_    0.539615 0.009483 0.828073 -0.349505

loop_
_geom_bond_atom_site_label_1
_geom_bond_atom_site_label_2
_ccdc_geom_bond_type
C16   I2    S    
C9    C14   S    
Cu1   N2    S    
C6    C20   A    
C9    C10   D    
Cu2   O8    S    
C1    O2    A    
C17   H6    S    
C12   O4    A    
C17   C18   A    
C15   O8    A    
C9    I3    S    
Cu1   O1    S    
Cu1   Cu2   S    
C11   C13   S    
C19   H8    S    
Cu1   O5    S    
C14   O6    A    
C7    H1    S    
Cu2   O4    S    
C13   H2    S    
C13   N2    D    
C2    C3    A    
C8    H11   S    
H5    N1    S    
C12   O3    A    
C5    C6    A    
Cu2   N1    S    
Cu2   O6    S    
Cu1   O7    S    
C11   H3    S    
C14   O5    A    
C3    C4    A    
C10   H10   S    
H4    N2    S    
C7    C8    D    
C2    C16   A    
C1    O1    A    
C8    C10   S    
C18   C19   A    
C18   H7    S    
C16   C17   A    
C3    C12   S    
C4    I1    S    
C6    C15   S    
C1    C7    S    
Cu2   O2    S    
C2    C20   A    
C11   N1    D    
Cu1   O3    S    
C19   C20   A    
C15   O7    A    
C4    C5    A    
C5    H9    S    
