data_mof_unit_53849.cif
_audit_creation_date              2012-12-10T17:19:02-0500
_audit_creation_method            fapswitch 2.2
_symmetry_space_group_name_H-M    P1
_symmetry_Int_Tables_number       1
_space_group_crystal_system       triclinic
_cell_length_a                    10.188991
_cell_length_b                    10.839195
_cell_length_c                    13.465246
_cell_angle_alpha                 92.332758
_cell_angle_beta                  99.754925
_cell_angle_gamma                 96.115704
_cell_volume                      1454.64383108

loop_
_atom_site_label
_atom_site_type_symbol
_atom_type_description
_atom_site_fract_x
_atom_site_fract_y
_atom_site_fract_z
_atom_type_partial_charge
C1    C     C_R   0.054408 0.732632 0.495831 0.941269
C2    C     C_2   0.023273 0.068557 0.526016 -0.144307
C3    C     C_2   0.430735 0.511424 0.508671 -0.142914
C4    C     C_2   0.569266 0.488344 0.491595 -0.139284
C5    C     C_R   0.094032 0.517724 0.686770 0.871223
C6    C     C_R   0.906707 0.484335 0.313245 0.869325
C7    C     C_R   0.149487 0.548808 0.794282 -0.112285
C8    C     C_R   0.861332 0.480143 0.203516 -0.110255
C9    C     C_R   0.168698 0.667398 0.954345 -0.234349
C10   C     C_R   0.868937 0.418925 0.029338 -0.236898
C11   C     C_R   0.091746 0.624182 0.860454 0.165029
C12   C     C_R   0.947643 0.267829 0.508894 0.942125
C13   C     C_R   0.923622 0.418571 0.131990 0.171713
C14   C     C_R   0.277427 0.515222 0.826182 -0.306295
C15   C     C_R   0.748749 0.540149 0.170552 -0.309497
C16   C     C_R   0.358928 0.568708 0.914182 0.092149
C17   C     C_R   0.689794 0.535303 0.068910 0.091710
C18   C     C_R   0.301643 0.642065 0.980661 0.123849
C19   C     C_R   0.750579 0.471900 0.998066 0.129066
C20   C     C_R   0.494882 0.547265 0.938781 0.082320
C21   C     C_R   0.565346 0.581748 0.037472 0.077118
C22   C     C_3   0.040437 0.343887 0.160737 -0.408323
C23   C     C_R   0.506928 0.658022 0.101749 -0.228944
C24   C     C_3   0.174008 0.423020 0.162281 -0.805671
C25   C     C_3   0.953204 0.665117 0.834261 -0.394886
C26   C     C_3   0.956109 0.781465 0.774203 -0.825109
C27   C     C_R   0.562726 0.492981 0.867777 -0.230986
C28   C     C_R   0.377638 0.688794 0.072901 -0.231395
C29   C     C_R   0.689229 0.456872 0.897189 -0.252962
C30   C     C_2   0.088965 0.865514 0.501501 -0.391857
C31   C     C_2   0.921070 0.136699 0.521803 -0.391212
C32   C     C_2   0.000097 0.936559 0.528379 -0.157258
H1    H     H_    0.335913 0.746989 0.124114 0.147672
H2    H     H_    0.183782 0.905089 0.482931 0.150466
H3    H     H_    0.578678 0.414210 0.437523 0.165851
H4    H     H_    0.421321 0.585354 0.562932 0.165712
H5    H     H_    0.183141 0.508309 0.212640 0.271487
H6    H     H_    0.257815 0.368523 0.189687 0.233685
H7    H     H_    0.182297 0.449997 0.084801 0.258734
H8    H     H_    0.037900 0.301432 0.234012 0.215016
H9    H     H_    0.033019 0.263646 0.105095 0.191440
H10   H     H_    0.015907 0.861026 0.821614 0.249572
H11   H     H_    0.001332 0.766710 0.706050 0.268750
H12   H     H_    0.736234 0.411444 0.841530 0.147342
H13   H     H_    0.852389 0.804884 0.750449 0.235752
H14   H     H_    0.880375 0.589440 0.793193 0.223244
H15   H     H_    0.913796 0.686877 0.904324 0.203601
H16   H     H_    0.559879 0.698099 0.173910 0.146852
H17   H     H_    0.520756 0.478558 0.788475 0.149583
H18   H     H_    0.664816 0.623184 0.590045 0.159778
H19   H     H_    0.335222 0.376994 0.409822 0.160784
H20   H     H_    0.703289 0.584256 0.226991 0.170903
H21   H     H_    0.313263 0.447491 0.779552 0.167643
H22   H     H_    0.126163 0.724452 0.005925 0.141176
H23   H     H_    0.914801 0.371426 0.973962 0.141254
H24   H     H_    0.124405 0.109060 0.521623 0.188638
H25   H     H_    0.904972 0.897409 0.546890 0.189409
H26   H     H_    0.820186 0.095781 0.526178 0.149255
N1    N     N_2   0.322180 0.446120 0.460900 -0.190785
N2    N     N_2   0.677820 0.553880 0.539100 -0.192260
O1    O     O_R   0.935190 0.693030 0.507870 -0.610976
O2    O     O_R   0.064810 0.306970 0.492130 -0.612129
O3    O     O_R   0.142080 0.658430 0.482770 -0.605372
O4    O     O_R   0.857920 0.341570 0.517230 -0.608225
O5    O     O_R   0.969700 0.527180 0.651960 -0.610408
O6    O     O_R   0.030300 0.472820 0.348040 -0.601709
O7    O     O_R   0.176600 0.492580 0.626860 -0.606876
O8    O     O_R   0.823400 0.507420 0.373140 -0.606383
Zn1   Zn    Zn3+2 0.861850 0.523100 0.516760 0.923004
Zn2   Zn    Zn3+2 0.138150 0.476900 0.483240 0.926311

loop_
_geom_bond_atom_site_label_1
_geom_bond_atom_site_label_2
_ccdc_geom_bond_type
C26   H11   S    
C24   H6    S    
C5    C7    S    
C8    C13   A    
C9    H22   S    
C20   C27   A    
C27   C29   A    
C12   O2    A    
C25   H15   S    
C25   H14   S    
O3    Zn2   S    
C16   C20   A    
C10   C19   A    
C5    O7    A    
O7    Zn2   S    
C22   H8    S    
C4    N2    D    
C5    O5    A    
C6    O8    A    
C24   H5    S    
C4    H3    S    
H18   N2    S    
C12   C31   S    
C2    H24   S    
C23   C28   A    
C30   C32   D    
C10   H23   S    
C9    C11   A    
O2    Zn2   S    
O6    Zn2   S    
C32   H25   S    
O5    Zn1   S    
C2    C32   S    
C3    H4    S    
C31   H26   S    
N2    Zn1   S    
C1    C30   S    
C17   C19   A    
C13   C22   S    
C7    C11   A    
C8    C15   A    
C22   C24   S    
C21   C23   A    
C29   H12   S    
C12   O4    A    
C14   C16   A    
C22   H9    S    
H19   N1    S    
C28   H1    S    
C30   H2    S    
N1    Zn2   S    
C3    C4    S    
C19   C29   A    
C1    O3    A    
C9    C18   A    
C6    O6    A    
C14   H21   S    
C18   C28   A    
C20   C21   A    
C26   H10   S    
C16   C18   A    
O1    Zn1   S    
C15   C17   A    
C11   C25   S    
C2    C31   D    
C6    C8    S    
C23   H16   S    
C26   H13   S    
C25   C26   S    
C15   H20   S    
C24   H7    S    
O4    Zn1   S    
C7    C14   A    
C17   C21   A    
C27   H17   S    
C3    N1    D    
O8    Zn1   S    
C10   C13   A    
C1    O1    A    
