data_mof_unit_59501.cif
_audit_creation_date              2012-10-26T21:14:53-0400
_audit_creation_method            fapswitch 2.2
_symmetry_space_group_name_H-M    P1
_symmetry_Int_Tables_number       1
_space_group_crystal_system       triclinic
_cell_length_a                    15.067344
_cell_length_b                    10.821274
_cell_length_c                    13.760861
_cell_angle_alpha                 90.683996
_cell_angle_beta                  89.06963
_cell_angle_gamma                 88.530443
_cell_volume                      2242.47394508

loop_
_atom_site_label
_atom_site_type_symbol
_atom_type_description
_atom_site_fract_x
_atom_site_fract_y
_atom_site_fract_z
_atom_type_partial_charge
C1    C     C_R   0.498091 0.262360 0.499466 0.542016
C2    C     C_R   0.581289 0.878913 0.664151 0.031710
C3    C     C_R   0.455625 0.105388 0.241984 -0.162254
C4    C     C_R   0.544375 0.894612 0.758016 -0.162253
C5    C     C_R   0.417592 0.166427 0.163290 -0.098275
C6    C     C_R   0.582408 0.833572 0.836710 -0.098275
C7    C     C_R   0.341964 0.242559 0.177533 0.261403
C8    C     C_R   0.658036 0.757441 0.822467 0.261404
C9    C     C_R   0.466741 0.933168 0.421901 -0.141737
C10   C     C_R   0.533259 0.066832 0.578099 -0.141737
C11   C     C_R   0.503555 0.871539 0.501238 -0.001317
C12   C     C_R   0.501909 0.737640 0.500534 0.542016
C13   C     C_R   0.496445 0.128461 0.498762 -0.001317
C14   C     C_R   0.538075 0.938741 0.580095 -0.023699
C15   C     C_R   0.461925 0.061259 0.419904 -0.023698
C16   C     C_R   0.328602 0.499878 0.500535 0.547662
C17   C     C_R   0.671398 0.500122 0.499465 0.547662
C18   C     C_R   0.558312 0.424711 0.791515 0.042757
C19   C     C_R   0.441688 0.575289 0.208485 0.042758
C20   C     C_R   0.440212 0.575199 0.795777 0.155070
C21   C     C_R   0.559788 0.424801 0.204223 0.155070
C22   C     C_R   0.439532 0.577498 0.899207 0.004840
C23   C     C_R   0.044285 0.443212 0.671057 -0.111734
C24   C     C_R   0.560468 0.422502 0.100793 0.004840
C25   C     C_R   0.499619 0.499978 0.948255 0.078251
C26   C     C_R   0.500381 0.500022 0.051745 0.078251
C27   C     C_R   0.559082 0.422527 0.894012 0.015160
C28   C     C_R   0.440919 0.577473 0.105987 0.015160
C29   C     C_R   0.381306 0.656037 0.955017 -0.105225
C30   C     C_R   0.618694 0.343963 0.044983 -0.105226
C31   C     C_R   0.381862 0.655434 0.056741 -0.113423
C32   C     C_R   0.618138 0.344566 0.943259 -0.113423
C33   C     C_R   0.815432 0.529017 0.414099 -0.104397
C34   C     C_R   0.955715 0.556788 0.328942 -0.111734
C35   C     C_R   0.184568 0.470982 0.585901 -0.104398
C36   C     C_R   0.768227 0.500212 0.499084 -0.014202
C37   C     C_R   0.231773 0.499787 0.500916 -0.014202
C38   C     C_R   0.813673 0.472034 0.584563 -0.145169
C39   C     C_R   0.186327 0.527966 0.415437 -0.145169
C40   C     C_R   0.906053 0.471868 0.585565 0.009921
C41   C     C_R   0.093947 0.528132 0.414435 0.009921
C42   C     C_R   0.953482 0.500143 0.499824 0.061793
C43   C     C_R   0.046518 0.499858 0.500175 0.061793
C44   C     C_R   0.907961 0.528793 0.413761 0.011639
C45   C     C_R   0.303851 0.256733 0.270504 -0.059544
C46   C     C_R   0.092039 0.471207 0.586239 0.011639
C47   C     C_R   0.951741 0.443638 0.670744 -0.120572
C48   C     C_R   0.048259 0.556361 0.329255 -0.120572
C49   C     C_2   0.375149 0.653920 0.744640 0.270132
C50   C     C_2   0.624851 0.346079 0.255360 0.270132
C51   C     C_R   0.696149 0.743267 0.729495 -0.059544
C52   C     C_R   0.341782 0.195950 0.349396 -0.092487
C53   C     C_R   0.658218 0.804051 0.650604 -0.092487
C54   C     C_R   0.418711 0.121087 0.335849 0.031710
Cl1   Cl    Cl    0.295014 0.320194 0.078891 -0.617991
Cl2   Cl    Cl    0.704986 0.679806 0.921109 -0.617991
Cu1   Cu    Cu3+1 0.500010 0.499980 0.597420 0.959566
Cu2   Cu    Cu3+1 0.499990 0.500020 0.402580 0.959567
H1    H     H_    0.780270 0.552733 0.348533 0.177567
H2    H     H_    0.664016 0.283617 0.903069 0.112513
H3    H     H_    0.777228 0.449494 0.650343 0.130252
H4    H     H_    0.222772 0.550506 0.349657 0.130252
H5    H     H_    0.915900 0.421860 0.737017 0.133683
H6    H     H_    0.084100 0.578139 0.262983 0.133683
H7    H     H_    0.078498 0.421139 0.737557 0.144911
H8    H     H_    0.921502 0.578861 0.262443 0.144910
H9    H     H_    0.245141 0.315197 0.281778 0.137945
H10   H     H_    0.754859 0.684803 0.718222 0.137945
H11   H     H_    0.312126 0.208605 0.421179 0.108187
H12   H     H_    0.219730 0.447267 0.651467 0.177567
H13   H     H_    0.687874 0.791395 0.578821 0.108187
H14   H     H_    0.514914 0.048099 0.230197 0.117063
H15   H     H_    0.485086 0.951901 0.769802 0.117063
H16   H     H_    0.447375 0.155323 0.091483 0.139795
H17   H     H_    0.552625 0.844677 0.908517 0.139795
H18   H     H_    0.395857 0.734920 0.706085 0.121507
H19   H     H_    0.604142 0.265078 0.293914 0.121507
H20   H     H_    0.438974 0.881304 0.362194 0.132915
H21   H     H_    0.561026 0.118696 0.637806 0.132915
H22   H     H_    0.604136 0.365795 0.749550 0.118576
H23   H     H_    0.395864 0.634205 0.250450 0.118576
H24   H     H_    0.334959 0.719192 0.920868 0.149922
H25   H     H_    0.665041 0.280808 0.079132 0.149922
H26   H     H_    0.335985 0.716383 0.096931 0.112512
N1    N     N_R   0.499960 0.499900 0.743810 -0.257076
N2    N     N_R   0.500040 0.500100 0.256190 -0.257076
O1    O     O_R   0.500000 0.319630 0.582270 -0.511073
O2    O     O_2   0.703817 0.368069 0.250075 -0.523885
O3    O     O_R   0.500000 0.680370 0.417730 -0.511073
O4    O     O_R   0.499990 0.319660 0.417730 -0.517796
O5    O     O_R   0.500010 0.680340 0.582270 -0.517796
O6    O     O_R   0.370260 0.499960 0.582280 -0.475919
O7    O     O_R   0.629740 0.500040 0.417720 -0.475918
O8    O     O_R   0.370250 0.499990 0.417740 -0.518978
O9    O     O_R   0.629750 0.500010 0.582260 -0.518978
O10   O     O_2   0.296182 0.631930 0.749926 -0.523885

loop_
_geom_bond_atom_site_label_1
_geom_bond_atom_site_label_2
_ccdc_geom_bond_type
C1    O1    A    
C40   C47   A    
C38   C40   A    
C1    O4    A    
C22   C29   A    
C12   O5    A    
C7    Cl1   S    
C19   N2    A    
C8    Cl2   S    
C6    H17   S    
C39   C41   A    
C7    C45   A    
Cu1   O6    S    
Cu2   O7    S    
C24   C26   A    
C47   H5    S    
C3    C54   A    
C48   H6    S    
C30   H25   S    
C33   C36   A    
C5    H16   S    
C52   H11   S    
C35   H12   S    
C22   C25   A    
C45   H9    S    
C17   O9    A    
C17   C36   S    
C50   O2    D    
C16   C37   S    
C9    H20   S    
C38   H3    S    
C40   C42   A    
C33   H1    S    
C23   C46   A    
C41   C43   A    
C34   H8    S    
C42   C44   A    
Cu2   N2    S    
C21   C50   S    
C43   C46   A    
C52   C54   A    
C18   N1    A    
C23   C47   A    
C15   C54   S    
C12   O3    A    
C34   C44   A    
C4    C6    A    
C10   C14   A    
C5    C7    A    
C6    C8    A    
C45   C52   A    
C25   C26   A    
C10   C13   A    
C31   H26   S    
Cu1   O1    S    
C51   C53   A    
C1    C13   S    
C2    C4    A    
C20   C49   S    
C9    C11   A    
C11   C12   S    
C20   N1    A    
C49   H18   S    
C19   C28   A    
Cu2   O4    S    
C8    C51   A    
C4    H15   S    
C18   H22   S    
C20   C22   A    
C16   O6    A    
C13   C15   A    
C17   O7    A    
C42   C43   A    
C32   H2    S    
C53   H13   S    
C50   H19   S    
C39   H4    S    
C21   N2    A    
Cu1   O5    S    
C35   C37   A    
C27   C32   A    
C33   C44   A    
C16   O8    A    
C28   C31   A    
C18   C27   A    
C3    C5    A    
C2    C53   A    
C10   H21   S    
C25   C27   A    
C26   C28   A    
C23   H7    S    
C36   C38   A    
C3    H14   S    
C9    C15   A    
C29   H24   S    
C29   C31   A    
C30   C32   A    
Cu1   Cu2   S    
C11   C14   A    
C41   C48   A    
Cu1   N1    S    
C51   H10   S    
C49   O10   D    
Cu2   O8    S    
C2    C14   S    
Cu2   O3    S    
C24   C30   A    
C34   C48   A    
C37   C39   A    
Cu1   O9    S    
C21   C24   A    
C19   H23   S    
C35   C46   A    
