data_mof_unit_19957.cif
_audit_creation_date              2012-12-10T16:58:27-0500
_audit_creation_method            fapswitch 2.2
_symmetry_space_group_name_H-M    P1
_symmetry_Int_Tables_number       1
_space_group_crystal_system       triclinic
_cell_length_a                    7.864557
_cell_length_b                    8.66695
_cell_length_c                    23.45671
_cell_angle_alpha                 92.336692
_cell_angle_beta                  87.140998
_cell_angle_gamma                 91.933962
_cell_volume                      1594.72594701

loop_
_atom_site_label
_atom_site_type_symbol
_atom_type_description
_atom_site_fract_x
_atom_site_fract_y
_atom_site_fract_z
_atom_type_partial_charge
C1    C     C_R   0.543978 0.793857 0.498588 0.951861
C2    C     C_R   0.456096 0.206179 0.501076 0.965139
C3    C     C_R   0.511357 0.387246 0.763355 0.400037
C4    C     C_R   0.621237 0.605067 0.238982 0.434632
C5    C     C_R   0.511770 0.374093 0.703313 0.277438
C6    C     C_R   0.607523 0.608360 0.298746 0.240890
C7    C     C_R   0.506866 0.508505 0.672542 -0.292970
C8    C     C_R   0.488349 0.510019 0.327394 -0.333303
C9    C     C_R   0.479925 0.649825 0.701980 0.354773
C10   C     C_R   0.358814 0.431519 0.297069 0.461739
C11   C     C_R   0.424053 0.651757 0.759181 -0.276949
C12   C     C_R   0.360101 0.449031 0.237555 -0.346105
C13   C     C_R   0.450791 0.523689 0.791659 0.044975
C14   C     C_R   0.492523 0.528903 0.208337 0.078806
C15   C     C_2   0.567625 0.956107 0.497818 -0.384222
C16   C     C_2   0.432713 0.043948 0.500954 -0.401995
C17   C     C_R   0.503313 0.501344 0.610319 1.002839
C18   C     C_R   0.495861 0.499560 0.389545 0.955569
C19   C     C_R   0.463564 0.396560 0.116300 0.503146
C20   C     C_R   0.501105 0.663988 0.882120 0.500045
C21   C     C_R   0.501522 0.671623 0.120664 0.573476
C22   C     C_R   0.360607 0.415216 0.882558 0.597373
C23   C     C_R   0.500262 0.674832 0.061198 -0.046053
C24   C     C_R   0.379861 0.407790 0.941195 -0.049146
C25   C     C_R   0.457923 0.537717 0.030295 -0.018192
C26   C     C_R   0.442581 0.539729 0.971064 -0.023333
C27   C     C_R   0.432108 0.398258 0.058339 -0.019421
C28   C     C_R   0.492698 0.672936 0.941748 -0.008904
C29   C     C_R   0.537752 0.811199 0.032063 -0.168477
C30   C     C_R   0.343267 0.271097 0.970177 -0.181065
C31   C     C_R   0.540155 0.808836 0.972547 -0.168743
C32   C     C_R   0.375464 0.264762 0.027935 -0.170664
N1    N     N_R   0.490972 0.532790 0.147088 -0.322966
N2    N     N_R   0.433580 0.536447 0.853192 -0.319234
N3    N     N_2   0.950330 0.457950 0.484560 0.157332
N4    N     N_2   0.049670 0.542050 0.515440 0.151579
O1    O     O_R   0.389250 0.738570 0.503790 -0.684668
O2    O     O_R   0.610750 0.261430 0.496210 -0.669779
O3    O     O_R   0.678390 0.711620 0.493890 -0.579631
O4    O     O_R   0.321610 0.288380 0.506110 -0.598573
O5    O     O_R   0.355400 0.513520 0.588790 -0.643912
O6    O     O_R   0.644600 0.486480 0.411210 -0.613896
O7    O     O_R   0.644550 0.486570 0.578900 -0.577958
O8    O     O_R   0.355450 0.513430 0.421100 -0.562013
O9    O     O_2   0.465484 0.259831 0.141832 -0.555094
O10   O     O_2   0.582218 0.779405 0.853743 -0.597898
O11   O     O_2   0.508198 0.806118 0.151653 -0.510086
O12   O     O_2   0.272523 0.301130 0.854987 -0.561552
Zn1   Zn    Zn3+2 0.306930 0.518000 0.506610 1.022508
Zn2   Zn    Zn3+2 0.693070 0.482000 0.493390 1.037172
H1    H     H_    0.571491 0.918101 0.054928 0.199877
H2    H     H_    0.297223 0.167292 0.947837 0.191014
H3    H     H_    0.576468 0.913854 0.950878 0.186020
H4    H     H_    0.352141 0.156480 0.048910 0.188740
O13   O     O_3   0.564096 0.265590 0.793748 -0.584329
C33   C     C_3   0.731736 0.299477 0.810794 0.068940
H5    H     H_    0.748385 0.419825 0.828812 0.143830
H6    H     H_    0.823836 0.283015 0.773638 0.158039
C34   C     C_3   0.773838 0.190709 0.857076 -0.755536
H7    H     H_    0.764817 0.068813 0.840881 0.278387
H8    H     H_    0.905416 0.216469 0.870616 0.234889
H9    H     H_    0.683720 0.206173 0.894699 0.250603
O14   O     O_3   0.744564 0.695464 0.210983 -0.543698
C35   C     C_3   0.902951 0.624645 0.211900 0.087638
H10   H     H_    0.893925 0.501552 0.196168 0.121035
H11   H     H_    0.950572 0.631855 0.255837 0.175383
C36   C     C_3   0.030915 0.709510 0.172713 -0.753199
H12   H     H_    0.046128 0.832111 0.187738 0.270066
H13   H     H_    0.156059 0.654539 0.172699 0.204211
H14   H     H_    0.986732 0.704723 0.128411 0.254582
O15   O     O_3   0.519451 0.232749 0.674250 -0.622451
C37   C     C_3   0.374280 0.140548 0.690271 0.187239
H15   H     H_    0.258706 0.208758 0.702157 0.119035
H16   H     H_    0.402211 0.070691 0.727108 0.215980
C38   C     C_3   0.330700 0.032220 0.640554 -0.802075
H17   H     H_    0.251678 0.933550 0.656728 0.214175
H18   H     H_    0.259713 0.095120 0.609588 0.231974
H19   H     H_    0.448130 0.987488 0.618597 0.305390
O16   O     O_3   0.692976 0.724803 0.328592 -0.579280
C39   C     C_3   0.581709 0.850145 0.336193 0.172083
H20   H     H_    0.480542 0.824826 0.369720 0.123415
H21   H     H_    0.520372 0.877010 0.295960 0.171571
C40   C     C_3   0.681061 0.993583 0.355145 -0.847152
H22   H     H_    0.774950 0.027972 0.320746 0.257923
H23   H     H_    0.593224 0.089764 0.365231 0.212388
H24   H     H_    0.748218 0.967897 0.393762 0.257589
O17   O     O_3   0.548523 0.784202 0.680138 -0.623180
C41   C     C_3   0.719352 0.800222 0.697227 0.089895
H25   H     H_    0.805088 0.750921 0.662841 0.188044
H26   H     H_    0.745606 0.739122 0.736832 0.161616
C42   C     C_3   0.764575 0.969289 0.709641 -0.785205
H27   H     H_    0.680746 0.012918 0.745490 0.303618
H28   H     H_    0.898777 0.982658 0.722174 0.192182
H29   H     H_    0.747867 0.037325 0.671476 0.296490
O18   O     O_3   0.240835 0.337333 0.327327 -0.580183
C43   C     C_3   0.094465 0.289834 0.297366 0.172580
H30   H     H_    0.047042 0.380364 0.270823 0.083967
H31   H     H_    0.987531 0.271790 0.329010 0.179566
C44   C     C_3   0.122070 0.136988 0.263452 -0.881387
H32   H     H_    0.165773 0.047775 0.291443 0.258436
H33   H     H_    0.000747 0.095794 0.244945 0.231010
H34   H     H_    0.219579 0.149673 0.228125 0.289196
H35   H     H_    0.384966 0.760149 0.779394 0.225168
H36   H     H_    0.261198 0.399017 0.211853 0.185193
H37   H     H_    0.696874 0.003132 0.494712 0.168850
H38   H     H_    0.303708 0.997230 0.504478 0.169144
O19   O     O_3   0.035725 0.364263 0.446895 -0.501600
C45   C     C_3   0.950113 0.220069 0.447043 0.213076
H39   H     H_    0.835707 0.224531 0.421520 0.152627
H40   H     H_    0.913449 0.188398 0.491536 0.134134
C46   C     C_3   0.066346 0.095008 0.421252 -0.878483
H41   H     H_    0.201564 0.135426 0.418292 0.301572
H42   H     H_    0.053644 0.991324 0.447083 0.201456
H43   H     H_    0.028716 0.057522 0.378146 0.235789
O20   O     O_3   0.965619 0.640851 0.551600 -0.533585
C47   C     C_3   0.061378 0.779764 0.551664 0.213940
H44   H     H_    0.097648 0.809236 0.507040 0.149215
H45   H     H_    0.174515 0.768776 0.577419 0.181289
C48   C     C_3   0.958128 0.912485 0.577350 -0.972631
H46   H     H_    0.985374 0.929992 0.622750 0.239726
H47   H     H_    0.997208 0.021143 0.556414 0.221495
H48   H     H_    0.819827 0.890096 0.573333 0.298158

loop_
_geom_bond_atom_site_label_1
_geom_bond_atom_site_label_2
_ccdc_geom_bond_type
O8    Zn1   S    
C22   O12   S    
O17   C41   S    
O3    Zn2   S    
O18   C43   S    
O13   C33   S    
C14   N1    S    
C47   H44   S    
C4    O14   S    
C23   C29   A    
C24   C26   A    
C12   H36   S    
C18   O6    A    
C21   N1    A    
C15   C16   D    
C43   C44   S    
O1    Zn1   S    
C45   H39   S    
C32   H4    S    
C3    O13   S    
C46   H41   S    
C45   H40   S    
C7    C17   S    
C43   H31   S    
O19   C45   S    
C1    C15   S    
C33   H6    S    
C2    C16   S    
C3    C13   A    
C1    O1    A    
C20   N2    A    
C34   H7    S    
C39   C40   S    
O5    Zn1   S    
C17   O5    A    
C48   H47   S    
C22   N2    A    
C34   H8    S    
C36   H12   S    
C35   C36   S    
C4    C6    A    
C19   N1    A    
C42   H27   S    
C5    C7    A    
C39   H20   S    
C6    C8    A    
C20   C28   A    
C25   C26   A    
C8    C18   S    
O16   C39   S    
C36   H13   S    
N3    N4    D    
C35   H11   S    
C38   H17   S    
C17   O7    A    
C18   O8    A    
C42   H28   S    
C38   H18   S    
C2    O2    A    
C40   H22   S    
C41   C42   S    
C29   C31   A    
C43   H30   S    
C44   H34   S    
N3    Zn2   S    
C46   H42   S    
C45   C46   S    
C31   H3    S    
C9    C11   A    
O4    Zn1   S    
C10   C12   A    
O6    Zn2   S    
C37   H16   S    
C40   H23   S    
C12   C14   A    
C21   C23   A    
C22   C24   A    
C33   H5    S    
C19   C27   A    
C29   H1    S    
C48   H48   S    
C7    C9    A    
C30   H2    S    
C47   C48   S    
C34   H9    S    
C44   H33   S    
C27   C32   A    
C28   C31   A    
C41   H26   S    
C37   H15   S    
C3    C5    A    
C48   H46   S    
C19   O9    S    
O7    Zn2   S    
O2    Zn2   S    
C16   H38   S    
C25   C27   A    
C26   C28   A    
C33   C34   S    
C36   H14   S    
C35   H10   S    
C15   H37   S    
C13   N2    S    
C5    O15   S    
C44   H32   S    
C9    O17   S    
C42   H29   S    
C30   C32   A    
C11   C13   A    
C37   C38   S    
C6    O16   S    
C10   O18   S    
C39   H21   S    
C47   H45   S    
C46   H43   S    
C23   C25   A    
C4    C14   A    
C38   H19   S    
C24   C30   A    
N3    O19   S    
C1    O3    A    
O14   C35   S    
C2    O4    A    
O15   C37   S    
C40   H24   S    
C41   H25   S    
C8    C10   A    
C11   H35   S    
N4    O20   S    
C20   O10   S    
N4    Zn1   S    
O20   C47   S    
C21   O11   S    
