data_mof_unit_30978.cif
_audit_creation_date              2012-10-26T19:23:47-0400
_audit_creation_method            fapswitch 2.2
_symmetry_space_group_name_H-M    P1
_symmetry_Int_Tables_number       1
_space_group_crystal_system       triclinic
_cell_length_a                    27.842832
_cell_length_b                    12.96135
_cell_length_c                    11.736364
_cell_angle_alpha                 101.200581
_cell_angle_beta                  94.23928
_cell_angle_gamma                 91.656958
_cell_volume                      4139.33263999

loop_
_atom_site_label
_atom_site_type_symbol
_atom_type_description
_atom_site_fract_x
_atom_site_fract_y
_atom_site_fract_z
_atom_type_partial_charge
C1    C     C_R   0.500279 0.299015 0.477327 0.544752
C2    C     C_R   0.870276 0.400201 0.477910 0.017832
C3    C     C_R   0.354553 0.500278 0.500276 -0.011680
C4    C     C_R   0.645424 0.499437 0.500490 -0.011914
C5    C     C_R   0.972819 0.402619 0.483538 0.001692
C6    C     C_R   0.027394 0.595165 0.525673 0.001799
C7    C     C_R   0.976657 0.594476 0.535645 0.002990
C8    C     C_R   0.024164 0.403247 0.493057 0.003162
C9    C     C_R   0.949155 0.498132 0.509480 0.026762
C10   C     C_R   0.051326 0.499528 0.508793 0.026871
C11   C     C_R   0.944716 0.308536 0.447248 -0.124673
C12   C     C_R   0.500235 0.701081 0.522578 0.549568
C13   C     C_R   0.054675 0.689391 0.532019 -0.124534
C14   C     C_R   0.894434 0.303801 0.448924 -0.003141
C15   C     C_R   0.105116 0.693657 0.536213 -0.002160
C16   C     C_R   0.407458 0.500033 0.499914 0.544852
C17   C     C_R   0.592530 0.499964 0.500154 0.541175
C18   C     C_R   0.049049 0.310039 0.490495 -0.125440
C19   C     C_R   0.952927 0.687602 0.574418 -0.126312
C20   C     C_R   0.502390 0.815448 0.536683 0.002681
C21   C     C_R   0.502099 0.184875 0.462437 -0.002092
C22   C     C_R   0.477079 0.012599 0.351151 -0.004818
C23   C     C_R   0.102463 0.500037 0.507286 -0.050377
C24   C     C_R   0.535586 0.984875 0.643253 0.000667
C25   C     C_R   0.477619 0.121580 0.364906 -0.139953
C26   C     C_R   0.530246 0.875744 0.630700 -0.145596
C27   C     C_R   0.529553 0.139118 0.543507 -0.015642
C28   C     C_R   0.477210 0.864041 0.455391 -0.018722
C29   C     C_R   0.519510 0.031805 0.547023 0.045934
C30   C     C_R   0.491010 0.968580 0.449985 0.041231
C31   C     C_R   0.453338 0.403577 0.016234 -0.161312
C32   C     C_R   0.546320 0.597243 0.983895 -0.160354
C33   C     C_R   0.457581 0.410630 0.138048 0.154940
C34   C     C_R   0.897951 0.497396 0.509138 -0.050574
C35   C     C_R   0.542346 0.589540 0.861989 0.156882
C36   C     C_R   0.520256 0.542360 0.159091 0.030549
C37   C     C_R   0.479620 0.457926 0.840958 0.031779
C38   C     C_R   0.516760 0.535382 0.036138 -0.014291
C39   C     C_R   0.482993 0.465203 0.963951 -0.012754
C40   C     C_R   0.177234 0.406667 0.492800 0.387684
C41   C     C_R   0.823654 0.590809 0.537267 0.387299
C42   C     C_R   0.180009 0.593097 0.510211 0.379554
C43   C     C_R   0.819305 0.404093 0.475355 0.378526
C44   C     C_R   0.282518 0.509146 0.607425 0.044328
C45   C     C_R   0.126506 0.403413 0.495532 0.033192
C46   C     C_R   0.718294 0.502918 0.397794 0.049109
C47   C     C_R   0.332764 0.508905 0.605820 -0.125700
C48   C     C_R   0.667958 0.503305 0.398009 -0.124765
C49   C     C_R   0.325443 0.491966 0.395700 -0.160900
C50   C     C_R   0.673789 0.494979 0.603258 -0.162810
C51   C     C_R   0.275420 0.491891 0.396580 -0.066991
C52   C     C_R   0.723786 0.494128 0.603579 -0.072829
C53   C     C_R   0.253793 0.500347 0.501730 0.273152
C54   C     C_R   0.746223 0.498010 0.501599 0.273978
C55   C     C_3   0.465120 0.947422 0.229029 -0.258914
C56   C     C_R   0.874557 0.594005 0.540731 0.033060
C57   C     C_3   0.498166 0.978522 0.140716 -0.302587
C58   C     C_3   0.490325 0.902805 0.023041 -0.454598
C59   C     C_3   0.553830 0.045197 0.764241 -0.246396
C60   C     C_3   0.514342 0.111252 0.823404 -0.297733
C61   C     C_3   0.533663 0.176117 0.941556 -0.453896
C62   C     C_3   0.576938 0.662519 0.819632 -0.340573
C63   C     C_3   0.423413 0.336653 0.180253 -0.341985
C64   C     C_3   0.121118 0.201913 0.484145 -0.358617
C65   C     C_3   0.882050 0.795736 0.617112 -0.354784
C66   C     C_3   0.741972 0.508313 0.287812 -0.378279
C67   C     C_R   0.099067 0.307992 0.489855 0.001007
C68   C     C_3   0.259763 0.518864 0.721208 -0.381305
C69   C     C_3   0.867188 0.196064 0.421955 -0.220827
C70   C     C_3   0.897601 0.097538 0.406303 -0.336964
C71   C     C_3   0.865830 0.997172 0.392814 -0.449084
C72   C     C_3   0.132525 0.801033 0.564258 -0.220481
C73   C     C_3   0.103191 0.897976 0.607212 -0.335945
C74   C     C_3   0.136224 0.995885 0.651120 -0.453572
C75   C     C_3   0.430073 0.811348 0.395168 -0.387787
C76   C     C_3   0.574364 0.199786 0.606145 -0.373952
C77   C     C_R   0.902944 0.689536 0.576087 -0.000174
C78   C     C_R   0.129492 0.597082 0.518363 0.017735
Cu1   Cu    Cu3+1 0.503580 0.507730 0.615930 0.916861
Cu2   Cu    Cu3+1 0.496420 0.492270 0.384070 0.917255
H1    H     H_    0.341267 0.485455 0.313197 0.127099
H2    H     H_    0.745288 0.490509 0.683338 0.117072
H3    H     H_    0.646405 0.507159 0.318323 0.124918
H4    H     H_    0.354842 0.515522 0.687115 0.127750
H5    H     H_    0.961959 0.237716 0.412663 0.105112
H6    H     H_    0.036601 0.760995 0.530015 0.104147
H7    H     H_    0.030077 0.236995 0.493280 0.101409
H8    H     H_    0.973053 0.760735 0.608447 0.101867
H9    H     H_    0.497840 0.821105 0.032782 0.157750
H10   H     H_    0.452648 0.905071 0.985533 0.157497
H11   H     H_    0.515176 0.925986 0.961882 0.140875
H12   H     H_    0.657377 0.491710 0.683389 0.128111
H13   H     H_    0.490861 0.059300 0.127335 0.158643
H14   H     H_    0.536501 0.977202 0.174348 0.170913
H15   H     H_    0.470538 0.863044 0.227264 0.157974
H16   H     H_    0.426876 0.957329 0.200302 0.137389
H17   H     H_    0.550709 0.124816 0.997094 0.151900
H18   H     H_    0.560641 0.237206 0.929756 0.158334
H19   H     H_    0.503562 0.215449 0.986768 0.149845
H20   H     H_    0.499701 0.165438 0.768280 0.174167
H21   H     H_    0.484110 0.057881 0.836340 0.162808
H22   H     H_    0.564840 0.989473 0.821438 0.125332
H23   H     H_    0.546187 0.837503 0.697608 0.109162
H24   H     H_    0.587324 0.092501 0.763724 0.139979
H25   H     H_    0.573591 0.662186 0.726635 0.193513
H26   H     H_    0.571882 0.744807 0.864328 0.080649
H27   H     H_    0.614480 0.642283 0.842250 0.097067
H28   H     H_    0.426479 0.337502 0.273387 0.193777
H29   H     H_    0.385731 0.355292 0.156649 0.095282
H30   H     H_    0.429198 0.254543 0.136165 0.079121
H31   H     H_    0.093732 0.137581 0.482963 0.093380
H32   H     H_    0.139674 0.180382 0.402892 0.179731
H33   H     H_    0.146573 0.203998 0.562014 0.169430
H34   H     H_    0.460873 0.156966 0.296496 0.116715
H35   H     H_    0.910241 0.860173 0.642951 0.092812
H36   H     H_    0.858360 0.816993 0.545712 0.172105
H37   H     H_    0.861851 0.794139 0.694887 0.175609
H38   H     H_    0.715034 0.512965 0.214503 0.107243
H39   H     H_    0.766723 0.579175 0.302409 0.150461
H40   H     H_    0.762855 0.436994 0.262164 0.159262
H41   H     H_    0.287294 0.525604 0.796064 0.110154
H42   H     H_    0.238087 0.590132 0.735435 0.148141
H43   H     H_    0.235917 0.448342 0.719444 0.153884
H44   H     H_    0.846081 0.998184 0.471846 0.158626
H45   H     H_    0.453503 0.403104 0.786014 0.116861
H46   H     H_    0.839485 0.989593 0.315497 0.163351
H47   H     H_    0.888667 0.927634 0.380926 0.145439
H48   H     H_    0.917458 0.092128 0.326731 0.159005
H49   H     H_    0.923740 0.101801 0.483626 0.159758
H50   H     H_    0.845124 0.191475 0.496132 0.195751
H51   H     H_    0.843262 0.190702 0.340705 0.190865
H52   H     H_    0.160480 0.985197 0.727053 0.160379
H53   H     H_    0.158343 0.011591 0.580862 0.163703
H54   H     H_    0.114124 0.064880 0.678904 0.143267
H55   H     H_    0.078279 0.913562 0.534590 0.153342
H56   H     H_    0.546396 0.597119 0.214041 0.117135
H57   H     H_    0.081999 0.884138 0.679938 0.164815
H58   H     H_    0.160792 0.798525 0.635612 0.191647
H59   H     H_    0.149723 0.814003 0.485401 0.192973
H60   H     H_    0.409972 0.776458 0.457880 0.139659
H61   H     H_    0.405893 0.868613 0.364527 0.126161
H62   H     H_    0.436581 0.747470 0.320846 0.151508
H63   H     H_    0.586747 0.261054 0.559285 0.144181
H64   H     H_    0.567503 0.240078 0.695370 0.145708
H65   H     H_    0.604969 0.146856 0.606488 0.121438
H66   H     H_    0.426941 0.348517 0.962072 0.088885
H67   H     H_    0.572689 0.652374 0.038059 0.088388
H68   H     H_    0.253306 0.485254 0.315404 0.120652
N1    N     N_R   0.202182 0.499945 0.500809 -0.391176
N2    N     N_R   0.797881 0.497623 0.504620 -0.391499
N3    N     N_R   0.508960 0.519350 0.790140 -0.216041
N4    N     N_R   0.491040 0.480650 0.209860 -0.216106
O1    O     O_R   0.502540 0.354460 0.582000 -0.500365
O2    O     O_2   0.799366 0.679470 0.565088 -0.526455
O3    O     O_2   0.790613 0.316230 0.442577 -0.538518
O4    O     O_2   0.207339 0.680469 0.509607 -0.534592
O5    O     O_R   0.497460 0.645540 0.418000 -0.501017
O6    O     O_R   0.496500 0.341410 0.386200 -0.516361
O7    O     O_R   0.503500 0.658590 0.613800 -0.514717
O8    O     O_R   0.433290 0.506540 0.597890 -0.502596
O9    O     O_R   0.566710 0.493460 0.402110 -0.501823
O10   O     O_R   0.427240 0.493490 0.402090 -0.515999
O11   O     O_R   0.572760 0.506510 0.597910 -0.518808
O12   O     O_2   0.202109 0.318088 0.481878 -0.525888

loop_
_geom_bond_atom_site_label_1
_geom_bond_atom_site_label_2
_ccdc_geom_bond_type
C34   C56   A    
C23   C45   A    
C74   H52   S    
C16   O8    A    
C73   C74   S    
C61   H18   S    
C3    C49   A    
C54   N2    S    
C32   H67   S    
C1    C21   S    
C15   C72   S    
C73   H57   S    
C59   H24   S    
C1    O6    A    
C24   C26   A    
C46   C66   S    
C75   H60   S    
Cu1   O7    S    
C38   C39   A    
C11   C14   A    
C64   H32   S    
C15   C78   A    
C27   C29   A    
C74   H53   S    
Cu2   N4    S    
C49   H1    S    
C19   C77   A    
C42   N1    A    
C24   C29   A    
C75   H61   S    
C31   H66   S    
C44   C53   A    
C72   H59   S    
C73   H55   S    
C69   H50   S    
C49   C51   A    
C22   C25   A    
C13   H6    S    
C45   C67   A    
C50   C52   A    
C31   C33   A    
C71   H46   S    
C70   C71   S    
C32   C38   A    
C12   O5    A    
C3    C47   A    
C17   O11   A    
C58   H11   S    
C46   C54   A    
C44   C47   A    
C69   H51   S    
C2    C34   A    
C72   H58   S    
C21   C27   A    
Cu2   O5    S    
C59   C60   S    
C23   C78   A    
C66   H40   S    
C53   N1    S    
C65   H35   S    
C71   H47   S    
C61   H19   S    
C35   N3    A    
C37   N3    A    
C43   O3    S    
C36   H56   S    
C68   H43   S    
C52   C54   A    
C37   H45   S    
C40   C45   A    
C46   C48   A    
C65   C77   S    
C32   C35   A    
C71   H44   S    
C55   H15   S    
C19   H8    S    
C68   H42   S    
Cu1   O8    S    
C62   H25   S    
C36   N4    A    
C64   H31   S    
C62   H27   S    
C20   C28   A    
C16   O10   A    
C18   C67   A    
C70   H49   S    
C8    C18   A    
C56   C77   A    
C1    O1    A    
C4    C50   A    
C60   C61   S    
C51   C53   A    
C63   H29   S    
C42   O4    S    
C64   C67   S    
C41   C56   A    
C5    C9    A    
C29   C30   A    
C75   H62   S    
C26   H23   S    
Cu1   O1    S    
Cu2   O6    S    
C13   C15   A    
C2    C43   A    
C33   C63   S    
C12   C20   S    
C47   H4    S    
C52   H2    S    
C58   H10   S    
Cu2   O10   S    
C6    C7    A    
C43   N2    A    
C17   O9    A    
C62   H26   S    
C4    C17   S    
C76   H64   S    
C50   H12   S    
C76   H65   S    
C42   C78   A    
C7    C19   A    
C66   H39   S    
C55   C57   S    
C9    C34   A    
C65   H36   S    
C44   C68   S    
C60   H21   S    
Cu1   N3    S    
C41   O2    S    
C4    C48   A    
C70   H48   S    
C7    C9    A    
C21   C25   A    
C55   H16   S    
C64   H33   S    
C22   C30   A    
C59   H22   S    
C40   O12   S    
C61   H17   S    
Cu1   O11   S    
C72   C73   S    
C60   H20   S    
C33   N4    A    
C68   H41   S    
C6    C10   A    
C5    C8    A    
C5    C11   A    
C22   C55   S    
C41   N2    A    
C10   C23   A    
C18   H7    S    
C48   H3    S    
C57   H14   S    
C63   H30   S    
C36   C38   A    
C37   C39   A    
C25   H34   S    
C6    C13   A    
C57   C58   S    
C20   C26   A    
C51   H68   S    
C11   H5    S    
C24   C59   S    
C74   H54   S    
C28   C30   A    
C14   C69   S    
C31   C39   A    
C40   N1    A    
C35   C62   S    
C12   O7    A    
C69   C70   S    
C2    C14   A    
C58   H9    S    
Cu2   O9    S    
Cu1   Cu2   S    
C76   H63   S    
C8    C10   A    
C66   H38   S    
C65   H37   S    
C57   H13   S    
C63   H28   S    
C28   C75   S    
C3    C16   S    
C27   C76   S    
