data_mof_unit_8960.cif
_audit_creation_date              2013-03-05T15:39:57-0500
_audit_creation_method            fapswitch 2.2
_symmetry_space_group_name_H-M    P1
_symmetry_Int_Tables_number       1
_space_group_crystal_system       triclinic
_cell_length_a                    10.832287
_cell_length_b                    8.683241
_cell_length_c                    7.521135
_cell_angle_alpha                 102.879276
_cell_angle_beta                  96.605182
_cell_angle_gamma                 93.045759
_cell_volume                      682.787587615

loop_
_atom_site_label
_atom_site_type_symbol
_atom_site_description
_atom_site_fract_x
_atom_site_fract_y
_atom_site_fract_z
_atom_type_partial_charge
O1    O     O_R   0.508930 0.286130 0.619780 -0.603339
O2    O     O_R   0.485720 0.256780 0.308360 -0.566685
C1    C     C_R   0.494178 0.199839 0.453395 0.863885
O3    O     O_R   0.333540 0.514670 0.655670 -0.592322
O4    O     O_R   0.310330 0.485320 0.344250 -0.586228
C2    C     C_R   0.265333 0.501236 0.497980 0.810695
Cu1   Cu    Cu3+1 0.513740 0.517380 0.684380 1.101444
Cu2   Cu    Cu3+1 0.486260 0.482620 0.315620 1.073725
O5    O     O_R   0.514280 0.743220 0.691640 -0.559052
O6    O     O_R   0.491070 0.713870 0.380220 -0.560554
O7    O     O_R   0.689670 0.514680 0.655750 -0.511456
O8    O     O_R   0.666460 0.485330 0.344330 -0.531189
C3    C     C_R   0.503770 0.800166 0.546734 0.876587
C4    C     C_R   0.734256 0.487345 0.500687 0.818427
C5    C     C_2   0.919179 0.390763 0.359319 0.259330
C6    C     C_2   0.865667 0.453710 0.510774 0.040525
C7    C     C_2   0.056334 0.395256 0.368159 -0.138226
C8    C     C_2   0.132552 0.506560 0.490063 -0.251740
H1    H     H_    0.095474 0.305006 0.270598 0.186718
H2    H     H_    0.098763 0.603599 0.584302 0.179943
C9    C     C_2   0.487200 0.031714 0.427946 -0.283880
H3    H     H_    0.464746 0.959815 0.288778 0.212842
C10   C     C_2   0.507151 0.968395 0.572909 -0.320641
H4    H     H_    0.527447 0.040558 0.712578 0.203481
N1    N     N_2   0.465540 0.456420 0.038510 -0.193338
H5    H     H_    0.398559 0.380136 0.948524 0.205331
N2    N     N_2   0.534460 0.543580 0.961490 0.020602
N3    N     N_R   0.845497 0.307758 0.189966 0.150015
O9    O     O_R   0.887419 0.305004 0.034252 -0.240090
O10   O     O_R   0.752641 0.207360 0.193302 -0.322536
N4    N     N_R   0.933004 0.471531 0.692436 0.127405
O11   O     O_R   0.927839 0.599250 0.819598 -0.273754
O12   O     O_R   0.997358 0.358318 0.731826 -0.302240
N5    N     N_R   0.629956 0.644342 0.073295 0.292580
O13   O     O_R   0.616613 0.795532 0.111023 -0.333552
O14   O     O_R   0.742836 0.600421 0.073968 -0.252715

loop_
_geom_bond_atom_site_label_1
_geom_bond_atom_site_label_2
_geom_bond_distance
_ccdc_geom_bond_type
O4    Cu2   1.943091 S    
C10   H4    1.087774 S    
N4    O12   1.302022 A    
N1    N2    1.304070 D    
N5    O14   1.299835 A    
N4    O11   1.301466 A    
Cu2   O8    1.937340 S    
N3    O10   1.301816 A    
C7    C8    1.342527 D    
Cu1   Cu2   2.701724 S    
C9    H3    1.085586 S    
C6    N4    1.444736 S    
Cu1   O7    1.943091 S    
Cu2   N1    2.030156 S    
C5    N3    1.440357 S    
O3    Cu1   1.937339 S    
Cu2   O6    1.954219 S    
N3    O9    1.299768 A    
C7    H1    1.087582 S    
O8    C4    1.308947 A    
O2    C1    1.290359 A    
C8    H2    1.082845 S    
C9    C10   1.327921 D    
N2    N5    1.385073 S    
O4    C2    1.288067 A    
C2    C8    1.436326 S    
O7    C4    1.291548 A    
C4    C6    1.465113 S    
C1    C9    1.426164 S    
C5    C6    1.356598 D    
Cu1   O5    1.949256 S    
Cu1   N2    2.030156 S    
C3    C10   1.427733 S    
O3    C2    1.301413 A    
N5    O13   1.299403 A    
C5    C7    1.477565 S    
O5    C3    1.289548 A    
N1    H5    1.029255 S    
O1    Cu1   1.954219 S    
O2    Cu2   1.949257 S    
O1    C1    1.294699 A    
O6    C3    1.296117 A    
