data_mof_unit_36627.cif
_audit_creation_date              2012-12-10T20:31:01-0500
_audit_creation_method            fapswitch 2.2
_symmetry_space_group_name_H-M    P1
_symmetry_Int_Tables_number       1
_space_group_crystal_system       triclinic
_cell_length_a                    14.994575
_cell_length_b                    10.674651
_cell_length_c                    9.851122
_cell_angle_alpha                 89.993156
_cell_angle_beta                  89.874709
_cell_angle_gamma                 90.03275
_cell_volume                      1576.78482229

loop_
_atom_site_label
_atom_site_type_symbol
_atom_type_description
_atom_site_fract_x
_atom_site_fract_y
_atom_site_fract_z
_atom_type_partial_charge
C1    C     C_R   0.502687 0.259908 0.500048 0.882868
C2    C     C_R   0.907185 0.551549 0.381766 0.028174
C3    C     C_R   0.953027 0.437634 0.734777 -0.189678
C4    C     C_R   0.045468 0.435845 0.734721 -0.180355
C5    C     C_R   0.092201 0.471379 0.617974 0.112195
C6    C     C_R   0.046327 0.510794 0.500365 0.066259
C7    C     C_R   0.093509 0.545967 0.382725 0.093115
C8    C     C_R   0.048297 0.586016 0.266836 -0.267465
C9    C     C_R   0.955274 0.591871 0.265255 -0.027189
C10   C     C_R   0.184349 0.467314 0.616546 -0.259223
C11   C     C_R   0.230806 0.502654 0.499834 -0.072957
C12   C     C_R   0.326623 0.500121 0.500039 0.893105
C13   C     C_R   0.185820 0.541765 0.383259 -0.242330
C14   C     C_R   0.515457 0.063838 0.623390 0.145485
C15   C     C_R   0.516892 0.128550 0.500737 -0.108798
C16   C     C_R   0.535525 0.064813 0.379440 -0.218711
C17   C     C_R   0.535727 0.935251 0.379448 -0.210206
C18   C     C_R   0.517233 0.871403 0.500739 -0.107020
C19   C     C_R   0.515694 0.936076 0.623410 0.133048
C20   C     C_3   0.450904 0.928640 0.738748 -0.472746
C21   C     C_3   0.450505 0.070646 0.738540 -0.492358
C22   C     C_R   0.457494 0.406981 0.071558 0.214881
C23   C     C_R   0.502875 0.740067 0.499994 0.885471
C24   C     C_R   0.548788 0.584893 0.071852 -0.124553
C25   C     C_R   0.548798 0.584897 0.927756 -0.128867
C26   C     C_R   0.457167 0.407327 0.928859 0.219940
C27   C     C_3   0.359875 0.378896 0.924596 -0.528678
C28   C     C_3   0.360611 0.376793 0.078510 -0.496843
C29   C     C_R   0.673384 0.500895 0.499860 0.891949
C30   C     C_R   0.814419 0.543597 0.382726 -0.215497
C31   C     C_R   0.769208 0.505650 0.499874 -0.081387
C32   C     C_R   0.815042 0.473437 0.617616 -0.247636
C33   C     C_R   0.907034 0.475244 0.618251 0.110913
C34   C     C_R   0.953499 0.513296 0.500149 0.053793
H1    H     H_    0.776381 0.565043 0.292718 0.193947
H2    H     H_    0.544050 0.886204 0.283979 0.170730
H3    H     H_    0.385880 0.886841 0.708829 0.207211
H4    H     H_    0.481500 0.887865 0.831469 0.204691
H5    H     H_    0.385294 0.111439 0.708140 0.199192
H6    H     H_    0.480689 0.112029 0.831269 0.206018
H7    H     H_    0.586769 0.654905 0.126184 0.156899
H8    H     H_    0.586767 0.654926 0.873166 0.154231
H9    H     H_    0.320433 0.458051 0.883024 0.217586
H10   H     H_    0.345692 0.285975 0.878705 0.198249
H11   H     H_    0.320441 0.453293 0.124535 0.218010
H12   H     H_    0.779171 0.443808 0.707871 0.163556
H13   H     H_    0.348327 0.282148 0.121763 0.203290
H14   H     H_    0.917459 0.408597 0.825392 0.171483
H15   H     H_    0.080362 0.405928 0.825360 0.159847
H16   H     H_    0.219716 0.435203 0.705620 0.150805
H17   H     H_    0.222609 0.570364 0.293541 0.153172
H18   H     H_    0.085916 0.615380 0.178136 0.179935
H19   H     H_    0.543713 0.113908 0.283954 0.172572
N1    N     N_R   0.499390 0.499140 0.142800 -0.111774
N2    N     N_R   0.499390 0.499180 0.857150 -0.109862
O1    O     O_R   0.500010 0.316790 0.614690 -0.617244
O2    O     O_R   0.500000 0.316760 0.385350 -0.623101
O3    O     O_R   0.367850 0.499990 0.614680 -0.623987
O4    O     O_R   0.367840 0.499950 0.385340 -0.625648
O5    O     O_R   0.500000 0.683240 0.614650 -0.620326
O6    O     O_R   0.499990 0.683210 0.385310 -0.626790
O7    O     O_R   0.632160 0.500050 0.614660 -0.624452
O8    O     O_R   0.632150 0.500010 0.385320 -0.624765
Zn1   Zn    Zn3+2 0.500010 0.500020 0.653130 0.947588
Zn2   Zn    Zn3+2 0.499990 0.499980 0.346870 0.948239
C35   C     C_2   0.912416 0.643308 0.141298 0.891804
O9    O     O_2   0.848677 0.714246 0.150344 -0.645492
O10   O     O_R   0.948427 0.615629 0.013731 -0.821191
H20   H     H_    0.914653 0.657387 0.937014 0.346879

loop_
_geom_bond_atom_site_label_1
_geom_bond_atom_site_label_2
_ccdc_geom_bond_type
C25   H8    S    
C2    C9    A    
C7    C13   A    
C35   O10   S    
C11   C12   S    
O1    Zn1   S    
C28   H13   S    
C6    C7    A    
C1    C15   S    
C17   H2    S    
C1    O2    A    
C20   H4    S    
C8    H18   S    
C19   C20   S    
C21   H5    S    
O5    Zn1   S    
C4    H15   S    
C2    C30   A    
C12   O3    A    
C32   C33   A    
C2    C34   A    
O8    Zn2   S    
C35   O9    D    
C24   C25   A    
C5    C10   A    
C22   N1    A    
N1    Zn2   S    
C22   C28   S    
C4    C5    A    
O4    Zn2   S    
C29   C31   S    
C20   H3    S    
C11   C13   A    
C30   C31   A    
C26   C27   S    
C5    C6    A    
C21   H6    S    
C24   H7    S    
C30   H1    S    
O6    Zn2   S    
C15   C16   A    
C14   C19   A    
C14   C21   S    
C29   O8    A    
C26   N2    A    
C33   C34   A    
C9    C35   S    
N2    Zn1   S    
O3    Zn1   S    
C23   O5    A    
O10   H20   S    
C28   H11   S    
C7    C8    A    
C10   C11   A    
C3    C33   A    
C24   N1    A    
C18   C23   S    
C10   H16   S    
C27   H9    S    
C3    H14   S    
C23   O6    A    
C20   C21   S    
C6    C34   A    
C17   C18   A    
C18   C19   A    
C22   C26   A    
C27   C28   S    
C29   O7    A    
C16   C17   A    
O7    Zn1   S    
C14   C15   A    
C13   H17   S    
C12   O4    A    
C32   H12   S    
C27   H10   S    
C1    O1    A    
C31   C32   A    
C3    C4    A    
C25   N2    A    
O2    Zn2   S    
C8    C9    A    
C16   H19   S    
