data_mof_unit_53682.cif
_audit_creation_date              2012-10-26T20:48:45-0400
_audit_creation_method            fapswitch 2.2
_symmetry_space_group_name_H-M    P1
_symmetry_Int_Tables_number       1
_space_group_crystal_system       triclinic
_cell_length_a                    15.11074
_cell_length_b                    13.871165
_cell_length_c                    9.074896
_cell_angle_alpha                 89.713208
_cell_angle_beta                  90.260382
_cell_angle_gamma                 89.856164
_cell_volume                      1902.08100574

loop_
_atom_site_label
_atom_site_type_symbol
_atom_type_description
_atom_site_fract_x
_atom_site_fract_y
_atom_site_fract_z
_atom_type_partial_charge
C1    C     C_R   0.329763 0.500113 0.495656 0.556626
C2    C     C_R   0.580188 0.892245 0.499880 0.215818
C3    C     C_R   0.499918 0.500139 0.220547 0.564644
C4    C     C_R   0.499968 0.499847 0.779453 0.564957
C5    C     C_R   0.500485 0.055346 0.494785 0.047024
C6    C     C_R   0.500198 0.945863 0.493603 0.046957
C7    C     C_1   0.499884 0.500173 0.065522 -0.050470
C8    C     C_1   0.499904 0.499769 0.934479 -0.051210
C9    C     C_R   0.095485 0.586917 0.446762 0.263774
C10   C     C_R   0.905218 0.413920 0.546331 0.262530
C11   C     C_R   0.904527 0.586793 0.544090 0.257440
C12   C     C_R   0.670271 0.499933 0.503485 0.559322
C13   C     C_R   0.095776 0.414175 0.446716 0.259215
C14   C     C_R   0.187180 0.587254 0.462601 -0.096856
C15   C     C_R   0.813337 0.413305 0.533422 -0.089408
C16   C     C_R   0.812732 0.586951 0.530816 -0.102653
C17   C     C_R   0.187500 0.413595 0.462166 -0.099762
C18   C     C_R   0.233221 0.500318 0.481290 -0.072856
C19   C     C_R   0.766950 0.499989 0.515056 -0.071572
C20   C     C_R   0.048157 0.500501 0.472792 0.074741
C21   C     C_R   0.952223 0.500409 0.518537 0.073384
C22   C     C_3   0.551578 0.023279 0.822874 0.014124
C23   C     C_R   0.548039 0.208517 0.601806 0.041798
C24   C     C_3   0.609002 0.952571 0.911208 -0.240658
C25   C     C_3   0.554815 0.894759 0.022306 -0.492605
C26   C     C_3   0.309451 0.971002 0.617443 0.016949
C27   C     C_3   0.272144 0.888754 0.712288 -0.283772
C28   C     C_3   0.234725 0.926654 0.856732 -0.443035
C29   C     C_3   0.398904 0.105344 0.141985 -0.010917
C30   C     C_3   0.306258 0.147973 0.117956 -0.248105
C31   C     C_3   0.299641 0.199643 0.969369 -0.464905
C32   C     C_3   0.698178 0.949617 0.367543 0.013041
C33   C     C_3   0.759920 0.864979 0.331645 -0.277888
C34   C     C_R   0.422385 0.791258 0.487788 0.035066
C35   C     C_3   0.815993 0.885726 0.195837 -0.422048
C36   C     C_R   0.451912 0.211417 0.396170 0.016296
C37   C     C_R   0.577656 0.790860 0.509299 0.022388
C38   C     C_R   0.547875 0.107139 0.604691 0.210050
C39   C     C_R   0.419876 0.892772 0.490788 0.230825
C40   C     C_R   0.452944 0.109073 0.386597 0.223932
Cl1   Cl    Cl    0.049081 0.684667 0.347362 -0.527460
Cl2   Cl    Cl    0.952830 0.315976 0.643588 -0.496609
Cl3   Cl    Cl    0.950906 0.685102 0.640064 -0.525493
Cl4   Cl    Cl    0.049428 0.316757 0.348654 -0.512469
Cu1   Cu    Cu3+1 0.500000 0.596430 0.500000 0.946651
Cu2   Cu    Cu3+1 0.500000 0.403570 0.500000 0.945652
H1    H     H_    0.586883 0.247411 0.682287 0.154856
H2    H     H_    0.529983 0.083029 0.895632 0.110055
H3    H     H_    0.641287 0.901252 0.834434 0.213363
H4    H     H_    0.661526 0.993155 0.970133 0.168262
H5    H     H_    0.526240 0.943111 0.106612 0.167118
H6    H     H_    0.598235 0.841341 0.078792 0.154180
H7    H     H_    0.500654 0.855257 0.965785 0.161529
H8    H     H_    0.255624 0.024149 0.596881 0.188099
H9    H     H_    0.361780 0.010844 0.677637 0.086930
H10   H     H_    0.218945 0.851202 0.650215 0.211899
H11   H     H_    0.325224 0.835831 0.738756 0.147665
H12   H     H_    0.360596 0.753081 0.478351 0.153375
H13   H     H_    0.288087 0.960553 0.922844 0.139658
H14   H     H_    0.206517 0.865979 0.921330 0.194666
H15   H     H_    0.181608 0.980450 0.835028 0.179955
H16   H     H_    0.408560 0.049411 0.056698 0.135128
H17   H     H_    0.451907 0.159636 0.122645 0.105208
H18   H     H_    0.256652 0.088983 0.121466 0.202452
H19   H     H_    0.289688 0.199522 0.206823 0.176529
H20   H     H_    0.346949 0.260777 0.965158 0.157150
H21   H     H_    0.231554 0.228302 0.953690 0.196091
H22   H     H_    0.314428 0.148972 0.878242 0.132114
H23   H     H_    0.413179 0.254410 0.320357 0.133744
H24   H     H_    0.737773 0.016978 0.369420 0.188873
H25   H     H_    0.647601 0.959879 0.279152 0.109379
H26   H     H_    0.804597 0.850727 0.427016 0.226597
H27   H     H_    0.720265 0.799174 0.310561 0.144455
H28   H     H_    0.772990 0.896856 0.097807 0.145985
H29   H     H_    0.860417 0.823459 0.174708 0.210978
H30   H     H_    0.857287 0.950838 0.213369 0.186206
H31   H     H_    0.639147 0.752393 0.523170 0.146441
H32   H     H_    0.222540 0.654576 0.449985 0.160201
H33   H     H_    0.778130 0.345978 0.547789 0.176413
H34   H     H_    0.777181 0.654284 0.543162 0.151742
H35   H     H_    0.223166 0.346314 0.449241 0.162807
H36   H     H_    0.492662 0.983451 0.782946 0.105651
N1    N     N_R   0.500000 0.258690 0.500000 -0.286952
N2    N     N_R   0.500000 0.741310 0.500000 -0.288344
O1    O     O_R   0.371460 0.581430 0.500010 -0.515855
O2    O     O_3   0.338073 0.937550 0.478508 -0.517663
O3    O     O_3   0.404378 0.058697 0.280935 -0.530006
O4    O     O_3   0.661233 0.938008 0.509396 -0.524957
O5    O     O_R   0.628540 0.418570 0.499990 -0.494694
O6    O     O_R   0.628540 0.581430 0.499990 -0.517751
O7    O     O_R   0.371460 0.418570 0.500010 -0.502993
O8    O     O_R   0.500000 0.581420 0.288390 -0.483137
O9    O     O_R   0.500000 0.418580 0.711610 -0.503526
O10   O     O_R   0.500000 0.581420 0.711610 -0.485184
O11   O     O_R   0.500000 0.418580 0.288390 -0.502521
O12   O     O_3   0.602302 0.060863 0.705820 -0.514628

loop_
_geom_bond_atom_site_label_1
_geom_bond_atom_site_label_2
_ccdc_geom_bond_type
C31   H20   S    
C22   H2    S    
C29   H17   S    
C35   H28   S    
C30   H18   S    
C10   Cl2   S    
C14   C18   A    
C4    C8    S    
C26   H9    S    
C7    C8    T    
Cu2   O5    S    
Cu1   Cu2   S    
C31   H21   S    
C35   H29   S    
C26   C27   S    
C23   N1    A    
C22   H36   S    
C40   O3    S    
C12   O6    A    
C25   H7    S    
C3    C7    S    
C10   C15   A    
C30   C31   S    
C36   N1    A    
C32   O4    S    
Cu1   O8    S    
C33   H26   S    
C15   C19   A    
C15   H33   S    
Cu2   O11   S    
C37   N2    A    
C2    O4    S    
C28   H15   S    
C1    O7    A    
C5    C38   A    
C1    O1    A    
C2    C6    A    
C34   N2    A    
Cu1   O10   S    
C26   H8    S    
C32   H25   S    
C28   H14   S    
C10   C21   A    
C24   H4    S    
C31   H22   S    
C35   H30   S    
C23   H1    S    
C34   C39   A    
C12   O5    A    
C36   C40   A    
C24   C25   S    
C27   H11   S    
C27   H10   S    
C32   H24   S    
Cu2   O7    S    
C37   H31   S    
C11   C21   A    
C4    O9    A    
C3    O8    A    
C16   H34   S    
Cu1   O1    S    
C9    C14   A    
C25   H5    S    
C29   C30   S    
C11   C16   A    
C9    C20   A    
C26   O2    S    
C17   C18   A    
C1    C18   S    
C11   Cl3   S    
Cu1   O6    S    
C4    O10   A    
C33   H27   S    
C22   C24   S    
Cu1   N2    S    
C36   H23   S    
C28   H13   S    
C24   H3    S    
C29   H16   S    
C13   C20   A    
C22   O12   S    
C23   C38   A    
C9    Cl1   S    
C13   C17   A    
C32   C33   S    
C25   H6    S    
C2    C37   A    
C5    C6    S    
Cu2   O9    S    
C16   C19   A    
C12   C19   S    
C33   C35   S    
C17   H35   S    
C14   H32   S    
C29   O3    S    
C30   H19   S    
Cu2   N1    S    
C20   C21   S    
C5    C40   A    
C38   O12   S    
C27   C28   S    
C34   H12   S    
C6    C39   A    
C3    O11   A    
C39   O2    S    
C13   Cl4   S    
