data_mof_unit_23453.cif
_audit_creation_date              2012-12-10T19:11:32-0500
_audit_creation_method            fapswitch 2.2
_symmetry_space_group_name_H-M    P1
_symmetry_Int_Tables_number       1
_space_group_crystal_system       triclinic
_cell_length_a                    10.876069
_cell_length_b                    9.700114
_cell_length_c                    10.686318
_cell_angle_alpha                 90.42069
_cell_angle_beta                  90.00179
_cell_angle_gamma                 90.341089
_cell_volume                      1127.34665991

loop_
_atom_site_label
_atom_site_type_symbol
_atom_type_description
_atom_site_fract_x
_atom_site_fract_y
_atom_site_fract_z
_atom_type_partial_charge
C1    C     C_R   0.256617 0.499572 0.501777 0.939962
C2    C     C_3   0.922603 0.526200 0.360084 0.242626
C3    C     C_3   0.382404 0.079763 0.451125 -0.251163
C4    C     C_3   0.384407 0.918196 0.446168 -0.212213
C5    C     C_3   0.599139 0.081395 0.416938 -0.219148
C6    C     C_3   0.601226 0.918939 0.419845 -0.221354
C7    C     C_3   0.519604 0.082205 0.624614 -0.239174
C8    C     C_3   0.515159 0.919970 0.625051 -0.253463
C9    C     C_R   0.500525 0.499541 0.256536 0.995326
C10   C     C_R   0.741903 0.500311 0.502315 0.924015
C11   C     C_R   0.509027 0.500297 0.741803 0.929334
C12   C     C_3   0.504486 0.498613 0.120921 -0.119398
C13   C     C_3   0.430764 0.595943 0.036267 0.136823
C14   C     C_3   0.471916 0.374687 0.036014 0.179048
C15   C     C_3   0.396962 0.471553 0.951538 0.132873
C16   C     C_3   0.513685 0.499752 0.875522 -0.146790
C17   C     C_3   0.547897 0.621936 0.959715 0.168738
C18   C     C_3   0.587685 0.402803 0.958148 0.150225
C19   C     C_3   0.622380 0.525311 0.044129 -0.212289
C20   C     C_3   0.345486 0.715141 0.067013 -0.774821
C21   C     C_3   0.433239 0.229852 0.074811 -0.811238
C22   C     C_3   0.598271 0.762155 0.921684 -0.863166
C23   C     C_3   0.063921 0.594805 0.607300 -0.028741
C24   C     C_3   0.678021 0.294637 0.912121 -0.836106
C25   C     C_3   0.126127 0.731317 0.647759 -0.843841
C26   C     C_3   0.093993 0.226123 0.442888 -0.802834
C27   C     C_3   0.065311 0.349896 0.530399 -0.051710
C28   C     C_3   0.926260 0.617074 0.584267 -0.458184
C29   C     C_3   0.925160 0.360428 0.548668 -0.433668
C30   C     C_3   0.068234 0.544595 0.364784 0.263134
C31   C     C_3   0.118545 0.498857 0.498288 -0.023391
C32   C     C_3   0.876582 0.500902 0.497547 -0.028929
H1    H     H_    0.362132 0.120777 0.356559 0.163316
H2    H     H_    0.437673 0.885005 0.685101 0.152928
H3    H     H_    0.689822 0.122097 0.448355 0.167438
H4    H     H_    0.691129 0.884831 0.457734 0.178969
H5    H     H_    0.717366 0.546952 0.073829 0.223427
H6    H     H_    0.068190 0.534712 0.694796 0.204899
H7    H     H_    0.105385 0.319769 0.622006 0.191074
H8    H     H_    0.876931 0.617052 0.675760 0.169016
H9    H     H_    0.903426 0.353449 0.650348 0.165936
H10   H     H_    0.910331 0.719456 0.541120 0.235094
H11   H     H_    0.877366 0.270392 0.505450 0.224157
H12   H     H_    0.372716 0.882932 0.347894 0.176763
H13   H     H_    0.335772 0.782431 0.984160 0.229865
H14   H     H_    0.252978 0.676150 0.089068 0.296566
H15   H     H_    0.383354 0.776905 0.145762 0.243997
H16   H     H_    0.409663 0.167865 0.990371 0.242847
H17   H     H_    0.510317 0.179358 0.123893 0.230015
H18   H     H_    0.352414 0.233891 0.137550 0.266209
H19   H     H_    0.628378 0.820048 0.006381 0.257463
H20   H     H_    0.677947 0.748519 0.857997 0.237110
H21   H     H_    0.525656 0.821772 0.874622 0.228820
H22   H     H_    0.724532 0.246696 0.993037 0.273169
H23   H     H_    0.308100 0.111613 0.515894 0.168473
H24   H     H_    0.627712 0.213322 0.859628 0.229361
H25   H     H_    0.747722 0.343305 0.850480 0.232576
H26   H     H_    0.222064 0.715707 0.679365 0.262227
H27   H     H_    0.120685 0.811506 0.575637 0.262342
H28   H     H_    0.076740 0.773463 0.730560 0.244139
H29   H     H_    0.090882 0.129115 0.497526 0.222126
H30   H     H_    0.026918 0.212409 0.366837 0.289270
H31   H     H_    0.183589 0.233626 0.397083 0.266026
H32   H     H_    0.305884 0.878534 0.500878 0.181570
H33   H     H_    0.587212 0.116789 0.319217 0.163849
H34   H     H_    0.594386 0.877798 0.322690 0.177532
H35   H     H_    0.610245 0.118076 0.660669 0.147273
H36   H     H_    0.601220 0.879879 0.667026 0.158611
H37   H     H_    0.448761 0.122893 0.690010 0.170499
I1    I     I_    0.225163 0.411063 0.871818 -0.425051
I2    I     I_    0.828341 0.698681 0.269910 -0.380859
I3    I     I_    0.850831 0.359923 0.240253 -0.392451
I4    I     I_    0.128900 0.753117 0.320796 -0.414124
I5    I     I_    0.160344 0.438896 0.213658 -0.347158
N1    N     N_3   0.499750 0.138610 0.497240 -0.047207
N2    N     N_3   0.499750 0.861390 0.497240 -0.052911
O1    O     O_R   0.314910 0.616040 0.499970 -0.602814
O2    O     O_R   0.314910 0.383960 0.499970 -0.626244
O3    O     O_R   0.500080 0.616020 0.313900 -0.612639
O4    O     O_R   0.500080 0.383980 0.313900 -0.615771
O5    O     O_R   0.685320 0.616040 0.499930 -0.622088
O6    O     O_R   0.685320 0.383960 0.499930 -0.634055
O7    O     O_R   0.500150 0.616060 0.686000 -0.634627
O8    O     O_R   0.500150 0.383940 0.686000 -0.623729
Zn1   Zn    Zn3+2 0.500150 0.654960 0.499940 0.934806
Zn2   Zn    Zn3+2 0.500150 0.345040 0.499940 0.931487

loop_
_geom_bond_atom_site_label_1
_geom_bond_atom_site_label_2
_ccdc_geom_bond_type
C27   C29   S    
C1    O1    A    
C14   C18   S    
C1    C31   S    
C21   H17   S    
C7    C8    S    
C26   C27   S    
C18   C24   S    
C14   C21   S    
C26   H29   S    
O8    Zn2   S    
C29   C32   S    
C30   C31   S    
C30   I5    S    
C3    H1    S    
C24   H22   S    
C15   C16   S    
C8    N2    S    
C2    C32   S    
C18   C19   S    
C9    O3    A    
O4    Zn2   S    
C19   H5    S    
C3    H23   S    
C27   H7    S    
C16   C17   S    
C25   H28   S    
C3    N1    S    
C20   H13   S    
C21   H16   S    
O2    Zn2   S    
O1    Zn1   S    
C29   H11   S    
C1    O2    A    
C2    I3    S    
C21   H18   S    
C22   H21   S    
C27   C31   S    
C28   C32   S    
C5    H33   S    
C30   I4    S    
C24   H25   S    
C7    N1    S    
C4    H12   S    
C11   O7    A    
O6    Zn2   S    
C10   O6    A    
C9    O4    A    
C23   C31   S    
C5    N1    S    
C26   H31   S    
C11   C16   S    
N1    Zn2   S    
C8    H2    S    
C23   C28   S    
O7    Zn1   S    
C12   C14   S    
C8    H36   S    
C13   C15   S    
C25   H26   S    
C2    I2    S    
O3    Zn1   S    
C22   H20   S    
C15   I1    S    
C13   C20   S    
C29   H9    S    
C7    H37   S    
C6    N2    S    
C11   O8    A    
C24   H24   S    
C23   H6    S    
C4    H32   S    
C10   O5    A    
C17   C22   S    
C13   C17   S    
C2    C30   S    
C26   H30   S    
C5    C6    S    
C5    H3    S    
C12   C19   S    
C28   H10   S    
C17   C19   S    
C6    H4    S    
C23   C25   S    
C9    C12   S    
C20   H14   S    
C4    N2    S    
C20   H15   S    
C7    H35   S    
C10   C32   S    
C6    H34   S    
C12   C13   S    
C16   C18   S    
C28   H8    S    
C14   C15   S    
C25   H27   S    
N2    Zn1   S    
O5    Zn1   S    
C3    C4    S    
C22   H19   S    
