data_mof_unit_21029.cif
_audit_creation_date              2012-12-10T17:15:16-0500
_audit_creation_method            fapswitch 2.2
_symmetry_space_group_name_H-M    P1
_symmetry_Int_Tables_number       1
_space_group_crystal_system       triclinic
_cell_length_a                    15.863341
_cell_length_b                    12.999402
_cell_length_c                    11.652854
_cell_angle_alpha                 99.871868
_cell_angle_beta                  93.064782
_cell_angle_gamma                 90.371536
_cell_volume                      2363.71635912

loop_
_atom_site_label
_atom_site_type_symbol
_atom_type_description
_atom_site_fract_x
_atom_site_fract_y
_atom_site_fract_z
_atom_type_partial_charge
C1    C     C_R   0.498784 0.299028 0.478620 0.805477
C2    C     C_R   0.501216 0.700971 0.521380 0.805475
C3    C     C_R   0.489858 0.014965 0.344139 -0.220061
C4    C     C_R   0.510142 0.985035 0.655861 -0.220061
C5    C     C_R   0.490672 0.123094 0.355189 -0.198464
C6    C     C_R   0.509328 0.876906 0.644810 -0.198464
C7    C     C_R   0.504424 0.139371 0.566311 -0.268165
C8    C     C_R   0.495576 0.860629 0.433688 -0.268165
C9    C     C_R   0.503671 0.031338 0.555980 0.176150
C10   C     C_R   0.496329 0.968662 0.444020 0.176150
C11   C     C_R   0.419851 0.402785 0.023022 -0.345943
C12   C     C_R   0.580149 0.597215 0.976978 -0.345942
C13   C     C_R   0.427819 0.411894 0.145082 0.086108
C14   C     C_R   0.572181 0.588107 0.854918 0.086108
C15   C     C_R   0.534819 0.541919 0.156401 0.029002
C16   C     C_R   0.465181 0.458081 0.843599 0.029002
C17   C     C_R   0.529174 0.535277 0.033725 0.069510
C18   C     C_R   0.470826 0.464723 0.966275 0.069510
C19   C     C_R   0.339828 0.499973 0.501002 0.832209
C20   C     C_R   0.660172 0.500027 0.498998 0.832210
C21   C     C_3   0.972270 0.417764 0.542484 0.019009
C22   C     C_3   0.027730 0.582236 0.457515 0.019009
C23   C     C_3   0.026614 0.410719 0.434578 -0.282026
C24   C     C_3   0.973386 0.589281 0.565421 -0.282026
C25   C     C_1   0.250404 0.499996 0.503416 -0.178443
C26   C     C_1   0.749596 0.500004 0.496584 -0.178442
C27   C     C_3   0.029891 0.505956 0.610469 0.018959
C28   C     C_3   0.970109 0.494044 0.389531 0.018959
C29   C     C_3   0.083369 0.499947 0.503297 0.094614
C30   C     C_3   0.916631 0.500053 0.496703 0.094614
C31   C     C_1   0.175009 0.499974 0.504446 -0.058789
C32   C     C_1   0.824991 0.500026 0.495554 -0.058789
C33   C     C_R   0.502041 0.814378 0.533746 -0.049914
C34   C     C_R   0.497959 0.185622 0.466254 -0.049914
Cu1   Cu    Cu3+1 0.506200 0.507730 0.615930 0.939164
Cu2   Cu    Cu3+1 0.493800 0.492270 0.384070 0.939163
H1    H     H_    0.050890 0.338662 0.382370 0.127148
H2    H     H_    0.949110 0.661338 0.617630 0.127148
H3    H     H_    0.514459 0.842379 0.723094 0.156306
H4    H     H_    0.485540 0.157621 0.276906 0.156306
H5    H     H_    0.484181 0.967705 0.257830 0.133980
H6    H     H_    0.515819 0.032294 0.742170 0.133980
H7    H     H_    0.611617 0.636199 0.811856 0.120521
H8    H     H_    0.388382 0.363801 0.188144 0.120521
H9    H     H_    0.374256 0.347787 0.973586 0.130777
H10   H     H_    0.625744 0.652213 0.026413 0.130777
N1    N     N_R   0.515540 0.519350 0.790140 -0.178701
N2    N     N_R   0.484460 0.480650 0.209860 -0.178701
O1    O     O_R   0.504400 0.354460 0.582000 -0.590552
O2    O     O_R   0.495600 0.645540 0.418000 -0.590552
O3    O     O_R   0.493920 0.341410 0.386200 -0.592577
O4    O     O_R   0.506080 0.658590 0.613800 -0.592577
O5    O     O_R   0.384320 0.506520 0.597880 -0.576484
O6    O     O_R   0.615680 0.493480 0.402120 -0.576485
O7    O     O_R   0.373840 0.493460 0.402080 -0.583231
O8    O     O_R   0.626160 0.506540 0.597920 -0.583231
C35   C     C_R   0.938454 0.328636 0.594600 0.119177
C36   C     C_R   0.955520 0.224572 0.547295 -0.153596
C37   C     C_R   0.924107 0.142945 0.597641 -0.136601
C38   C     C_R   0.875569 0.164624 0.695296 -0.106977
C39   C     C_R   0.858390 0.267993 0.742848 -0.147246
C40   C     C_R   0.889736 0.349754 0.692829 -0.131002
H11   H     H_    0.993048 0.206143 0.471897 0.114104
H12   H     H_    0.937444 0.062833 0.560959 0.118791
H13   H     H_    0.851315 0.101347 0.734117 0.120239
H14   H     H_    0.820860 0.284793 0.818525 0.128424
H15   H     H_    0.876171 0.429560 0.730605 0.122018
C41   C     C_R   0.061546 0.671363 0.405399 0.119178
C42   C     C_R   0.044476 0.775427 0.452701 -0.153597
C43   C     C_R   0.075888 0.857054 0.402354 -0.136601
C44   C     C_R   0.124429 0.835375 0.304701 -0.106978
C45   C     C_R   0.141611 0.732007 0.257152 -0.147246
C46   C     C_R   0.110265 0.650246 0.307172 -0.131001
H16   H     H_    0.006947 0.793857 0.528097 0.114103
H17   H     H_    0.062549 0.937166 0.439033 0.118792
H18   H     H_    0.148682 0.898652 0.265879 0.120239
H19   H     H_    0.179143 0.715207 0.181477 0.128424
H20   H     H_    0.123832 0.570440 0.269398 0.122017
C47   C     C_R   0.935442 0.492574 0.266304 0.115714
C48   C     C_R   0.958235 0.414424 0.174811 -0.163667
C49   C     C_R   0.927647 0.416220 0.060339 -0.124548
C50   C     C_R   0.874058 0.495704 0.036457 -0.105594
C51   C     C_R   0.851134 0.573717 0.126975 -0.142933
C52   C     C_R   0.881881 0.572450 0.241443 -0.128762
H21   H     H_    0.000186 0.352704 0.191225 0.116225
H22   H     H_    0.945883 0.356277 0.990023 0.138133
H23   H     H_    0.850557 0.497083 0.947839 0.118446
H24   H     H_    0.809794 0.635418 0.108380 0.119548
H25   H     H_    0.864316 0.633945 0.310661 0.124584
C53   C     C_R   0.064559 0.507426 0.733696 0.115714
C54   C     C_R   0.041766 0.585577 0.825188 -0.163668
C55   C     C_R   0.072354 0.583781 0.939660 -0.124547
C56   C     C_R   0.125943 0.504296 0.963542 -0.105594
C57   C     C_R   0.148865 0.426282 0.873025 -0.142934
C58   C     C_R   0.118118 0.427549 0.758557 -0.128763
H26   H     H_    0.999816 0.647298 0.808774 0.116226
H27   H     H_    0.054119 0.643725 0.009976 0.138133
H28   H     H_    0.149443 0.502918 0.052161 0.118446
H29   H     H_    0.190204 0.364581 0.891621 0.119548
H30   H     H_    0.135682 0.366053 0.689339 0.124584
H31   H     H_    0.489934 0.812803 0.347615 0.152307
H32   H     H_    0.510065 0.187197 0.652385 0.152307
H33   H     H_    0.420594 0.404033 0.790710 0.117631
H34   H     H_    0.579406 0.595967 0.209290 0.117630

loop_
_geom_bond_atom_site_label_1
_geom_bond_atom_site_label_2
_ccdc_geom_bond_type
C25   C31   T    
C11   C18   A    
C26   C32   T    
C56   C57   A    
C22   C29   S    
Cu1   O5    S    
Cu1   Cu2   S    
C24   C27   S    
C20   O8    A    
Cu1   N1    S    
C49   C50   A    
C35   C36   A    
C53   C58   A    
C37   H12   S    
C45   H19   S    
C4    H6    S    
C40   H15   S    
C23   C29   S    
C42   C43   A    
C47   C52   A    
C27   C29   S    
C50   H23   S    
C1    C34   S    
C27   C53   S    
C7    C9    A    
C28   C47   S    
C2    O2    A    
C54   H26   S    
C39   H14   S    
C41   C42   A    
C7    H32   S    
C12   C17   A    
Cu1   O1    S    
C24   H2    S    
C46   H20   S    
C43   C44   A    
C15   H34   S    
C8    H31   S    
C49   H22   S    
C19   O5    A    
C51   H24   S    
C21   C27   S    
C37   C38   A    
C22   C28   S    
C57   C58   A    
C15   N2    A    
C16   N1    A    
C55   H27   S    
C35   C40   A    
C4    C6    A    
C54   C55   A    
C58   H30   S    
C45   C46   A    
C41   C46   A    
C23   H1    S    
C38   C39   A    
C12   H10   S    
C21   C35   S    
C48   H21   S    
C16   H33   S    
C51   C52   A    
C5    C34   A    
C17   C18   A    
C42   H16   S    
C16   C18   A    
C23   C28   S    
C1    O3    A    
C22   C41   S    
Cu2   O3    S    
C2    O4    A    
C2    C33   S    
C20   O6    A    
C12   C14   A    
C38   H13   S    
C21   C23   S    
C7    C34   A    
C22   C24   S    
C11   H9    S    
C52   H25   S    
C43   H17   S    
Cu2   O2    S    
C9    C10   A    
C19   O7    A    
C36   H11   S    
C15   C17   A    
C3    H5    S    
Cu1   O8    S    
C48   C49   A    
C3    C5    A    
C13   N2    A    
C14   N1    A    
C21   C30   S    
C6    C33   A    
C28   C30   S    
C36   C37   A    
C44   C45   A    
C29   C31   S    
Cu2   O7    S    
C30   C32   S    
C11   C13   A    
C53   C54   A    
C44   H18   S    
C20   C26   S    
C57   H29   S    
C55   C56   A    
Cu2   N2    S    
C8    C33   A    
C39   C40   A    
C19   C25   S    
C24   C30   S    
Cu2   O6    S    
C47   C48   A    
C8    C10   A    
C50   C51   A    
C5    H4    S    
Cu1   O4    S    
C3    C10   A    
C6    H3    S    
C4    C9    A    
C1    O1    A    
C56   H28   S    
C13   H8    S    
C14   H7    S    
