data_mof_unit_19567.cif
_audit_creation_date              2013-03-05T16:07:26-0500
_audit_creation_method            fapswitch 2.2
_symmetry_space_group_name_H-M    P1
_symmetry_Int_Tables_number       1
_space_group_crystal_system       triclinic
_cell_length_a                    19.385484
_cell_length_b                    7.098942
_cell_length_c                    17.60899
_cell_angle_alpha                 90.136672
_cell_angle_beta                  108.651834
_cell_angle_gamma                 89.86761
_cell_volume                      2296.00439894

loop_
_atom_site_label
_atom_site_type_symbol
_atom_site_description
_atom_site_fract_x
_atom_site_fract_y
_atom_site_fract_z
_atom_type_partial_charge
O1    O     O_R   0.413720 0.494330 0.415730 -0.585799
O2    O     O_R   0.586280 0.994330 0.584270 -0.606648
O3    O     O_R   0.560210 0.819300 0.430070 -0.583550
O4    O     O_R   0.439790 0.319300 0.569930 -0.563061
C1    C     C_R   0.582377 0.654802 0.415475 1.029640
C2    C     C_R   0.417165 0.156019 0.583907 1.035837
O5    O     O_R   0.412670 0.823730 0.406310 -0.588155
O6    O     O_R   0.587330 0.323730 0.593690 -0.570963
O7    O     O_R   0.437690 0.998790 0.560340 -0.591286
O8    O     O_R   0.562310 0.498790 0.439660 -0.561071
C3    C     C_R   0.385471 0.655315 0.383383 1.010003
C4    C     C_R   0.614389 0.155312 0.616852 1.025357
O9    O     O_3   0.508380 0.662350 0.550560 -0.266515
O10   O     O_3   0.491620 0.162350 0.449440 -0.258418
V1    V     V_3+5 0.498450 0.935370 0.490620 1.288487
V2    V     V_3+5 0.501550 0.435370 0.509380 1.321364
C5    C     C_R   0.695249 0.001448 0.742958 0.133771
C6    C     C_R   0.304636 0.501320 0.257344 0.127212
C7    C     C_R   0.681419 0.148389 0.687223 -0.224374
C8    C     C_R   0.318193 0.648078 0.313391 -0.185505
C9    C     C_R   0.732652 0.296293 0.703494 -0.035525
C10   C     C_R   0.266479 0.795218 0.297928 -0.069607
H1    H     H_    0.723434 0.417764 0.664625 0.154867
H2    H     H_    0.275248 0.915456 0.337747 0.122933
C11   C     C_R   0.798657 0.283778 0.767492 -0.101192
C12   C     C_R   0.200619 0.783104 0.233633 -0.096219
H3    H     H_    0.838061 0.396023 0.775670 0.137063
H4    H     H_    0.160955 0.895036 0.225753 0.129777
C13   C     C_R   0.815277 0.123401 0.817410 -0.161472
C14   C     C_R   0.184447 0.623320 0.183055 -0.157828
C15   C     C_R   0.760027 0.989197 0.806105 0.034560
C16   C     C_R   0.239869 0.489143 0.194147 0.016993
C17   C     C_3   0.760096 0.778832 0.804076 -0.470117
C18   C     C_3   0.239819 0.278760 0.196055 -0.457092
C19   C     C_3   0.688138 0.792248 0.733956 0.088195
C20   C     C_3   0.311648 0.292000 0.266296 0.088892
H5    H     H_    0.805900 0.721641 0.785851 0.173808
H6    H     H_    0.193983 0.221956 0.214127 0.171340
H7    H     H_    0.691869 0.741161 0.675682 0.087391
H8    H     H_    0.307700 0.241362 0.324450 0.104451
C21   C     C_R   0.312441 0.294459 0.622101 0.319644
C22   C     C_R   0.682370 0.492626 0.375714 0.328069
C23   C     C_R   0.365086 0.150499 0.630166 -0.332651
C24   C     C_R   0.632666 0.644011 0.367019 -0.321936
C25   C     C_R   0.368720 0.001969 0.683647 -0.102447
C26   C     C_R   0.630541 0.786089 0.310988 -0.118370
C27   C     C_R   0.321523 0.994963 0.729600 0.079310
C28   C     C_R   0.676320 0.779437 0.263423 0.069507
C29   C     C_R   0.269118 0.137846 0.722180 0.011137
C30   C     C_R   0.725462 0.628413 0.271346 0.016763
C31   C     C_R   0.264835 0.288882 0.668715 0.024627
C32   C     C_R   0.728638 0.484762 0.327724 0.025999
C33   C     C_R   0.326740 0.846883 0.783373 -0.240770
C34   C     C_R   0.672775 0.921581 0.207406 -0.262122
C35   C     C_R   0.280608 0.836687 0.830409 0.307185
C36   C     C_R   0.717050 0.916476 0.158168 0.341263
C37   C     C_R   0.227235 0.978984 0.823303 -0.052477
C38   C     C_R   0.768697 0.769089 0.167554 -0.011713
C39   C     C_R   0.221237 0.129665 0.768422 0.024778
C40   C     C_R   0.772227 0.623024 0.223851 0.037082
C41   C     C_R   0.168405 0.273916 0.760878 0.195243
C42   C     C_R   0.823042 0.473076 0.233398 0.194703
C43   C     C_R   0.163248 0.422791 0.705457 -0.068981
C44   C     C_R   0.824801 0.326669 0.289032 -0.064183
C45   C     C_R   0.211871 0.429131 0.661398 -0.263475
C46   C     C_R   0.778745 0.336975 0.336006 -0.252435
C47   C     C_R   0.181324 0.978136 0.871258 -0.103864
C48   C     C_R   0.818209 0.766815 0.123829 -0.041866
C49   C     C_R   0.129760 0.120665 0.864993 -0.221676
C50   C     C_R   0.869142 0.621218 0.133698 -0.201477
C51   C     C_R   0.124288 0.268366 0.810942 -0.116934
C52   C     C_R   0.871643 0.477243 0.188694 -0.170146
H9    H     H_    0.409362 0.892515 0.690386 0.197589
H10   H     H_    0.592239 0.901577 0.303565 0.192798
H11   H     H_    0.366972 0.737039 0.788677 0.195906
H12   H     H_    0.633987 0.035689 0.200546 0.197692
H13   H     H_    0.186506 0.870859 0.916102 0.195726
H14   H     H_    0.818350 0.878807 0.082401 0.164944
H15   H     H_    0.085820 0.379319 0.809700 0.177670
H16   H     H_    0.913912 0.372808 0.197618 0.179459
H17   H     H_    0.206666 0.544007 0.619573 0.175897
H18   H     H_    0.781880 0.225530 0.378883 0.175588
O11   O     O_R   0.937800 0.775460 0.060470 -0.597174
O12   O     O_R   0.062200 0.275460 0.939530 -0.592379
O13   O     O_R   0.087350 0.441340 0.093710 -0.600681
O14   O     O_R   0.912650 0.941340 0.906290 -0.600219
C53   C     C_R   0.114806 0.610254 0.116292 0.931731
C54   C     C_R   0.885095 0.110239 0.883860 0.940607
O15   O     O_R   0.939820 0.446010 0.069950 -0.579196
O16   O     O_R   0.060180 0.946010 0.930050 -0.586213
O17   O     O_R   0.913690 0.271230 0.915700 -0.561202
O18   O     O_R   0.086310 0.771230 0.084300 -0.562530
C55   C     C_R   0.918814 0.614560 0.084956 0.995204
C56   C     C_R   0.081301 0.114065 0.915142 0.998002
O19   O     O_3   0.991670 0.603050 0.949510 -0.274727
O20   O     O_3   0.008330 0.103050 0.050490 -0.274255
V3    V     V_3+5 0.001550 0.329940 0.009370 1.231446
V4    V     V_3+5 0.998450 0.829940 0.990630 1.227708
N1    N     N_R   0.290109 0.682426 0.885692 0.238631
O21   O     O_R   0.234578 0.582643 0.887736 -0.447223
O22   O     O_R   0.355322 0.622091 0.924403 -0.335098
N2    N     N_R   0.707557 0.060108 0.098202 0.246800
O23   O     O_R   0.698158 0.013043 0.024107 -0.391141
O24   O     O_R   0.693267 0.232354 0.113807 -0.369306
C57   C     C_2   0.108306 0.576256 0.690123 0.530385
H19   H     H_    0.122617 0.716405 0.675582 0.015931
O25   O     O_2   0.045780 0.546381 0.688163 -0.591827
C58   C     C_2   0.872662 0.157803 0.301295 0.465631
H20   H     H_    0.889836 0.088584 0.359288 0.036436
O26   O     O_2   0.889644 0.086685 0.246681 -0.604099
C59   C     C_2   0.754826 0.697102 0.880835 0.718237
H21   H     H_    0.715824 0.752844 0.907698 0.079921
O27   O     O_2   0.794553 0.567465 0.913543 -0.587818
C60   C     C_2   0.245283 0.196370 0.119319 0.725375
H22   H     H_    0.283725 0.253139 0.092056 0.057807
O28   O     O_2   0.206340 0.065078 0.087079 -0.602176
N3    N     N_R   0.624319 0.718764 0.751716 0.254489
O29   O     O_R   0.572317 0.830567 0.755907 -0.385174
O30   O     O_R   0.616168 0.537769 0.756056 -0.376249
N4    N     N_R   0.375529 0.217248 0.248752 0.250501
O31   O     O_R   0.427958 0.327962 0.245477 -0.376722
O32   O     O_R   0.383453 0.036066 0.244160 -0.384899
N5    N     N_R   0.305002 0.440643 0.563814 0.228360
O33   O     O_R   0.285395 0.399023 0.487881 -0.448332
O34   O     O_R   0.322244 0.613376 0.586811 -0.428193
N6    N     N_R   0.688461 0.352167 0.435904 0.228002
O35   O     O_R   0.716176 0.395860 0.511329 -0.455341
O36   O     O_R   0.664903 0.181987 0.415492 -0.417632

loop_
_geom_bond_atom_site_label_1
_geom_bond_atom_site_label_2
_geom_bond_distance
_ccdc_geom_bond_type
C43   C45   1.400194 A    
N6    O35   1.300495 A    
C59   H21   1.085581 S    
C47   H13   1.079530 S    
O2    C4    1.316004 A    
C2    O7    1.295262 A    
C51   H15   1.078844 S    
C60   H22   1.085997 S    
O19   V4    1.752254 S    
O18   V4    1.999579 S    
N5    O33   1.301218 A    
C27   C29   1.410292 A    
O5    C3    1.317130 A    
C57   O25   1.220553 D    
O12   V3    1.991190 S    
C25   H9    1.084594 S    
C7    C9    1.411476 A    
N3    O30   1.300323 A    
O14   C54   1.320343 A    
C37   C39   1.422717 A    
C38   C40   1.422595 A    
O11   C55   1.315995 A    
C58   H20   1.085964 S    
C40   C42   1.421905 A    
C31   C45   1.404739 A    
C25   C27   1.402992 A    
C41   C43   1.421735 A    
C13   C54   1.482122 S    
C42   C44   1.422824 A    
N5    O34   1.300872 A    
C17   C19   1.542012 S    
C24   C26   1.403927 A    
C29   C31   1.413241 A    
O11   V4    1.993386 S    
O20   V4    2.183920 S    
C30   C32   1.412357 A    
C15   C17   1.493719 S    
C44   C58   1.487429 S    
C17   C59   1.505448 S    
C36   C38   1.419359 A    
C43   C57   1.485354 S    
C18   C20   1.541423 S    
C27   C33   1.398165 A    
C41   C51   1.411649 A    
C28   C30   1.409747 A    
O6    V2    2.004447 S    
C53   O18   1.315110 A    
C11   C13   1.412301 A    
C21   C23   1.417487 A    
C33   H11   1.084423 S    
C22   C24   1.417184 A    
C37   C47   1.409258 A    
C20   N4    1.466808 S    
N4    O32   1.300376 A    
O16   C56   1.316179 A    
C26   C28   1.402262 A    
C33   C35   1.401912 A    
C48   H14   1.080877 S    
C18   C60   1.505537 S    
C34   C36   1.401955 A    
C3    C8    1.481381 S    
C39   C41   1.422673 A    
C49   C51   1.398638 A    
O13   C53   1.320823 A    
C20   H8    1.111629 S    
C50   C55   1.481343 S    
O4    C2    1.292006 A    
C49   C56   1.481729 S    
C28   C34   1.398932 A    
C16   C18   1.493970 S    
C17   H5    1.111841 S    
O15   V3    2.014119 S    
C47   C49   1.400158 A    
C44   C46   1.399444 A    
O4    V2    2.018524 S    
C19   H7    1.111437 S    
C46   H18   1.083030 S    
C45   H17   1.082861 S    
N1    O21   1.300121 A    
C54   O17   1.314853 A    
O6    C4    1.316629 A    
O20   V3    1.754870 S    
C42   C52   1.408130 A    
C59   O27   1.219543 D    
O1    V2    1.999413 S    
O12   C56   1.315917 A    
O17   V3    1.999579 S    
N2    O24   1.301127 A    
O2    V1    1.999413 S    
C23   C25   1.401978 A    
C34   H12   1.084287 S    
C38   C48   1.409573 A    
N1    O22   1.301538 A    
C1    C24   1.488540 S    
C8    C10   1.411424 A    
C12   C14   1.412929 A    
C2    C23   1.486826 S    
C35   C37   1.421115 A    
C5    C15   1.388426 A    
C10   H2    1.081982 S    
C19   N3    1.466881 S    
C6    C16   1.388737 A    
C26   H10   1.084504 S    
O3    V1    2.014183 S    
N4    O31   1.302088 A    
C9    C11   1.411642 A    
N6    O36   1.301051 A    
C18   H6    1.111997 S    
O3    C1    1.296636 A    
C60   O28   1.219630 D    
O19   V3    2.187595 S    
C21   C31   1.418403 A    
C11   H3    1.082155 S    
C57   H19   1.086414 S    
C12   H4    1.082277 S    
C29   C39   1.418402 A    
C30   C40   1.416840 A    
C21   N5    1.435575 S    
C9    H1    1.080673 S    
O7    V1    2.004284 S    
C36   N2    1.438231 S    
C1    O8    1.292090 A    
C52   H16   1.077570 S    
O8    V2    2.006821 S    
N3    O29   1.302010 A    
C14   C16   1.400589 A    
C4    C7    1.482059 S    
O5    V1    2.004683 S    
C5    C7    1.399465 A    
C58   O26   1.219647 D    
C6    C8    1.399631 A    
O15   C55   1.316200 A    
N2    O23   1.301271 A    
O14   V4    2.004256 S    
O13   V3    2.004491 S    
C22   N6    1.433861 S    
C32   C46   1.403877 A    
C13   C15   1.400657 A    
C10   C12   1.412341 A    
O9    V2    1.753197 S    
C35   N1    1.438844 S    
C48   C50   1.399908 A    
O10   V1    1.755813 S    
C50   C52   1.399742 A    
O1    C3    1.315703 A    
C5    C19   1.495160 S    
C14   C53   1.482615 S    
C6    C20   1.495945 S    
O16   V4    2.018459 S    
C22   C32   1.416358 A    
