data_mof_unit_52565.cif
_audit_creation_date              2012-12-11T16:17:59-0500
_audit_creation_method            fapswitch 2.2
_symmetry_space_group_name_H-M    P1
_symmetry_Int_Tables_number       1
_space_group_crystal_system       triclinic
_cell_length_a                    14.016347
_cell_length_b                    14.042184
_cell_length_c                    30.112707
_cell_angle_alpha                 97.284874
_cell_angle_beta                  97.160676
_cell_angle_gamma                 61.339468
_cell_volume                      5144.74546246

loop_
_atom_site_label
_atom_site_type_symbol
_atom_type_description
_atom_site_fract_x
_atom_site_fract_y
_atom_site_fract_z
_atom_type_partial_charge
C1    C     C_R   0.385084 0.712220 0.442302 0.570678
C2    C     C_R   0.418728 0.274080 0.221215 0.183949
C3    C     C_R   0.426538 0.279296 0.268029 -0.096016
C4    C     C_R   0.336370 0.351306 0.292048 -0.007395
C5    C     C_R   0.319597 0.341572 0.198172 0.005793
C6    C     C_1   0.305517 0.326883 0.150236 0.038469
C7    C     C_1   0.349773 0.357798 0.340164 0.025578
C8    C     C_1   0.292775 0.306225 0.110687 0.072379
C9    C     C_R   0.770562 0.364265 0.400678 -0.055600
C10   C     C_R   0.770611 0.273760 0.373265 0.137169
C11   C     C_R   0.785375 0.263047 0.327286 0.142925
C12   C     C_R   0.399070 0.381307 0.426302 0.557965
C13   C     C_R   0.804583 0.338788 0.309179 -0.033261
C14   C     C_R   0.822821 0.416865 0.337273 0.234494
C15   C     C_R   0.809437 0.427578 0.383331 0.160307
C16   C     C_R   0.826007 0.411883 0.156799 0.240973
C17   C     C_R   0.858614 0.396036 0.113480 -0.109986
C18   C     C_R   0.870762 0.215924 0.104894 0.148220
C19   C     C_R   0.838247 0.232518 0.148425 -0.098681
C20   C     C_R   0.820692 0.327743 0.174906 0.001486
C21   C     C_1   0.810430 0.332665 0.221848 0.109921
C22   C     C_1   0.807039 0.335452 0.261577 0.129588
C23   C     C_R   0.712160 0.404107 0.442694 0.570228
C24   C     C_R   0.887713 0.295994 0.087902 -0.022622
C25   C     C_R   0.363141 0.770045 0.400967 -0.046431
C26   C     C_R   0.448380 0.777215 0.383007 0.130568
C27   C     C_R   0.442229 0.789507 0.337021 0.148659
C28   C     C_R   0.349067 0.801462 0.309780 -0.048242
C29   C     C_R   0.257241 0.813460 0.328699 0.167190
C30   C     C_R   0.263026 0.800161 0.374483 0.218100
C31   C     C_R   0.273324 0.794598 0.144246 0.266294
C32   C     C_R   0.256575 0.826641 0.100297 0.169471
C33   C     C_R   0.383114 0.901581 0.120493 0.119448
C34   C     C_R   0.389576 0.711883 0.568175 0.552632
C35   C     C_R   0.399304 0.868059 0.163481 -0.108796
C36   C     C_R   0.340820 0.820532 0.176022 -0.024494
C37   C     C_1   0.344806 0.808131 0.222671 0.106812
C38   C     C_1   0.346856 0.803877 0.262278 0.109603
C39   C     C_R   0.304342 0.889168 0.089108 -0.022530
C40   C     C_R   0.373270 0.371242 0.595941 -0.047067
C41   C     C_R   0.458650 0.323748 0.628897 -0.109802
C42   C     C_R   0.437675 0.332709 0.673460 0.231227
C43   C     C_R   0.329833 0.388248 0.685719 0.013443
C44   C     C_R   0.242624 0.431206 0.652888 0.245655
C45   C     C_R   0.402627 0.383741 0.552683 0.577902
C46   C     C_R   0.264240 0.423256 0.607785 0.245967
C47   C     C_R   0.250915 0.444502 0.849064 0.278847
C48   C     C_R   0.247720 0.413467 0.891365 0.141959
C49   C     C_R   0.353930 0.222292 0.864538 0.218172
C50   C     C_R   0.356653 0.254580 0.823354 -0.082222
C51   C     C_R   0.303252 0.363938 0.815052 -0.024903
C52   C     C_1   0.303102 0.387878 0.770357 0.144165
C53   C     C_1   0.310731 0.394067 0.731788 0.164952
C54   C     C_R   0.296176 0.301375 0.898867 -0.012709
C55   C     C_1   0.760697 0.377972 0.612784 0.098633
C56   C     C_R   0.712896 0.407998 0.568585 0.558133
C57   C     C_R   0.794757 0.430336 0.730089 0.263516
C58   C     C_R   0.810767 0.415953 0.776250 0.183286
C59   C     C_R   0.863499 0.223237 0.759504 0.277602
C60   C     C_R   0.846819 0.237824 0.713310 0.267349
C61   C     C_R   0.813118 0.341229 0.698641 -0.010124
C62   C     C_R   0.845484 0.312315 0.790936 -0.026087
C63   C     C_1   0.872783 0.295878 0.838113 0.093279
C64   C     C_1   0.789182 0.358498 0.651446 0.114098
C65   C     C_1   0.903362 0.283263 0.877135 0.088171
C66   C     C_1   0.375575 0.758873 0.613388 0.095108
C67   C     C_1   0.367847 0.365754 0.380147 0.064109
C68   C     C_R   0.403280 0.723228 0.728614 0.253877
C69   C     C_R   0.390158 0.744268 0.774921 0.269427
C70   C     C_R   0.279942 0.938326 0.764654 0.190852
C71   C     C_R   0.293988 0.917313 0.718405 0.249619
C72   C     C_R   0.355557 0.809872 0.700441 -0.012482
C73   C     C_R   0.328401 0.851710 0.792882 -0.014234
C74   C     C_1   0.312305 0.874503 0.840173 0.128588
C75   C     C_1   0.365866 0.786595 0.652752 0.110720
C76   C     C_1   0.293259 0.902498 0.878925 0.124868
C77   C     C_R   0.949456 0.273501 0.047978 0.553948
C78   C     C_R   0.238028 0.420948 0.269114 0.185927
C79   C     C_R   0.275546 0.270469 0.065340 0.559959
C80   C     C_R   0.262004 0.952253 0.048602 0.569416
C81   C     C_R   0.952040 0.269087 0.922119 0.553399
C82   C     C_R   0.276455 0.265606 0.939278 0.589881
C83   C     C_R   0.261752 0.950319 0.923003 0.564717
C84   C     C_R   0.229845 0.415056 0.222190 -0.082316
Cr1   Cr    Cr6+3 0.581000 0.584320 0.508140 1.161407
Cr2   Cr    Cr6+3 0.339110 0.576430 0.496080 1.179493
Cr3   Cr    Cr6+3 0.579910 0.339270 0.495810 1.135534
Cr4   Cr    Cr6+3 0.082090 0.079210 0.982490 1.166143
Cr5   Cr    Cr6+3 0.082460 0.324610 0.994920 1.129814
Cr6   Cr    Cr6+3 0.323630 0.087860 0.996130 1.167358
H1    H     H_    0.831674 0.168610 0.162399 0.200853
H2    H     H_    0.454479 0.883976 0.188058 0.202515
H3    H     H_    0.153041 0.466579 0.204469 0.187270
H4    H     H_    0.542851 0.285186 0.620581 0.196170
H5    H     H_    0.398097 0.193039 0.796896 0.205253
H6    H     H_    0.503199 0.227215 0.285709 0.192873
H7    H     H_    0.867789 0.460098 0.101081 0.192776
O1    O     O_R   0.688580 0.499770 0.460490 -0.447667
O2    O     O_R   0.348600 0.476260 0.536540 -0.450802
O3    O     O_R   0.494840 0.313840 0.539010 -0.499391
O4    O     O_R   0.672120 0.351750 0.545910 -0.494037
O5    O     O_3   0.500010 0.500010 0.500010 -0.315046
O6    O     O_R   0.167510 0.972920 0.030390 -0.448447
O7    O     O_R   0.990840 0.178580 0.027590 -0.453689
O8    O     O_R   0.972840 0.345510 0.038590 -0.511028
O9    O     O_R   0.181550 0.320660 0.045200 -0.491804
O10   O     O_R   0.346150 0.177650 0.050510 -0.455111
O11   O     O_R   0.314200 0.996600 0.036060 -0.465977
O12   O     O_R   0.480400 0.672610 0.462660 -0.469530
O13   O     O_R   0.168690 0.969990 0.933130 -0.472021
O14   O     O_R   0.991920 0.175870 0.937430 -0.480282
O15   O     O_R   0.974010 0.342590 0.941330 -0.476342
O16   O     O_R   0.182630 0.317940 0.955040 -0.470231
O17   O     O_R   0.347320 0.174720 0.953250 -0.440213
O18   O     O_R   0.315290 0.993890 0.945900 -0.467525
O19   O     O_3   0.162730 0.163890 0.991180 -0.308192
O20   O     O_R   0.315310 0.685650 0.451800 -0.442410
O21   O     O_R   0.346220 0.474990 0.446280 -0.473626
O22   O     O_R   0.492270 0.312460 0.441630 -0.471869
O23   O     O_R   0.669740 0.350480 0.455640 -0.466159
O24   O     O_R   0.691150 0.501150 0.557860 -0.462512
O25   O     O_R   0.482790 0.673890 0.552920 -0.485670
O26   O     O_R   0.317880 0.687030 0.549170 -0.471768
Br1   Br    Br    0.113928 0.524957 0.300556 -0.233002
Br2   Br    Br    0.894276 0.080233 0.072479 -0.311250
Br3   Br    Br    0.775699 0.146913 0.288379 -0.299633
Br4   Br    Br    0.171313 0.780333 0.056319 -0.237358
Cl1   Cl    Cl    0.206907 0.725661 0.160181 -0.439458
Br5   Br    Br    0.124701 0.844050 0.291356 -0.216544
Cl2   Cl    Cl    0.142640 0.824150 0.397722 -0.368093
Br6   Br    Br    0.571872 0.775718 0.420208 -0.255355
Br7   Br    Br    0.470232 0.967260 0.109673 -0.326824
Br8   Br    Br    0.562901 0.785975 0.310659 -0.261554
Br9   Br    Br    0.179663 0.524984 0.938588 -0.271550
Cl3   Cl    Cl    0.188408 0.583229 0.838271 -0.379071
Cl4   Cl    Cl    0.106724 0.496231 0.668359 -0.373035
Cl5   Cl    Cl    0.154801 0.477883 0.566520 -0.397830
Cl6   Cl    Cl    0.418122 0.080270 0.869032 -0.482278
Cl7   Cl    Cl    0.549479 0.276458 0.713475 -0.462816
Cl8   Cl    Cl    0.751741 0.560467 0.711597 -0.377338
Br10  Br    Br    0.544531 0.172640 0.190048 -0.330532
Br11  Br    Br    0.786480 0.538068 0.819317 -0.236283
Cl9   Cl    Cl    0.908253 0.092808 0.777960 -0.371427
Cl10  Cl    Cl    0.868067 0.126321 0.673799 -0.374792
Cl11  Cl    Cl    0.477576 0.587451 0.705772 -0.484304
Cl12  Cl    Cl    0.449702 0.635594 0.810274 -0.400887
Br12  Br    Br    0.192114 0.085700 0.789001 -0.367755
Cl13  Cl    Cl    0.232675 0.025470 0.682778 -0.434445
Cl14  Cl    Cl    0.800551 0.534850 0.188702 -0.432519
Cl15  Cl    Cl    0.859069 0.503992 0.314320 -0.340756
Br13  Br    Br    0.851003 0.524877 0.421756 -0.194165
Br14  Br    Br    0.754871 0.160631 0.397034 -0.258923

loop_
_geom_bond_atom_site_label_1
_geom_bond_atom_site_label_2
_ccdc_geom_bond_type
C44   Cl4   S    
C55   C56   S    
C63   C65   T    
C58   C62   A    
C34   O26   A    
C73   C74   S    
C35   C36   A    
C34   C66   S    
C15   Br13  S    
C40   C46   A    
Cr5   O15   S    
C26   C27   A    
C33   C39   A    
C74   C76   T    
C18   C24   A    
C32   Br4   S    
C48   Br9   S    
C36   C37   S    
Cr6   O10   S    
Cr1   O12   S    
C4    C7    S    
C18   Br2   S    
C5    C6    S    
C50   H5    S    
C49   C54   A    
C12   O22   A    
C68   Cl11  S    
C18   C19   A    
C41   C42   A    
C32   C39   A    
C10   Br14  S    
Cr1   O1    S    
C1    O12   A    
C21   C22   T    
Cr3   O4    S    
Cr4   O14   S    
C43   C53   S    
C29   Br5   S    
C81   O14   A    
C16   C17   A    
Cr5   O9    S    
C8    C79   S    
Cr1   O24   S    
C3    H6    S    
Cr6   O19   S    
Cr4   O6    S    
C29   C30   A    
C78   Br1   S    
C9    C10   A    
C68   C72   A    
Cr4   O13   S    
C35   H2    S    
C71   Cl13  S    
Cr5   O19   S    
C59   Cl9   S    
C59   C60   A    
C34   O25   A    
C13   C14   A    
C1    C25   S    
C69   Cl12  S    
C31   Cl1   S    
C70   C73   A    
C72   C75   S    
C76   C83   S    
Cr4   O7    S    
C44   C46   A    
C40   C45   S    
C12   C67   S    
Cr5   O16   S    
C17   C24   A    
C80   O6    A    
C51   C52   S    
C27   Br8   S    
C47   C48   A    
C83   O18   A    
C11   Br3   S    
C82   O17   A    
C45   O2    A    
C23   O23   A    
C5    C84   A    
C9    C23   S    
C6    C8    T    
C25   C26   A    
C30   Cl2   S    
C79   O9    A    
C60   C61   A    
Cr4   O19   S    
C61   C64   S    
C48   C54   A    
C43   C44   A    
Cr3   O22   S    
C37   C38   T    
Cr3   O5    S    
C58   Br11  S    
C65   C81   S    
C41   H4    S    
C81   O15   A    
C28   C38   S    
C16   C20   A    
C55   C64   T    
C14   Cl15  S    
C62   C63   S    
C50   C51   A    
C83   O13   A    
C79   O10   A    
Cr1   O25   S    
Cr2   O21   S    
C1    O20   A    
Cr6   O18   S    
C69   C73   A    
Cr2   O2    S    
C16   Cl14  S    
C46   Cl5   S    
C12   O21   A    
C33   Br7   S    
C40   C41   A    
C2    C5    A    
C42   C43   A    
C3    C4    A    
Cr2   O5    S    
C54   C82   S    
C70   C71   A    
C52   C53   T    
Cr3   O3    S    
C25   C30   A    
C28   C29   A    
C59   C62   A    
C47   Cl3   S    
C42   Cl7   S    
C31   C36   A    
C68   C69   A    
C31   C32   A    
C82   O16   A    
C45   O3    A    
C56   O4    A    
C47   C51   A    
C57   C61   A    
C4    C78   A    
C80   O11   A    
C56   O24   A    
C19   C20   A    
C77   O8    A    
C2    C3    A    
C9    C15   A    
Cr6   O11   S    
Cr3   O23   S    
C39   C80   S    
C11   C13   A    
C57   C58   A    
C66   C75   T    
C33   C35   A    
C13   C22   S    
Cr2   O20   S    
C84   H3    S    
Cr6   O17   S    
C19   H1    S    
C10   C11   A    
Cr1   O5    S    
C7    C67   T    
C78   C84   A    
C24   C77   S    
C71   C72   A    
C23   O1    A    
C20   C21   S    
C57   Cl8   S    
C49   C50   A    
Cr5   O8    S    
Cr2   O26   S    
C2    Br10  S    
C14   C15   A    
C77   O7    A    
C70   Br12  S    
C49   Cl6   S    
C17   H7    S    
C60   Cl10  S    
C26   Br6   S    
C27   C28   A    
