data_mof_unit_14668.cif
_audit_creation_date              2012-10-26T19:00:22-0400
_audit_creation_method            fapswitch 2.2
_symmetry_space_group_name_H-M    P1
_symmetry_Int_Tables_number       1
_space_group_crystal_system       triclinic
_cell_length_a                    23.486894
_cell_length_b                    9.403853
_cell_length_c                    7.821708
_cell_angle_alpha                 89.998991
_cell_angle_beta                  92.12472
_cell_angle_gamma                 89.997792
_cell_volume                      1726.37180212

loop_
_atom_site_label
_atom_site_type_symbol
_atom_type_description
_atom_site_fract_x
_atom_site_fract_y
_atom_site_fract_z
_atom_type_partial_charge
C1    C     C_R   0.500000 0.219682 0.500001 0.549724
C2    C     C_R   0.791607 0.496816 0.533141 0.244476
C3    C     C_R   0.390592 0.500024 0.496732 0.544670
C4    C     C_R   0.609407 0.500015 0.503268 0.544662
C5    C     C_R   0.296745 0.486582 0.636425 -0.142143
C6    C     C_R   0.701635 0.511878 0.672214 -0.141183
C7    C     C_R   0.298364 0.511423 0.327723 -0.141164
C8    C     C_R   0.703250 0.485940 0.363649 -0.142164
C9    C     C_R   0.327825 0.499578 0.487246 0.007142
C10   C     C_R   0.672173 0.499523 0.512755 0.007137
C11   C     C_R   0.881215 0.622208 0.541728 0.393466
C12   C     C_R   0.500000 0.780318 0.499999 0.549626
C13   C     C_R   0.119307 0.369783 0.462692 0.392116
C14   C     C_R   0.880714 0.369668 0.537279 0.392072
C15   C     C_R   0.118762 0.622323 0.458288 0.393440
C16   C     C_R   0.940039 0.366661 0.513946 -0.032114
C17   C     C_R   0.059044 0.623718 0.470689 -0.033088
C18   C     C_R   0.940933 0.623658 0.529328 -0.033045
C19   C     C_R   0.059982 0.366720 0.485998 -0.032090
C20   C     C_R   0.970159 0.495040 0.510664 -0.146878
C21   C     C_R   0.029840 0.495070 0.489325 -0.146890
C22   C     C_R   0.970152 0.239373 0.492271 0.265751
C23   C     C_1   0.500000 0.064788 0.500001 -0.039993
C24   C     C_R   0.027759 0.750318 0.471182 0.269646
C25   C     C_R   0.972192 0.750290 0.528826 0.269635
C26   C     C_R   0.029890 0.239399 0.507604 0.265779
C27   C     C_3   0.918378 0.113137 0.292314 0.044906
C28   C     C_3   0.873082 0.997205 0.276614 -0.279083
C29   C     C_3   0.048820 0.873896 0.234520 0.044090
C30   C     C_3   0.080449 0.002994 0.172091 -0.292972
C31   C     C_3   0.951110 0.873928 0.765416 0.044018
C32   C     C_3   0.919476 0.003046 0.827768 -0.292956
C33   C     C_3   0.081643 0.113142 0.707583 0.044890
C34   C     C_1   0.500000 0.935212 0.499999 -0.039993
C35   C     C_3   0.126937 0.997207 0.723358 -0.279143
C36   C     C_R   0.237349 0.484969 0.625998 -0.073716
C37   C     C_R   0.761050 0.510888 0.682127 -0.058967
C38   C     C_R   0.238949 0.510485 0.317814 -0.058950
C39   C     C_R   0.762646 0.484249 0.374087 -0.073690
C40   C     C_R   0.208391 0.497005 0.466876 0.244517
Cu1   Cu    Cu3+1 0.500000 0.500000 0.669080 1.032261
Cu2   Cu    Cu3+1 0.500000 0.500000 0.330920 1.032260
H1    H     H_    0.213686 0.474720 0.741599 0.105233
H2    H     H_    0.897551 0.215389 0.254392 0.113514
H3    H     H_    0.845146 0.000718 0.387901 0.244932
H4    H     H_    0.845764 0.013390 0.159407 0.075809
H5    H     H_    0.893591 0.891088 0.270497 0.166409
H6    H     H_    0.003985 0.877415 0.183452 0.091662
H7    H     H_    0.069938 0.778002 0.181992 0.114494
H8    H     H_    0.123776 0.008196 0.233613 0.228822
H9    H     H_    0.084478 0.992790 0.033584 0.033366
H10   H     H_    0.056769 0.102030 0.198633 0.163758
H11   H     H_    0.930003 0.778048 0.818011 0.114506
H12   H     H_    0.783338 0.520810 0.805247 0.112817
H13   H     H_    0.995949 0.877486 0.816460 0.091686
H14   H     H_    0.876148 0.008221 0.766241 0.228820
H15   H     H_    0.915443 0.992898 0.966278 0.033382
H16   H     H_    0.943153 0.102073 0.801169 0.163854
H17   H     H_    0.047270 0.092695 0.797613 0.097794
H18   H     H_    0.102459 0.215385 0.745574 0.113544
H19   H     H_    0.154909 0.000761 0.612153 0.244867
H20   H     H_    0.154219 0.013352 0.840646 0.075814
H21   H     H_    0.106428 0.891089 0.729376 0.166495
H22   H     H_    0.216662 0.519977 0.194641 0.112747
H23   H     H_    0.786308 0.473556 0.258540 0.105275
H24   H     H_    0.318250 0.477095 0.760794 0.131820
H25   H     H_    0.678827 0.522690 0.789329 0.132509
H26   H     H_    0.321172 0.521769 0.210547 0.132494
H27   H     H_    0.681742 0.476038 0.239334 0.131833
H28   H     H_    0.952724 0.092713 0.202189 0.097745
N1    N     N_R   0.852600 0.496234 0.541656 -0.401918
N2    N     N_R   0.147399 0.496375 0.458350 -0.401935
N3    N     N_1   0.500000 0.500000 0.076820 -0.085816
N4    N     N_1   0.500000 0.500000 0.923180 -0.085816
O1    O     O_R   0.500000 0.288390 0.642760 -0.494646
O2    O     O_2   0.148807 0.248258 0.442877 -0.492387
O3    O     O_2   0.851238 0.248115 0.557099 -0.492524
O4    O     O_2   0.148306 0.745008 0.451181 -0.490080
O5    O     O_3   0.941738 0.113834 0.461480 -0.445966
O6    O     O_3   0.050841 0.874710 0.414929 -0.441604
O7    O     O_3   0.949077 0.874666 0.585009 -0.441701
O8    O     O_3   0.058330 0.113886 0.538364 -0.445982
O9    O     O_R   0.500000 0.711610 0.357240 -0.494692
O10   O     O_R   0.500000 0.711610 0.642760 -0.494709
O11   O     O_R   0.500000 0.288390 0.357240 -0.494662
O12   O     O_R   0.417880 0.500000 0.642820 -0.505512
O13   O     O_R   0.582120 0.500000 0.357180 -0.505507
O14   O     O_R   0.582120 0.500000 0.642820 -0.508256
O15   O     O_R   0.417880 0.500000 0.357180 -0.508261
O16   O     O_2   0.851649 0.744867 0.548818 -0.490090

loop_
_geom_bond_atom_site_label_1
_geom_bond_atom_site_label_2
_ccdc_geom_bond_type
C30   H9    S    
C28   H5    S    
C14   N1    A    
C2    C37   A    
C32   H16   S    
C11   C18   A    
C4    O13   A    
C29   H7    S    
C15   N2    A    
C28   H4    S    
C8    H27   S    
C19   C21   A    
C22   O5    S    
C27   O5    S    
C11   N1    A    
C15   O4    S    
C5    C36   A    
C12   O10   A    
C15   C17   A    
N3    N4    T    
C14   O3    S    
C19   C26   A    
C7    H26   S    
C27   H2    S    
C24   O6    S    
C8    C39   A    
C33   O8    S    
Cu1   Cu2   S    
Cu1   N4    S    
C33   H17   S    
C3    O12   A    
C25   O7    S    
C39   H23   S    
C18   C25   A    
C32   H15   S    
C2    C39   A    
C26   O8    S    
C38   H22   S    
C1    O11   A    
C28   H3    S    
C17   C24   A    
C13   C19   A    
C29   H6    S    
C1    O1    A    
C36   C40   A    
C24   C25   A    
Cu1   O10   S    
C17   C21   A    
C12   O9    A    
C5    C9    A    
C29   C30   S    
C3    C9    S    
Cu1   O1    S    
C31   C32   S    
C13   O2    S    
C16   C20   A    
C23   C34   T    
C6    C37   A    
C35   H19   S    
Cu2   O11   S    
C31   H11   S    
C27   H28   S    
C37   H12   S    
C6    H25   S    
C1    C23   S    
C33   H18   S    
C14   C16   A    
C4    C10   S    
C2    N1    S    
C7    C9    A    
Cu1   O14   S    
C30   H10   S    
Cu2   N3    S    
C16   C22   A    
C40   N2    S    
Cu2   O9    S    
C5    H24   S    
C6    C10   A    
C4    O14   A    
C13   N2    A    
C31   O7    S    
C3    O15   A    
Cu2   O15   S    
C38   C40   A    
C11   O16   S    
C29   O6    S    
C33   C35   S    
C7    C38   A    
C35   H20   S    
C18   C20   A    
C30   H8    S    
Cu1   O12   S    
C20   C21   A    
C8    C10   A    
C22   C26   A    
C27   C28   S    
C36   H1    S    
C35   H21   S    
Cu2   O13   S    
C31   H13   S    
C12   C34   S    
C32   H14   S    
