data_mof_unit_60462.cif
_audit_creation_date              2012-12-10T19:16:52-0500
_audit_creation_method            fapswitch 2.2
_symmetry_space_group_name_H-M    P1
_symmetry_Int_Tables_number       1
_space_group_crystal_system       triclinic
_cell_length_a                    25.960959
_cell_length_b                    34.517266
_cell_length_c                    34.524615
_cell_angle_alpha                 89.928863
_cell_angle_beta                  90.028142
_cell_angle_gamma                 89.979252
_cell_volume                      30937.5237178

loop_
_atom_site_label
_atom_site_type_symbol
_atom_type_description
_atom_site_fract_x
_atom_site_fract_y
_atom_site_fract_z
_atom_type_partial_charge
C1    C     C_R   0.390133 0.249591 0.499546 0.925884
C2    C     C_R   0.890076 0.250398 0.499581 0.925752
C3    C     C_3   0.529098 0.735737 0.069534 1.079624
C4    C     C_3   0.970987 0.264024 0.569547 1.079013
C5    C     C_3   0.970561 0.735331 0.569367 1.080878
C6    C     C_3   0.029526 0.264500 0.569364 1.080633
C7    C     C_3   0.029099 0.735830 0.569552 1.079444
C8    C     C_3   0.970989 0.763944 0.069565 1.079336
C9    C     C_3   0.970561 0.235265 0.069354 1.080774
C10   C     C_3   0.029527 0.764414 0.069383 1.079879
C11   C     C_3   0.029099 0.235764 0.069539 1.079365
C12   C     C_3   0.470987 0.764027 0.569547 1.078879
C13   C     C_R   0.109907 0.749615 0.499581 0.917218
C14   C     C_3   0.470561 0.235333 0.569368 1.080810
C15   C     C_3   0.529526 0.764503 0.569364 1.080641
C16   C     C_3   0.529099 0.235832 0.569552 1.079442
C17   C     C_R   0.256078 0.042443 0.535153 0.423852
C18   C     C_R   0.297060 0.957434 0.504277 0.422847
C19   C     C_R   0.703502 0.042475 0.502896 0.479286
C20   C     C_R   0.745670 0.957551 0.534703 0.478932
C21   C     C_R   0.756078 0.042443 0.035153 0.423851
C22   C     C_R   0.797060 0.957434 0.004277 0.422847
C23   C     C_R   0.203502 0.042476 0.002897 0.479293
C24   C     C_R   0.109882 0.250401 0.499541 0.925872
C25   C     C_R   0.245672 0.957551 0.034702 0.478915
C26   C     C_R   0.756078 0.542443 0.535153 0.423796
C27   C     C_R   0.797060 0.457434 0.504277 0.422779
C28   C     C_R   0.203502 0.542475 0.502896 0.479086
C29   C     C_R   0.245670 0.457551 0.534703 0.478812
C30   C     C_R   0.291932 0.542908 0.018066 0.374548
C31   C     C_R   0.298122 0.456997 0.996713 0.380492
C32   C     C_R   0.703506 0.542475 0.002898 0.479356
C33   C     C_R   0.745675 0.457550 0.034704 0.479017
C34   C     C_R   0.256969 0.082666 0.533677 -0.183618
C35   C     C_R   0.390134 0.749591 0.999545 0.927777
C36   C     C_R   0.294954 0.917217 0.505026 -0.187923
C37   C     C_R   0.705254 0.082699 0.503787 -0.192424
C38   C     C_R   0.744689 0.917326 0.533468 -0.185899
C39   C     C_R   0.756969 0.082666 0.033677 -0.183607
C40   C     C_R   0.794955 0.917217 0.005026 -0.187954
C41   C     C_R   0.205254 0.082699 0.003787 -0.192417
C42   C     C_R   0.244691 0.917326 0.033468 -0.185827
C43   C     C_R   0.756969 0.582666 0.533677 -0.183744
C44   C     C_R   0.794955 0.417217 0.505026 -0.188076
C45   C     C_R   0.205254 0.582699 0.503787 -0.192747
C46   C     C_R   0.390076 0.250399 0.999581 0.925373
C47   C     C_R   0.244689 0.417326 0.533468 -0.186221
C48   C     C_R   0.292026 0.582870 0.013894 -0.200757
C49   C     C_R   0.295865 0.417023 0.001715 -0.192982
C50   C     C_R   0.705257 0.582698 0.003788 -0.191939
C51   C     C_R   0.744691 0.417325 0.033469 -0.185852
C52   C     C_R   0.252392 0.102464 0.498478 -0.257521
C53   C     C_R   0.248081 0.897558 0.501583 -0.254859
C54   C     C_R   0.752068 0.102541 0.501759 -0.311165
C55   C     C_R   0.747580 0.897447 0.498315 -0.317480
C56   C     C_R   0.752392 0.102464 0.998478 -0.257515
C57   C     C_R   0.609907 0.749614 0.999580 0.917188
C58   C     C_R   0.748081 0.897558 0.001583 -0.254842
C59   C     C_R   0.252068 0.102541 0.001759 -0.311181
C60   C     C_R   0.247579 0.897447 0.998315 -0.317552
C61   C     C_R   0.752392 0.602464 0.498478 -0.257478
C62   C     C_R   0.748081 0.397558 0.501583 -0.254813
C63   C     C_R   0.252068 0.602541 0.501759 -0.311126
C64   C     C_R   0.247580 0.397447 0.498315 -0.317294
C65   C     C_R   0.246982 0.602691 0.004011 -0.249649
C66   C     C_R   0.248914 0.397506 0.999098 -0.258978
C67   C     C_R   0.752070 0.602541 0.001760 -0.311464
C68   C     C_R   0.609882 0.250401 0.999541 0.925868
C69   C     C_R   0.747581 0.397447 0.998316 -0.317404
C70   C     C_R   0.249322 0.355079 0.499478 0.827990
C71   C     C_R   0.250672 0.644918 0.500524 0.824441
C72   C     C_R   0.749312 0.355118 0.500497 0.838391
C73   C     C_R   0.750701 0.644889 0.499502 0.831894
C74   C     C_R   0.749322 0.355079 0.999478 0.828022
C75   C     C_R   0.750672 0.644918 0.000524 0.824549
C76   C     C_R   0.249209 0.355110 0.000361 0.842530
C77   C     C_R   0.249459 0.644919 0.000605 0.832505
C78   C     C_R   0.749322 0.855079 0.499478 0.828068
C79   C     C_R   0.253340 0.284954 0.832685 0.392738
C80   C     C_R   0.750672 0.144918 0.500524 0.824539
C81   C     C_R   0.249312 0.855118 0.500497 0.838431
C82   C     C_R   0.250701 0.144889 0.499502 0.831946
C83   C     C_R   0.249322 0.855079 0.999478 0.828205
C84   C     C_R   0.250672 0.144918 0.000524 0.824532
C85   C     C_R   0.749312 0.855118 0.000497 0.838421
C86   C     C_R   0.750701 0.144889 0.999502 0.831938
C87   C     C_R   0.248488 0.081539 0.463286 0.326427
C88   C     C_R   0.201371 0.918636 0.498489 0.329771
C89   C     C_R   0.798969 0.081665 0.500150 0.453570
C90   C     C_R   0.260548 0.715386 0.832215 0.401355
C91   C     C_R   0.749671 0.918280 0.463000 0.447296
C92   C     C_R   0.748488 0.081539 0.963286 0.326429
C93   C     C_R   0.701371 0.918636 0.998489 0.329771
C94   C     C_R   0.298969 0.081665 0.000148 0.453574
C95   C     C_R   0.249668 0.918279 0.963000 0.447251
C96   C     C_R   0.748488 0.581539 0.463286 0.326367
C97   C     C_R   0.701371 0.418636 0.498489 0.329718
C98   C     C_R   0.298969 0.581665 0.500149 0.453391
C99   C     C_R   0.249671 0.418280 0.463000 0.447182
C100  C     C_R   0.199780 0.582311 0.003235 0.327238
C101  C     C_R   0.739699 0.284738 0.832145 0.403449
C102  C     C_R   0.204199 0.418243 0.988050 0.318223
C103  C     C_R   0.798972 0.581666 0.000151 0.453536
C104  C     C_R   0.749673 0.418280 0.963001 0.447319
C105  C     C_R   0.246642 0.040688 0.464463 0.483496
C106  C     C_R   0.203085 0.959481 0.497015 0.485037
C107  C     C_R   0.798113 0.041182 0.498880 0.453188
C108  C     C_R   0.751147 0.958773 0.463562 0.450874
C109  C     C_R   0.746643 0.040687 0.964463 0.483498
C110  C     C_R   0.703085 0.959481 0.997015 0.485033
C111  C     C_R   0.298112 0.041182 0.998879 0.453184
C112  C     C_R   0.390076 0.750398 0.499581 0.925745
C113  C     C_R   0.744939 0.714206 0.831971 0.354222
C114  C     C_R   0.251143 0.958773 0.963561 0.450907
C115  C     C_R   0.746642 0.540687 0.464463 0.483419
C116  C     C_R   0.703085 0.459481 0.497015 0.484971
C117  C     C_R   0.298113 0.541182 0.498880 0.452982
C118  C     C_R   0.251146 0.458773 0.463562 0.450723
C119  C     C_R   0.200483 0.541467 0.006133 0.517745
C120  C     C_R   0.207734 0.458362 0.981421 0.519755
C121  C     C_R   0.798117 0.541183 0.998883 0.453139
C122  C     C_R   0.751151 0.458774 0.963563 0.450989
C123  C     C_R   0.250928 0.021332 0.500226 -0.112240
C124  C     C_R   0.753362 0.284945 0.332682 0.392724
C125  C     C_R   0.250697 0.978689 0.500314 -0.110874
C126  C     C_R   0.750224 0.021314 0.500329 -0.286794
C127  C     C_R   0.749082 0.978678 0.499531 -0.288797
C128  C     C_R   0.750928 0.021332 0.000226 -0.112243
C129  C     C_R   0.750697 0.978689 0.000314 -0.110867
C130  C     C_R   0.250223 0.021314 0.000328 -0.286797
C131  C     C_R   0.249081 0.978678 0.999530 -0.288800
C132  C     C_R   0.750928 0.521332 0.500226 -0.112169
C133  C     C_R   0.750697 0.478689 0.500314 -0.110798
C134  C     C_R   0.250224 0.521315 0.500328 -0.286623
C135  C     C_R   0.760340 0.715260 0.332253 0.403628
C136  C     C_R   0.249081 0.478678 0.499531 -0.288492
C137  C     C_R   0.248350 0.521379 0.005534 -0.123263
C138  C     C_R   0.251565 0.478733 0.994839 -0.127108
C139  C     C_R   0.750228 0.521315 0.000331 -0.287156
C140  C     C_R   0.749087 0.478678 0.999533 -0.288788
C141  C     C_R   0.250009 0.250005 0.395026 0.814390
C142  C     C_R   0.249720 0.749842 0.394969 0.911892
C143  C     C_R   0.749720 0.249842 0.394970 0.911898
C144  C     C_R   0.750009 0.750005 0.395026 0.814385
C145  C     C_R   0.750009 0.250005 0.895026 0.814395
C146  C     C_R   0.239702 0.284736 0.332144 0.403433
C147  C     C_R   0.749720 0.749842 0.894970 0.911896
C148  C     C_R   0.249720 0.249843 0.894970 0.911572
C149  C     C_R   0.249993 0.750021 0.895026 0.818005
C150  C     C_R   0.250098 0.250026 0.605206 0.996775
C151  C     C_R   0.249988 0.749999 0.605220 0.989808
C152  C     C_R   0.749994 0.249992 0.605219 0.989958
C153  C     C_R   0.750097 0.750026 0.605206 0.996798
C154  C     C_R   0.750097 0.250025 0.105206 0.996763
C155  C     C_R   0.749994 0.749992 0.105219 0.989888
C156  C     C_R   0.249995 0.249992 0.105219 0.990315
C157  C     C_R   0.244949 0.714206 0.331970 0.354108
C158  C     C_R   0.250096 0.750025 0.105206 0.994837
C159  C     C_R   0.295220 0.238494 0.708412 0.548989
C160  C     C_R   0.206407 0.737178 0.708671 0.557536
C161  C     C_R   0.793505 0.262831 0.708679 0.558391
C162  C     C_R   0.707002 0.761897 0.708795 0.564779
C163  C     C_R   0.795209 0.238473 0.208413 0.549104
C164  C     C_R   0.706476 0.737111 0.208675 0.557894
C165  C     C_R   0.293512 0.262823 0.208679 0.558127
C166  C     C_R   0.206994 0.761882 0.208794 0.564379
C167  C     C_R   0.795208 0.738472 0.708413 0.549138
C168  C     C_R   0.753364 0.784945 0.832682 0.392761
C169  C     C_R   0.706476 0.237109 0.708675 0.557839
C170  C     C_R   0.293364 0.763036 0.708687 0.558425
C171  C     C_R   0.207006 0.261902 0.708795 0.564508
C172  C     C_R   0.295216 0.738490 0.208412 0.548400
C173  C     C_R   0.206481 0.237104 0.208676 0.557756
C174  C     C_R   0.793508 0.762828 0.208678 0.558320
C175  C     C_R   0.707002 0.261896 0.208795 0.564762
C176  C     C_R   0.294887 0.238358 0.668074 0.534002
C177  C     C_R   0.206379 0.737011 0.668330 0.533034
C178  C     C_R   0.793574 0.262947 0.668339 0.533068
C179  C     C_R   0.760347 0.215262 0.832253 0.403658
C180  C     C_R   0.706585 0.762062 0.668456 0.531067
C181  C     C_R   0.794879 0.238343 0.168075 0.534044
C182  C     C_R   0.706410 0.736997 0.168334 0.533041
C183  C     C_R   0.293580 0.262941 0.168339 0.532683
C184  C     C_R   0.206577 0.762046 0.168455 0.530097
C185  C     C_R   0.794879 0.738342 0.668075 0.534057
C186  C     C_R   0.706410 0.236995 0.668334 0.533016
C187  C     C_R   0.293474 0.763096 0.668348 0.533076
C188  C     C_R   0.206586 0.262061 0.668456 0.530963
C189  C     C_R   0.294886 0.738359 0.168074 0.534098
C190  C     C_R   0.239381 0.784774 0.832180 0.403324
C191  C     C_R   0.206414 0.236991 0.168335 0.532991
C192  C     C_R   0.793577 0.762944 0.168339 0.533019
C193  C     C_R   0.706585 0.262061 0.168456 0.531064
C194  C     C_R   0.250514 0.250157 0.647734 -0.534472
C195  C     C_R   0.249948 0.750024 0.647780 -0.532649
C196  C     C_R   0.749992 0.249975 0.647779 -0.532630
C197  C     C_R   0.750510 0.750152 0.647734 -0.534500
C198  C     C_R   0.750510 0.250152 0.147734 -0.534491
C199  C     C_R   0.749993 0.749974 0.147779 -0.532637
C200  C     C_R   0.249996 0.249971 0.147779 -0.532610
C201  C     C_R   0.244968 0.214211 0.831968 0.354106
C202  C     C_R   0.250510 0.750152 0.147734 -0.533787
C203  C     C_R   0.251264 0.250115 0.728796 -0.436340
C204  C     C_R   0.249868 0.750131 0.728848 -0.438646
C205  C     C_R   0.749988 0.249972 0.728847 -0.438480
C206  C     C_R   0.751255 0.750099 0.728796 -0.436545
C207  C     C_R   0.751255 0.250099 0.228796 -0.436523
C208  C     C_R   0.749991 0.749972 0.228847 -0.438497
C209  C     C_R   0.249995 0.249966 0.228847 -0.438311
C210  C     C_R   0.251254 0.750101 0.228796 -0.436279
C211  C     C_R   0.255285 0.285352 0.791888 0.403281
C212  C     C_R   0.253353 0.784947 0.332681 0.392672
C213  C     C_R   0.259895 0.715277 0.791793 0.506443
C214  C     C_R   0.740276 0.284854 0.791721 0.506375
C215  C     C_R   0.746428 0.714309 0.791587 0.506062
C216  C     C_R   0.755304 0.285339 0.291885 0.403424
C217  C     C_R   0.759720 0.715120 0.291829 0.505986
C218  C     C_R   0.240281 0.284849 0.291719 0.506305
C219  C     C_R   0.246440 0.714309 0.291586 0.505889
C220  C     C_R   0.755306 0.785339 0.791885 0.403484
C221  C     C_R   0.759726 0.215121 0.791829 0.506049
C222  C     C_R   0.239925 0.784925 0.791753 0.506817
C223  C     C_R   0.609907 0.249615 0.499581 0.917250
C224  C     C_R   0.260352 0.215259 0.332254 0.403640
C225  C     C_R   0.246459 0.214318 0.791584 0.505944
C226  C     C_R   0.255293 0.785341 0.291884 0.403433
C227  C     C_R   0.259732 0.215117 0.291830 0.506033
C228  C     C_R   0.740286 0.784855 0.291720 0.506447
C229  C     C_R   0.746430 0.214309 0.291587 0.506086
C230  C     C_R   0.739708 0.784740 0.332145 0.403502
C231  C     C_R   0.744941 0.214206 0.331971 0.354201
C232  C     C_R   0.248947 0.249511 0.852542 -0.348975
C233  C     C_R   0.249981 0.750064 0.852664 -0.419546
C234  C     C_R   0.750032 0.250006 0.852665 -0.418722
C235  C     C_R   0.748944 0.749506 0.852542 -0.349308
C236  C     C_R   0.748944 0.249506 0.352542 -0.349310
C237  C     C_R   0.750032 0.750005 0.352664 -0.418716
C238  C     C_R   0.250034 0.250004 0.352665 -0.418654
C239  C     C_R   0.609882 0.750401 0.499541 0.925860
C240  C     C_R   0.248944 0.749506 0.352541 -0.349217
C241  C     C_R   0.251462 0.249887 0.771313 -0.082174
C242  C     C_R   0.249877 0.750111 0.771328 -0.138119
C243  C     C_R   0.749988 0.249981 0.771329 -0.138900
C244  C     C_R   0.751455 0.749873 0.771313 -0.082390
C245  C     C_R   0.751455 0.249873 0.271313 -0.082381
C246  C     C_R   0.749991 0.749981 0.271329 -0.138897
C247  C     C_R   0.249995 0.249976 0.271329 -0.138766
C248  C     C_R   0.251454 0.749875 0.271313 -0.082056
C249  C     C_R   0.026536 0.270722 0.526526 -0.254924
C250  C     C_R   0.890133 0.249591 0.999545 0.925810
C251  C     C_R   0.026498 0.729668 0.526784 -0.260586
C252  C     C_R   0.973540 0.270277 0.526778 -0.260701
C253  C     C_R   0.973504 0.729201 0.526531 -0.256093
C254  C     C_R   0.526536 0.270722 0.026525 -0.254785
C255  C     C_R   0.526497 0.729629 0.026758 -0.259695
C256  C     C_R   0.473539 0.270278 0.026777 -0.260799
C257  C     C_R   0.473504 0.729162 0.026505 -0.256563
C258  C     C_R   0.526536 0.770723 0.526525 -0.254839
C259  C     C_R   0.526498 0.229668 0.526784 -0.260513
C260  C     C_R   0.473540 0.770278 0.526777 -0.260574
C261  C     C_R   0.890076 0.750395 0.999584 0.925930
C262  C     C_R   0.473504 0.229202 0.526532 -0.255994
C263  C     C_R   0.026539 0.770680 0.026551 -0.254354
C264  C     C_R   0.026498 0.229640 0.026765 -0.260294
C265  C     C_R   0.973541 0.770239 0.026801 -0.260829
C266  C     C_R   0.973504 0.229174 0.026512 -0.255950
C267  C     C_R   0.054080 0.253522 0.496487 -0.114323
C268  C     C_R   0.054163 0.746697 0.496718 -0.108656
C269  C     C_R   0.945824 0.253325 0.496717 -0.110697
C270  C     C_R   0.945921 0.746456 0.496485 -0.115541
C271  C     C_R   0.554080 0.253522 0.996487 -0.114307
C272  C     C_R   0.109907 0.249613 0.999580 0.917402
C273  C     C_R   0.554163 0.746692 0.996711 -0.108797
C274  C     C_R   0.445824 0.253326 0.996717 -0.110603
C275  C     C_R   0.445920 0.746452 0.996479 -0.116328
C276  C     C_R   0.554080 0.753522 0.496487 -0.114351
C277  C     C_R   0.554163 0.246697 0.496718 -0.108687
C278  C     C_R   0.445824 0.753325 0.496717 -0.110720
C279  C     C_R   0.445921 0.246456 0.496485 -0.115566
C280  C     C_R   0.054081 0.753495 0.996504 -0.112522
C281  C     C_R   0.054163 0.246694 0.996713 -0.109406
C282  C     C_R   0.945826 0.753307 0.996730 -0.110874
C283  C     C_R   0.109883 0.750392 0.999548 0.920359
C284  C     C_R   0.945921 0.246454 0.996480 -0.115645
C285  C     C_R   0.027162 0.240864 0.463103 0.341988
C286  C     C_R   0.027615 0.757745 0.462687 0.343655
C287  C     C_R   0.972333 0.242336 0.462693 0.346999
C288  C     C_R   0.972787 0.759191 0.463093 0.341265
C289  C     C_R   0.527162 0.240865 0.963102 0.342021
C290  C     C_R   0.527615 0.757772 0.962691 0.343765
C291  C     C_R   0.472332 0.242338 0.962692 0.346892
C292  C     C_R   0.472788 0.759219 0.963099 0.341836
C293  C     C_R   0.527162 0.740863 0.463103 0.342017
C294  C     C_R   0.890133 0.749591 0.499546 0.925882
C295  C     C_R   0.527615 0.257744 0.462687 0.343685
C296  C     C_R   0.472333 0.742336 0.462693 0.346996
C297  C     C_R   0.472787 0.259190 0.463093 0.341298
C298  C     C_R   0.027163 0.740834 0.963121 0.343451
C299  C     C_R   0.027615 0.257766 0.962690 0.343161
C300  C     C_R   0.972335 0.742314 0.962708 0.346829
C301  C     C_R   0.972788 0.259213 0.963097 0.341274
C302  C     C_3   0.470987 0.264025 0.069547 1.078971
C303  C     C_3   0.470559 0.735235 0.069349 1.080698
C304  C     C_3   0.529526 0.264501 0.069364 1.080655
F1    F     F_    0.338355 0.227354 0.727710 -0.533896
F2    F     F_    0.664104 0.224816 0.728182 -0.534890
F3    F     F_    0.335687 0.775410 0.728205 -0.534589
F4    F     F_    0.164198 0.272994 0.728469 -0.535421
F5    F     F_    0.338352 0.727356 0.227710 -0.534118
F6    F     F_    0.164110 0.224811 0.228183 -0.534913
F7    F     F_    0.835879 0.775120 0.228188 -0.534666
F8    F     F_    0.664197 0.272995 0.228469 -0.535103
F9    F     F_    0.338279 0.227456 0.649014 -0.504769
F10   F     F_    0.163386 0.724871 0.649495 -0.504863
F11   F     F_    0.836622 0.274996 0.649518 -0.504869
F12   F     F_    0.164060 0.724828 0.728173 -0.535384
F13   F     F_    0.662877 0.773007 0.649776 -0.505392
F14   F     F_    0.838268 0.227435 0.149015 -0.504753
F15   F     F_    0.663366 0.724952 0.149504 -0.504716
F16   F     F_    0.336628 0.274987 0.149517 -0.505216
F17   F     F_    0.162861 0.772973 0.149775 -0.505811
F18   F     F_    0.838268 0.727434 0.649015 -0.504762
F19   F     F_    0.663367 0.224947 0.649504 -0.504766
F20   F     F_    0.336509 0.775184 0.649537 -0.504836
F21   F     F_    0.162873 0.272995 0.649776 -0.505522
F22   F     F_    0.338282 0.727467 0.149014 -0.504673
F23   F     F_    0.835874 0.275125 0.728190 -0.534697
F24   F     F_    0.163370 0.224945 0.149505 -0.504776
F25   F     F_    0.836626 0.774990 0.149517 -0.504881
F26   F     F_    0.662876 0.273005 0.149777 -0.505425
F27   F     F_    0.449029 0.295027 0.088854 -0.541334
F28   F     F_    0.449373 0.703823 0.088540 -0.541049
F29   F     F_    0.550760 0.295836 0.088587 -0.541502
F30   F     F_    0.551105 0.704679 0.088813 -0.540255
F31   F     F_    0.949029 0.295026 0.588854 -0.540884
F32   F     F_    0.949374 0.703945 0.588601 -0.541023
F33   F     F_    0.050760 0.295836 0.588588 -0.541551
F34   F     F_    0.664197 0.772996 0.728469 -0.535028
F35   F     F_    0.051105 0.704797 0.588870 -0.540748
F36   F     F_    0.949035 0.794928 0.088903 -0.540722
F37   F     F_    0.949373 0.203862 0.088559 -0.540929
F38   F     F_    0.050767 0.795728 0.088638 -0.541139
F39   F     F_    0.051104 0.204713 0.088829 -0.540611
F40   F     F_    0.449029 0.795030 0.588852 -0.540755
F41   F     F_    0.449374 0.203947 0.588602 -0.540915
F42   F     F_    0.550760 0.795840 0.588586 -0.541365
F43   F     F_    0.551105 0.204799 0.588871 -0.540604
F44   F     F_    0.449885 0.228585 0.079692 -0.612614
F45   F     F_    0.838338 0.227324 0.227710 -0.533821
F46   F     F_    0.448322 0.770273 0.079486 -0.611929
F47   F     F_    0.551747 0.229418 0.079468 -0.610248
F48   F     F_    0.550184 0.771152 0.079713 -0.614363
F49   F     F_    0.949885 0.228584 0.579692 -0.612658
F50   F     F_    0.948327 0.770382 0.579458 -0.611990
F51   F     F_    0.051747 0.229418 0.579468 -0.610229
F52   F     F_    0.050188 0.771258 0.579685 -0.614388
F53   F     F_    0.949882 0.728495 0.079675 -0.613125
F54   F     F_    0.948327 0.270308 0.079477 -0.612222
F55   F     F_    0.051743 0.729319 0.079450 -0.613230
F56   F     F_    0.664104 0.724820 0.228183 -0.534870
F57   F     F_    0.050188 0.271182 0.079704 -0.614743
F58   F     F_    0.449886 0.728588 0.579693 -0.612865
F59   F     F_    0.448327 0.270384 0.579458 -0.612134
F60   F     F_    0.551747 0.729421 0.579469 -0.610341
F61   F     F_    0.550188 0.271260 0.579684 -0.614459
F62   F     F_    0.335883 0.275116 0.228189 -0.534954
F63   F     F_    0.164182 0.772966 0.228468 -0.535257
F64   F     F_    0.838338 0.727322 0.727710 -0.533834
H1    H     H_    0.260110 0.098685 0.560570 0.223257
H2    H     H_    0.830661 0.401093 0.507483 0.221271
H3    H     H_    0.746615 0.003069 0.568684 0.362881
H4    H     H_    0.755560 0.996954 0.069136 0.354173
H5    H     H_    0.842404 0.002779 0.003838 0.352569
H6    H     H_    0.158196 0.997005 0.001873 0.361806
H7    H     H_    0.246618 0.003069 0.068683 0.362880
H8    H     H_    0.755560 0.496955 0.569136 0.354137
H9    H     H_    0.842404 0.502780 0.503838 0.352519
H10   H     H_    0.158197 0.497005 0.501872 0.361725
H11   H     H_    0.246615 0.503069 0.568683 0.362756
H12   H     H_    0.318975 0.504289 0.052868 0.372448
H13   H     H_    0.169344 0.598692 0.505164 0.218898
H14   H     H_    0.340781 0.495450 0.971987 0.368520
H15   H     H_    0.658202 0.497003 0.001874 0.362007
H16   H     H_    0.746624 0.503068 0.068686 0.362860
H17   H     H_    0.242860 0.401361 0.560503 0.221463
H18   H     H_    0.327103 0.598650 0.020313 0.230742
H19   H     H_    0.331460 0.400860 0.004752 0.221698
H20   H     H_    0.669347 0.598691 0.005165 0.219319
H21   H     H_    0.742862 0.401361 0.060504 0.221549
H22   H     H_    0.266048 0.124805 0.429540 0.348591
H23   H     H_    0.156272 0.875578 0.511802 0.353608
H24   H     H_    0.843487 0.125161 0.513184 0.338965
H25   H     H_    0.330661 0.901092 0.507483 0.221311
H26   H     H_    0.732693 0.874651 0.429609 0.332238
H27   H     H_    0.766048 0.124805 0.929540 0.348592
H28   H     H_    0.656271 0.875578 0.011802 0.353587
H29   H     H_    0.343488 0.125160 0.013183 0.338969
H30   H     H_    0.232689 0.874650 0.929610 0.332279
H31   H     H_    0.766048 0.624805 0.429540 0.348566
H32   H     H_    0.656271 0.375578 0.511802 0.353588
H33   H     H_    0.343488 0.625161 0.513184 0.338939
H34   H     H_    0.232692 0.374651 0.429609 0.332214
H35   H     H_    0.155954 0.626932 0.013529 0.354139
H36   H     H_    0.669345 0.098692 0.505164 0.218939
H37   H     H_    0.154232 0.379130 0.002487 0.358035
H38   H     H_    0.843489 0.625163 0.013185 0.338950
H39   H     H_    0.732693 0.374652 0.929610 0.332252
H40   H     H_    0.238008 0.035547 0.408305 0.407072
H41   H     H_    0.128447 0.964857 0.490339 0.404277
H42   H     H_    0.840591 0.994033 0.497498 0.353390
H43   H     H_    0.752640 0.005892 0.431531 0.354814
H44   H     H_    0.738008 0.035547 0.908305 0.407071
H45   H     H_    0.628447 0.964857 0.990339 0.404268
H46   H     H_    0.340590 0.994033 0.997494 0.353373
H47   H     H_    0.742860 0.901361 0.560503 0.221606
H48   H     H_    0.252634 0.005892 0.931530 0.354814
H49   H     H_    0.738008 0.535547 0.408305 0.407001
H50   H     H_    0.628447 0.464857 0.490339 0.404212
H51   H     H_    0.340591 0.494033 0.497497 0.353326
H52   H     H_    0.252639 0.505892 0.431530 0.354633
H53   H     H_    0.126081 0.538808 0.016416 0.403629
H54   H     H_    0.145781 0.458887 0.948979 0.401508
H55   H     H_    0.840596 0.494035 0.997501 0.353412
H56   H     H_    0.752648 0.505893 0.931533 0.354837
H57   H     H_    0.270072 0.317057 0.745829 0.366604
H58   H     H_    0.760110 0.098685 0.060570 0.223258
H59   H     H_    0.272583 0.683732 0.745318 0.351235
H60   H     H_    0.727628 0.316440 0.745184 0.351403
H61   H     H_    0.737730 0.682142 0.745035 0.349972
H62   H     H_    0.770105 0.317035 0.245822 0.366734
H63   H     H_    0.772287 0.683499 0.245391 0.351338
H64   H     H_    0.227637 0.316435 0.245181 0.351143
H65   H     H_    0.237762 0.682141 0.245033 0.349206
H66   H     H_    0.770108 0.817034 0.745822 0.366792
H67   H     H_    0.772287 0.183500 0.745390 0.351415
H68   H     H_    0.227128 0.816512 0.745240 0.351528
H69   H     H_    0.830661 0.901092 0.007483 0.221301
H70   H     H_    0.237773 0.182152 0.745030 0.350015
H71   H     H_    0.270076 0.817040 0.245820 0.366862
H72   H     H_    0.272295 0.183494 0.245393 0.351430
H73   H     H_    0.727647 0.816443 0.245184 0.351456
H74   H     H_    0.737734 0.182141 0.245035 0.350015
H75   H     H_    0.259515 0.341491 0.837070 0.404297
H76   H     H_    0.283585 0.685654 0.877430 0.333014
H77   H     H_    0.716852 0.314539 0.877275 0.326788
H78   H     H_    0.723692 0.682795 0.876309 0.327898
H79   H     H_    0.759586 0.341479 0.337062 0.406101
H80   H     H_    0.169345 0.098692 0.005165 0.218949
H81   H     H_    0.783245 0.685486 0.377473 0.326241
H82   H     H_    0.216853 0.314538 0.377272 0.326785
H83   H     H_    0.223705 0.682792 0.376305 0.327826
H84   H     H_    0.759592 0.841479 0.837062 0.406167
H85   H     H_    0.783254 0.185489 0.877474 0.326261
H86   H     H_    0.216539 0.814472 0.877386 0.326365
H87   H     H_    0.223725 0.182790 0.876297 0.327926
H88   H     H_    0.259566 0.841481 0.337062 0.406168
H89   H     H_    0.283258 0.185489 0.377477 0.326259
H90   H     H_    0.716860 0.814542 0.377273 0.326793
H91   H     H_    0.242863 0.901362 0.060503 0.221654
H92   H     H_    0.723695 0.182795 0.376308 0.327879
H93   H     H_    0.033395 0.206703 0.418634 0.370106
H94   H     H_    0.034801 0.760676 0.406780 0.359299
H95   H     H_    0.965087 0.239530 0.406785 0.360582
H96   H     H_    0.966476 0.793442 0.418610 0.369127
H97   H     H_    0.533395 0.206705 0.918633 0.370108
H98   H     H_    0.534799 0.760755 0.906786 0.359445
H99   H     H_    0.465087 0.239532 0.906784 0.360505
H100  H     H_    0.466480 0.793517 0.918651 0.369013
H101  H     H_    0.533395 0.706701 0.418636 0.370041
H102  H     H_    0.760110 0.598685 0.560570 0.223225
H103  H     H_    0.534801 0.260673 0.406779 0.359349
H104  H     H_    0.465087 0.739527 0.406785 0.360592
H105  H     H_    0.466476 0.293440 0.418608 0.369051
H106  H     H_    0.033394 0.706652 0.918670 0.370694
H107  H     H_    0.034800 0.260739 0.906784 0.359343
H108  H     H_    0.965104 0.739499 0.906798 0.360532
H109  H     H_    0.966478 0.293499 0.918641 0.368870
H110  H     H_    0.255560 0.996954 0.569136 0.354180
H111  H     H_    0.342404 0.002780 0.503838 0.352564
H112  H     H_    0.658197 0.997005 0.501872 0.361791
O1    O     O_3   0.250000 0.250000 0.500010 -0.560913
O2    O     O_R   0.365800 0.772730 0.522760 -0.606257
O3    O     O_R   0.134190 0.227260 0.477280 -0.581638
O4    O     O_R   0.365810 0.772740 0.977280 -0.582248
O5    O     O_R   0.365810 0.227260 0.977280 -0.582149
O6    O     O_R   0.634190 0.772740 0.977280 -0.589668
O7    O     O_R   0.634190 0.227260 0.977280 -0.581652
O8    O     O_3   0.247702 0.099758 0.427606 -0.702444
O9    O     O_3   0.153861 0.900574 0.497852 -0.715022
O10   O     O_3   0.846615 0.099518 0.500635 -0.639116
O11   O     O_3   0.749176 0.900377 0.427209 -0.626896
O12   O     O_3   0.747702 0.099758 0.927606 -0.702448
O13   O     O_R   0.634200 0.227270 0.522760 -0.607160
O14   O     O_3   0.653861 0.900574 0.997852 -0.715054
O15   O     O_3   0.346615 0.099517 0.000633 -0.639112
O16   O     O_3   0.249170 0.900376 0.927209 -0.626936
O17   O     O_3   0.747702 0.599758 0.427606 -0.702562
O18   O     O_3   0.653861 0.400573 0.497852 -0.715136
O19   O     O_3   0.346616 0.599518 0.500635 -0.639314
O20   O     O_3   0.249176 0.400376 0.427209 -0.627359
O21   O     O_3   0.152752 0.601049 0.001491 -0.711272
O22   O     O_3   0.156888 0.400537 0.983460 -0.704391
O23   O     O_3   0.846618 0.599519 0.000637 -0.638778
O24   O     O_R   0.634200 0.772730 0.522760 -0.605688
O25   O     O_3   0.749178 0.400377 0.927210 -0.627013
O26   O     O_3   0.242209 0.018564 0.431196 -0.691161
O27   O     O_3   0.158932 0.981744 0.493559 -0.690268
O28   O     O_3   0.845218 0.022431 0.497023 -0.642028
O29   O     O_3   0.753603 0.977495 0.428109 -0.635136
O30   O     O_3   0.742209 0.018564 0.931196 -0.691158
O31   O     O_3   0.658932 0.981744 0.993558 -0.690279
O32   O     O_3   0.345217 0.022431 0.997020 -0.642045
O33   O     O_3   0.253597 0.977494 0.928108 -0.635133
O34   O     O_3   0.742209 0.518563 0.431197 -0.691309
O35   O     O_R   0.865800 0.227270 0.022760 -0.605411
O36   O     O_3   0.658932 0.481744 0.493559 -0.690399
O37   O     O_3   0.345218 0.522431 0.497023 -0.642295
O38   O     O_3   0.253603 0.477495 0.428108 -0.635883
O39   O     O_3   0.156053 0.521155 0.015034 -0.678270
O40   O     O_3   0.171226 0.477555 0.959357 -0.669234
O41   O     O_3   0.845222 0.522433 0.997026 -0.641870
O42   O     O_3   0.753608 0.477495 0.928110 -0.635204
O43   O     O_3   0.261234 0.320732 0.773413 -0.701942
O44   O     O_3   0.270542 0.680382 0.773690 -0.626239
O45   O     O_3   0.729859 0.319796 0.773541 -0.619428
O46   O     O_R   0.865800 0.772730 0.022760 -0.606340
O47   O     O_3   0.741425 0.678798 0.773312 -0.620814
O48   O     O_3   0.761274 0.320715 0.273406 -0.700347
O49   O     O_3   0.770115 0.680165 0.273759 -0.623895
O50   O     O_3   0.229863 0.319791 0.273538 -0.620231
O51   O     O_3   0.241449 0.678798 0.273311 -0.622489
O52   O     O_3   0.761278 0.820715 0.773407 -0.700167
O53   O     O_3   0.770127 0.180168 0.773759 -0.623669
O54   O     O_3   0.229254 0.819841 0.773605 -0.619341
O55   O     O_3   0.241481 0.178807 0.773306 -0.620685
O56   O     O_3   0.261252 0.820718 0.273406 -0.700149
O57   O     O_R   0.134200 0.227270 0.022760 -0.606888
O58   O     O_3   0.270136 0.180163 0.273762 -0.623664
O59   O     O_3   0.729877 0.819799 0.273540 -0.619231
O60   O     O_3   0.741429 0.178798 0.273312 -0.620701
O61   O     O_3   0.257452 0.318619 0.854289 -0.699329
O62   O     O_3   0.272708 0.680814 0.850428 -0.639038
O63   O     O_3   0.727835 0.319357 0.850289 -0.625915
O64   O     O_3   0.738045 0.678811 0.850086 -0.632458
O65   O     O_3   0.757500 0.318610 0.354282 -0.696491
O66   O     O_3   0.772209 0.680651 0.350506 -0.633153
O67   O     O_3   0.227836 0.319355 0.350286 -0.626245
O68   O     O_R   0.134200 0.772730 0.022760 -0.605441
O69   O     O_3   0.238066 0.678810 0.350085 -0.633146
O70   O     O_3   0.757503 0.818610 0.854282 -0.696400
O71   O     O_3   0.772223 0.180653 0.850506 -0.633018
O72   O     O_3   0.227300 0.819332 0.850358 -0.626171
O73   O     O_3   0.238097 0.178813 0.850079 -0.632420
O74   O     O_3   0.257483 0.818612 0.354282 -0.696388
O75   O     O_3   0.272228 0.180652 0.350509 -0.633016
O76   O     O_3   0.727850 0.819359 0.350289 -0.625775
O77   O     O_3   0.738049 0.178811 0.350086 -0.632449
O78   O     O_3   0.054770 0.226170 0.432227 -0.710956
O79   O     O_R   0.865800 0.727270 0.522760 -0.605486
O80   O     O_3   0.055693 0.766909 0.429953 -0.715536
O81   O     O_3   0.944213 0.233258 0.429957 -0.708992
O82   O     O_3   0.945132 0.773937 0.432209 -0.711959
O83   O     O_3   0.554770 0.226172 0.932226 -0.710970
O84   O     O_3   0.555691 0.766966 0.929965 -0.715409
O85   O     O_3   0.444213 0.233260 0.929956 -0.709133
O86   O     O_3   0.445135 0.773998 0.932229 -0.711568
O87   O     O_3   0.554770 0.726168 0.432228 -0.710947
O88   O     O_3   0.555693 0.266907 0.429953 -0.715522
O89   O     O_3   0.444213 0.733256 0.429958 -0.709047
O90   O     O_R   0.865800 0.272730 0.522760 -0.606277
O91   O     O_3   0.445132 0.273936 0.432208 -0.711971
O92   O     O_3   0.054768 0.726130 0.932249 -0.709798
O93   O     O_3   0.055692 0.266955 0.929963 -0.715710
O94   O     O_3   0.944219 0.733241 0.929969 -0.708649
O95   O     O_3   0.945134 0.273983 0.932224 -0.711968
O96   O     O_3   0.259860 0.025319 0.571272 -0.678341
O97   O     O_3   0.345139 0.974412 0.507175 -0.683894
O98   O     O_3   0.655316 0.025439 0.504292 -0.687132
O99   O     O_3   0.743668 0.974619 0.570902 -0.683087
O100  O     O_3   0.759859 0.025319 0.071272 -0.678347
O101  O     O_R   0.134200 0.727270 0.522760 -0.607188
O102  O     O_3   0.845139 0.974412 0.007175 -0.683895
O103  O     O_3   0.155315 0.025439 0.004293 -0.687110
O104  O     O_3   0.243672 0.974619 0.070902 -0.683077
O105  O     O_3   0.759860 0.525319 0.571272 -0.678513
O106  O     O_3   0.845139 0.474412 0.507175 -0.684083
O107  O     O_3   0.155316 0.525439 0.504292 -0.687423
O108  O     O_3   0.243668 0.474619 0.570902 -0.683699
O109  O     O_3   0.332411 0.526922 0.038336 -0.655038
O110  O     O_3   0.345861 0.472624 0.989032 -0.665282
O111  O     O_3   0.655320 0.525438 0.004294 -0.685569
O112  O     O_3   0.250000 0.750000 0.500010 -0.565801
O113  O     O_R   0.134200 0.272730 0.522760 -0.605714
O114  O     O_3   0.743673 0.474618 0.070904 -0.683138
O115  O     O_R   0.365800 0.727270 0.022760 -0.605703
O116  O     O_R   0.365800 0.272730 0.022760 -0.606695
O117  O     O_R   0.634200 0.727270 0.022760 -0.607019
O118  O     O_R   0.634200 0.272730 0.022760 -0.605667
O119  O     O_R   0.280370 0.336740 0.477280 -0.617686
O120  O     O_R   0.280370 0.663260 0.477280 -0.619918
O121  O     O_R   0.719630 0.336740 0.477280 -0.603377
O122  O     O_R   0.719630 0.663260 0.477280 -0.609871
O123  O     O_R   0.780370 0.336740 0.977280 -0.617716
O124  O     O_3   0.750000 0.250000 0.500010 -0.565821
O125  O     O_R   0.780370 0.663260 0.977280 -0.619780
O126  O     O_R   0.219630 0.336740 0.977280 -0.605343
O127  O     O_R   0.219630 0.663260 0.977280 -0.611995
O128  O     O_R   0.780370 0.836740 0.477280 -0.617648
O129  O     O_R   0.780370 0.163260 0.477280 -0.619848
O130  O     O_R   0.219630 0.836740 0.477280 -0.603356
O131  O     O_R   0.219630 0.163260 0.477280 -0.609851
O132  O     O_R   0.280370 0.836740 0.977280 -0.617979
O133  O     O_R   0.280370 0.163260 0.977280 -0.619808
O134  O     O_R   0.719630 0.836740 0.977280 -0.603360
O135  O     O_3   0.750000 0.750000 0.500010 -0.560939
O136  O     O_R   0.719630 0.163260 0.977280 -0.609859
O137  O     O_R   0.280370 0.272750 0.413290 -0.609821
O138  O     O_R   0.280370 0.727250 0.413290 -0.623244
O139  O     O_R   0.719630 0.272750 0.413290 -0.576524
O140  O     O_R   0.719630 0.727250 0.413290 -0.609353
O141  O     O_R   0.780370 0.272750 0.913290 -0.609804
O142  O     O_R   0.780370 0.727250 0.913290 -0.623185
O143  O     O_R   0.219630 0.272750 0.913290 -0.576577
O144  O     O_R   0.219630 0.727250 0.913290 -0.606254
O145  O     O_R   0.780370 0.772750 0.413290 -0.609788
O146  O     O_3   0.750000 0.250000 0.000010 -0.560943
O147  O     O_R   0.780370 0.227250 0.413290 -0.623209
O148  O     O_R   0.219630 0.772750 0.413290 -0.576519
O149  O     O_R   0.219630 0.227250 0.413290 -0.609351
O150  O     O_R   0.280370 0.772750 0.913290 -0.609494
O151  O     O_R   0.280370 0.227250 0.913290 -0.623236
O152  O     O_R   0.719630 0.772750 0.913290 -0.576514
O153  O     O_R   0.719630 0.227250 0.913290 -0.609350
O154  O     O_R   0.280360 0.227270 0.586740 -0.574787
O155  O     O_R   0.280360 0.772730 0.586740 -0.574501
O156  O     O_R   0.719640 0.227270 0.586740 -0.573805
O157  O     O_3   0.750000 0.750000 0.000010 -0.565895
O158  O     O_R   0.719640 0.772730 0.586740 -0.574351
O159  O     O_R   0.780360 0.227270 0.086740 -0.574795
O160  O     O_R   0.780360 0.772730 0.086740 -0.574593
O161  O     O_R   0.219640 0.227270 0.086740 -0.573783
O162  O     O_R   0.219640 0.772730 0.086740 -0.574719
O163  O     O_R   0.780360 0.727270 0.586740 -0.574820
O164  O     O_R   0.780360 0.272730 0.586740 -0.574597
O165  O     O_R   0.219640 0.727270 0.586740 -0.573809
O166  O     O_R   0.219640 0.272730 0.586740 -0.574431
O167  O     O_R   0.280360 0.727270 0.086740 -0.574693
O168  O     O_3   0.250000 0.250000 0.000010 -0.565665
O169  O     O_R   0.280360 0.272730 0.086740 -0.574550
O170  O     O_R   0.719640 0.727270 0.086740 -0.573811
O171  O     O_R   0.719640 0.272730 0.086740 -0.574378
O172  O     O_R   0.219650 0.336740 0.522750 -0.623949
O173  O     O_R   0.219650 0.663260 0.522750 -0.623246
O174  O     O_R   0.780350 0.336740 0.522750 -0.630254
O175  O     O_R   0.780350 0.663260 0.522750 -0.630595
O176  O     O_R   0.719650 0.336740 0.022750 -0.623826
O177  O     O_R   0.719650 0.663260 0.022750 -0.623104
O178  O     O_R   0.280350 0.336740 0.022750 -0.627715
O179  O     O_3   0.250000 0.750000 0.000010 -0.560404
O180  O     O_R   0.280350 0.663260 0.022750 -0.634069
O181  O     O_R   0.719650 0.836740 0.522750 -0.623870
O182  O     O_R   0.719650 0.163260 0.522750 -0.623204
O183  O     O_R   0.280350 0.836740 0.522750 -0.630191
O184  O     O_R   0.280350 0.163260 0.522750 -0.630559
O185  O     O_R   0.219650 0.836740 0.022750 -0.623403
O186  O     O_R   0.219650 0.163260 0.022750 -0.623236
O187  O     O_R   0.780350 0.836740 0.022750 -0.630238
O188  O     O_R   0.780350 0.163260 0.022750 -0.630545
O189  O     O_R   0.365810 0.272740 0.477280 -0.582718
O190  O     O_R   0.365800 0.227270 0.522760 -0.605462
O191  O     O_R   0.365810 0.727260 0.477280 -0.582177
O192  O     O_R   0.634190 0.272740 0.477280 -0.589671
O193  O     O_R   0.634190 0.727260 0.477280 -0.581667
O194  O     O_R   0.865810 0.272740 0.977280 -0.582742
O195  O     O_R   0.865810 0.727260 0.977280 -0.582015
O196  O     O_R   0.134190 0.272740 0.977280 -0.589763
O197  O     O_R   0.134190 0.727260 0.977280 -0.585873
O198  O     O_R   0.865810 0.772740 0.477280 -0.582676
O199  O     O_R   0.865810 0.227260 0.477280 -0.582144
O200  O     O_R   0.134190 0.772740 0.477280 -0.589646
Zn1   Zn    Zn3+2 0.206630 0.282490 0.532500 1.082804
Zn2   Zn    Zn3+2 0.706630 0.217510 0.532500 1.075096
Zn3   Zn    Zn3+2 0.293370 0.782490 0.532500 1.082942
Zn4   Zn    Zn3+2 0.293370 0.217510 0.532500 1.081970
Zn5   Zn    Zn3+2 0.206630 0.782490 0.032500 1.079552
Zn6   Zn    Zn3+2 0.206630 0.217510 0.032500 1.075671
Zn7   Zn    Zn3+2 0.793370 0.782490 0.032500 1.082823
Zn8   Zn    Zn3+2 0.793370 0.217510 0.032500 1.081989
Zn9   Zn    Zn3+2 0.293390 0.282490 0.467530 1.043036
Zn10  Zn    Zn3+2 0.293390 0.717510 0.467530 1.053302
Zn11  Zn    Zn3+2 0.706610 0.282490 0.467530 1.068745
Zn12  Zn    Zn3+2 0.206630 0.717510 0.532500 1.074943
Zn13  Zn    Zn3+2 0.706610 0.717510 0.467530 1.046910
Zn14  Zn    Zn3+2 0.793390 0.282490 0.967530 1.043037
Zn15  Zn    Zn3+2 0.793390 0.717510 0.967530 1.053663
Zn16  Zn    Zn3+2 0.206610 0.282490 0.967530 1.067315
Zn17  Zn    Zn3+2 0.206610 0.717510 0.967530 1.044737
Zn18  Zn    Zn3+2 0.793390 0.782490 0.467530 1.043170
Zn19  Zn    Zn3+2 0.793390 0.217510 0.467530 1.053480
Zn20  Zn    Zn3+2 0.206610 0.782490 0.467530 1.068782
Zn21  Zn    Zn3+2 0.206610 0.217510 0.467530 1.046977
Zn22  Zn    Zn3+2 0.293390 0.782490 0.967530 1.046548
Zn23  Zn    Zn3+2 0.793370 0.282490 0.532500 1.082844
Zn24  Zn    Zn3+2 0.293390 0.217510 0.967530 1.053184
Zn25  Zn    Zn3+2 0.706610 0.782490 0.967530 1.068803
Zn26  Zn    Zn3+2 0.706610 0.217510 0.967530 1.046973
Zn27  Zn    Zn3+2 0.793370 0.717510 0.532500 1.081902
Zn28  Zn    Zn3+2 0.706630 0.282490 0.032500 1.082982
Zn29  Zn    Zn3+2 0.706630 0.717510 0.032500 1.075303
Zn30  Zn    Zn3+2 0.293370 0.282490 0.032500 1.083406
Zn31  Zn    Zn3+2 0.293370 0.717510 0.032500 1.080384
Zn32  Zn    Zn3+2 0.706630 0.782490 0.532500 1.082976

loop_
_geom_bond_atom_site_label_1
_geom_bond_atom_site_label_2
_ccdc_geom_bond_type
H49   O34   S    
C89   O10   S    
C255  C257  A    
C126  C127  S    
O200  Zn20  S    
C304  F47   S    
H86   O72   S    
C80   O129  A    
C280  C298  A    
C146  O67   S    
C109  O30   S    
C20   O99   S    
O179  Zn31  S    
C175  C207  A    
C110  O31   S    
C86   O136  A    
C222  C242  A    
O124  Zn19  S    
C254  C304  S    
H71   O56   S    
H39   O25   S    
C201  C225  A    
O127  Zn17  S    
C46   C274  S    
C50   H20   S    
H14   O110  S    
C228  O59   S    
O79   Zn27  S    
O7    Zn26  S    
C73   O122  A    
C63   C98   A    
C21   O100  S    
C18   C125  A    
C169  C205  A    
C92   C109  A    
O158  Zn32  S    
H7    O104  S    
C135  C217  A    
O185  Zn5   S    
C94   C111  A    
C272  C281  S    
C155  O160  A    
C122  O42   S    
O129  Zn19  S    
C3    C303  S    
C111  O32   S    
O3    Zn21  S    
C150  C194  S    
C254  C256  A    
C36   C53   A    
C19   C37   A    
C8    F36   S    
C201  C232  A    
C38   C55   A    
O124  Zn2   S    
C170  C187  A    
H82   O67   S    
H95   O81   S    
C231  C236  A    
O113  Zn1   S    
C48   C65   A    
C256  C302  S    
C93   C110  A    
C71   O173  A    
O139  Zn11  S    
H83   O69   S    
H50   O36   S    
C301  O95   S    
C35   C275  S    
C145  C234  S    
C174  C208  A    
C264  C281  A    
C256  C274  A    
C70   O119  A    
C217  O49   S    
H40   O26   S    
H9    O106  S    
C302  C304  S    
C95   O16   S    
H38   O23   S    
C284  C301  A    
O132  Zn22  S    
C96   O17   S    
C257  C275  A    
C65   C77   S    
C258  C276  A    
C165  C183  A    
O128  Zn18  S    
C166  C184  A    
C59   C84   S    
C4    C252  S    
C32   C139  A    
C147  O142  A    
O137  Zn9   S    
C47   C64   A    
H61   O47   S    
H3    O99   S    
C8    C265  S    
C116  C133  A    
O116  Zn30  S    
O146  Zn14  S    
C3    F30   S    
C173  C191  A    
C33   C51   A    
C135  C237  A    
C23   C130  A    
O112  Zn10  S    
C79   O61   S    
C79   C211  A    
C291  O85   S    
C111  C130  A    
C56   C86   S    
C39   C56   A    
C277  C295  A    
C261  O46   A    
C253  C270  A    
C66   C76   S    
O168  Zn16  S    
C69   C74   S    
C168  C220  A    
H107  O93   S    
H74   O60   S    
C17   O96   S    
H104  O89   S    
C179  C221  A    
O142  Zn15  S    
C212  O74   S    
H77   O63   S    
C24   C267  S    
C267  C285  A    
O161  Zn6   S    
C120  C138  A    
C17   C34   A    
C151  O165  A    
H98   O84   S    
C87   O8    S    
C103  C121  A    
O134  Zn25  S    
C118  C136  A    
C71   O120  A    
C101  O63   S    
C36   H25   S    
C266  C284  A    
C263  C265  A    
C2    C269  S    
O188  Zn8   S    
O160  Zn7   S    
C177  C195  A    
O198  Zn18  S    
H65   O51   S    
C182  C199  A    
C45   H13   S    
H60   O45   S    
C120  O40   S    
H81   O66   S    
C139  C140  S    
O179  Zn5   S    
C3    F48   S    
C222  O54   S    
C152  O164  A    
H90   O76   S    
C23   C41   A    
C33   O114  S    
C218  C247  A    
C1    O189  A    
C130  C131  S    
O1    Zn9   S    
H111  O97   S    
C166  C210  A    
C286  C288  A    
C72   O121  A    
O150  Zn22  S    
C48   H18   S    
C42   H91   S    
C287  O81   S    
C262  C279  A    
H48   O33   S    
C216  O48   S    
C112  C278  S    
C7    F52   S    
O181  Zn32  S    
C146  C218  A    
C60   C95   A    
O35   Zn8   S    
C8    C10   S    
C124  O65   S    
C121  O41   S    
H27   O12   S    
C219  C248  A    
C51   C69   A    
O112  Zn3   S    
C185  C197  A    
C224  C238  A    
C175  C193  A    
O155  Zn3   S    
C145  O141  A    
C167  C185  A    
C106  O27   S    
C174  F7    S    
C14   F41   S    
O157  Zn15  S    
O173  Zn12  S    
C82   O131  A    
C258  C260  A    
C295  O88   S    
C118  O38   S    
C210  C248  S    
C93   O14   S    
C165  C209  A    
C128  C129  S    
O1    Zn21  S    
O146  Zn28  S    
C61   C96   A    
C67   C103  A    
C295  C297  A    
O179  Zn17  S    
C72   O174  A    
H8    O105  S    
H41   O27   S    
C106  C125  A    
C105  C123  A    
C98   O19   S    
C188  F21   S    
C29   C47   A    
O112  Zn12  S    
C186  C196  A    
C213  C242  A    
C303  F28   S    
C150  O154  A    
C275  C292  A    
C190  C222  A    
O101  Zn12  S    
C154  C198  S    
C252  C269  A    
C228  C246  A    
C161  F23   S    
C263  C280  A    
C227  O58   S    
C186  F19   S    
O183  Zn3   S    
H33   O19   S    
C110  C129  A    
C141  O137  A    
C158  O167  A    
C85   O187  A    
C5    C253  S    
C294  O198  A    
C78   O181  A    
C296  O89   S    
C14   C262  S    
C76   O126  A    
C30   O109  S    
O57   Zn6   S    
C64   C99   A    
C146  C238  A    
C78   O128  A    
H32   O18   S    
C189  F22   S    
C173  F6    S    
O130  Zn20  S    
H53   O39   S    
C283  O68   A    
C50   C67   A    
C162  C180  A    
C239  O193  A    
O124  Zn23  S    
C285  O78   S    
C229  C245  A    
O157  Zn29  S    
C176  F9    S    
C51   H21   S    
H106  O92   S    
C207  C245  S    
H44   O30   S    
C147  O152  A    
C208  C246  S    
C115  C132  A    
C37   H36   S    
C79   C232  A    
C135  O66   S    
C143  O147  A    
C171  F4    S    
C49   C66   A    
C152  C196  S    
C23   O103  S    
C149  O144  A    
O151  Zn24  S    
H97   O83   S    
C20   C127  A    
C164  C208  A    
C190  C233  A    
C55   C78   S    
C285  C287  A    
C215  O47   S    
C178  C196  A    
O166  Zn1   S    
C149  C233  S    
C90   C233  A    
C7    C251  S    
C124  C236  A    
C143  C236  S    
O178  Zn30  S    
C141  O149  A    
C192  F25   S    
O177  Zn29  S    
C270  C294  S    
C62   C97   A    
C299  C301  A    
C157  C240  A    
C221  O53   S    
C87   C105  A    
O122  Zn13  S    
H51   O37   S    
H28   O14   S    
C100  C119  A    
C11   C264  S    
C21   C128  A    
C213  O44   S    
O149  Zn21  S    
C168  C235  A    
C261  O195  A    
C286  O80   S    
C39   H58   S    
C83   O132  A    
C113  O64   S    
C259  C277  A    
C155  O170  A    
C67   C75   S    
O157  Zn7   S    
C13   C268  S    
C142  O138  A    
C155  C199  S    
C73   O175  A    
C157  O69   S    
H23   O9    S    
C249  C252  A    
C100  O21   S    
C283  O197  A    
C170  C204  A    
C148  O151  A    
C173  C209  A    
C193  F26   S    
H56   O42   S    
C11   F57   S    
C77   O180  A    
C2    O90   A    
C226  C248  A    
H70   O55   S    
C223  C277  S    
C57   C273  S    
C189  C202  A    
C151  O155  A    
C183  C200  A    
C279  C297  A    
C68   O7    A    
C159  C176  A    
C117  O37   S    
C121  C139  A    
H100  O86   S    
C44   H2    S    
C191  C200  A    
H101  O87   S    
C32   O111  S    
H43   O29   S    
C165  F62   S    
O1    Zn4   S    
H42   O28   S    
C2    O199  A    
O143  Zn16  S    
C271  C289  A    
C16   F61   S    
O135  Zn32  S    
O121  Zn11  S    
C112  O2    A    
C227  C247  A    
H67   O53   S    
C4    F31   S    
H72   O58   S    
H34   O20   S    
H15   O111  S    
C230  C237  A    
H16   O114  S    
C205  C243  S    
C28   O107  S    
C92   O12   S    
C82   O184  A    
C174  C192  A    
C239  O24   A    
H84   O70   S    
O141  Zn14  S    
H85   O71   S    
C141  C238  S    
C112  O191  A    
C68   O118  A    
C114  C131  A    
H63   O49   S    
C250  O194  A    
C280  C283  S    
C161  C205  A    
C228  C230  A    
C225  O55   S    
O13   Zn2   S    
C226  O56   S    
C75   O177  A    
C5    F32   S    
C80   O182  A    
C294  O79   A    
O172  Zn1   S    
C104  C122  A    
C171  C188  A    
O168  Zn24  S    
C28   C134  A    
C58   C93   A    
C31   C49   A    
C169  C186  A    
C293  C296  A    
C98   C117  A    
H45   O31   S    
C221  C243  A    
C211  O43   S    
C60   C83   S    
C123  C125  S    
C163  C181  A    
C178  F11   S    
O179  Zn22  S    
C225  C241  A    
C193  C198  A    
C191  F24   S    
C19   O98   S    
C53   C81   S    
C151  C195  S    
C66   C102  A    
C55   C91   A    
C162  F34   S    
C41   H80   S    
C175  F8    S    
C115  O34   S    
H24   O10   S    
C148  C232  S    
C59   C94   A    
H22   O8    S    
C27   O106  S    
O168  Zn30  S    
C212  C226  A    
C6    F51   S    
O133  Zn24  S    
O146  Zn8   S    
O68   Zn5   S    
H29   O15   S    
C30   C137  A    
C162  C206  A    
C15   F42   S    
C12   F58   S    
C84   O133  A    
H26   O11   S    
O126  Zn16  S    
C150  O166  A    
C179  C234  A    
O2    Zn3   S    
C302  F27   S    
C265  C282  A    
C54   C80   S    
O162  Zn5   S    
C230  O76   S    
C114  O33   S    
O168  Zn6   S    
H57   O43   S    
O195  Zn15  S    
C293  O87   S    
C167  C206  A    
C94   O15   S    
C142  C240  S    
C40   C58   A    
C5    F50   S    
C16   F43   S    
C4    C6    S    
C156  O161  A    
C270  C288  A    
C5    C7    S    
C13   O200  A    
H62   O48   S    
C61   C73   S    
C216  C245  A    
C81   O183  A    
C77   O127  A    
C43   C61   A    
O4    Zn22  S    
C214  C243  A    
H88   O74   S    
C304  F29   S    
C190  O72   S    
C24   O113  A    
H55   O41   S    
H93   O78   S    
O124  Zn11  S    
C108  O29   S    
O119  Zn9   S    
O148  Zn20  S    
C109  C128  A    
C204  C242  S    
C12   C15   S    
O157  Zn25  S    
C101  C214  A    
C89   C107  A    
C215  C244  A    
H59   O44   S    
C25   O104  S    
C217  C246  A    
C97   C116  A    
O120  Zn10  S    
C49   H19   S    
C212  C240  A    
C15   C258  S    
C68   C271  S    
C142  O148  A    
H6    O103  S    
O117  Zn29  S    
H76   O62   S    
C38   H47   S    
C154  O159  A    
C163  F45   S    
C22   C129  A    
C206  C244  S    
H78   O64   S    
C273  C290  A    
C144  O140  A    
C224  C227  A    
O153  Zn26  S    
H103  O88   S    
C102  C120  A    
O171  Zn28  S    
H99   O85   S    
C154  O171  A    
C137  C138  S    
H66   O52   S    
O159  Zn8   S    
C113  C235  A    
C223  O192  A    
C14   F59   S    
O146  Zn26  S    
C6    C249  S    
C9    F37   S    
C250  C284  S    
C91   C108  A    
C119  O39   S    
C65   C100  A    
C11   F39   S    
H64   O50   S    
C25   C42   A    
C160  C204  A    
C259  C262  A    
O180  Zn31  S    
C1    C279  S    
C83   O185  A    
C172  C189  A    
H89   O75   S    
C292  O86   S    
C158  O162  A    
C181  F14   S    
C19   C126  A    
C34   C52   A    
O5    Zn24  S    
C183  F16   S    
C229  C231  A    
O199  Zn19  S    
H12   O109  S    
H94   O80   S    
C276  C293  A    
O125  Zn15  S    
O190  Zn4   S    
O182  Zn2   S    
C13   O101  A    
H11   O108  S    
C211  C241  A    
O184  Zn4   S    
C163  C207  A    
C167  F64   S    
C144  C237  S    
C20   C38   A    
C171  C203  A    
H46   O32   S    
C160  C177  A    
C164  C182  A    
C160  F12   S    
C9    C266  S    
C122  C140  A    
C169  F2    S    
C29   C136  A    
O1    Zn1   S    
O169  Zn30  S    
C264  C266  A    
C223  O13   A    
O123  Zn14  S    
C143  O139  A    
O135  Zn13  S    
C176  C194  A    
C161  C178  A    
C18   C36   A    
C251  C268  A    
C22   O102  S    
C90   C213  A    
C85   O134  A    
C214  O45   S    
C147  C235  S    
C15   F60   S    
O187  Zn7   S    
C70   O172  A    
H37   O22   S    
C254  C271  A    
C231  O77   S    
C164  F56   S    
O167  Zn31  S    
C281  C299  A    
C219  O51   S    
C282  C300  A    
C29   O108  S    
C18   O97   S    
H30   O16   S    
C220  C244  A    
C10   C263  S    
O46   Zn7   S    
C255  C273  A    
C144  O145  A    
C1    O190  A    
O194  Zn14  S    
C172  C210  A    
C288  O82   S    
C46   O5    A    
C251  C253  A    
C302  F44   S    
C81   O130  A    
O145  Zn18  S    
C33   C140  A    
C157  C219  A    
C26   O105  S    
C260  C278  A    
C299  O93   S    
C257  C303  S    
C40   H69   S    
C192  C199  A    
C272  O57   A    
C86   O188  A    
C10   F38   S    
C180  C197  A    
O118  Zn28  S    
C166  F63   S    
C179  O71   S    
C17   C123  A    
H5    O102  S    
C57   O117  A    
C132  C133  S    
H52   O38   S    
C30   C48   A    
C153  O158  A    
H87   O73   S    
C96   C115  A    
C149  O150  A    
C104  O25   S    
C64   C70   S    
C289  O83   S    
C148  O143  A    
C274  C291  A    
C209  C247  S    
C168  O70   S    
H112  O98   S    
O175  Zn27  S    
C239  C276  S    
C57   O6    A    
H105  O91   S    
C156  C200  S    
O135  Zn18  S    
C84   O186  A    
C181  C198  A    
C27   C44   A    
C145  O153  A    
C26   C43   A    
C268  C286  A    
C180  F13   S    
H109  O95   S    
H110  O96   S    
C28   C45   A    
C101  C234  A    
C184  C202  A    
C182  F15   S    
O186  Zn6   S    
C184  F17   S    
C119  C137  A    
O6    Zn25  S    
C103  O23   S    
C41   C59   A    
C54   C89   A    
H68   O54   S    
C42   C60   A    
O144  Zn17  S    
O131  Zn21  S    
C16   C259  S    
C35   O115  A    
C88   C106  A    
O90   Zn23  S    
C134  C136  S    
C44   C62   A    
O176  Zn28  S    
C43   H102  S    
C172  F5    S    
C45   C63   A    
C35   O4    A    
C117  C134  A    
C31   C138  A    
H96   O82   S    
C74   O123  A    
C7    F35   S    
O135  Zn27  S    
O192  Zn11  S    
C249  C267  A    
O196  Zn16  S    
C220  O52   S    
H73   O59   S    
C159  C203  A    
C21   C39   A    
C152  O156  A    
C170  F3    S    
C22   C40   A    
H31   O17   S    
O112  Zn20  S    
C62   C72   S    
O189  Zn9   S    
C272  O196  A    
C34   H1    S    
C52   C82   S    
C88   O9    S    
C9    C11   S    
O164  Zn23  S    
C32   C50   A    
C107  O28   S    
C47   H17   S    
C46   O116  A    
C37   C54   A    
C10   F55   S    
O24   Zn32  S    
C159  F1    S    
C105  O26   S    
O154  Zn4   S    
C95   C114  A    
C158  C202  S    
C14   C16   S    
C113  C215  A    
O191  Zn10  S    
O115  Zn31  S    
C25   C131  A    
C58   C85   S    
C91   O11   S    
C26   C132  A    
C75   O125  A    
C31   O110  S    
O147  Zn19  S    
C124  C216  A    
C69   C104  A    
C99   O20   S    
H79   O65   S    
C74   O176  A    
C250  O35   A    
H4    O100  S    
O136  Zn26  S    
H54   O40   S    
C187  C195  A    
C97   O18   S    
C290  O84   S    
C269  C287  A    
C52   C87   A    
C177  F10   S    
C107  C126  A    
C63   C71   S    
C9    F54   S    
H108  O94   S    
C224  O75   S    
H10   O107  S    
C90   O62   S    
O165  Zn12  S    
O163  Zn27  S    
C203  C241  S    
C187  F20   S    
C24   O3    A    
C8    F53   S    
C185  F18   S    
O152  Zn25  S    
C116  O36   S    
C298  C300  A    
C218  O50   S    
C6    F33   S    
C4    F49   S    
C99   C118  A    
H75   O61   S    
C102  O22   S    
O174  Zn23  S    
C289  C291  A    
C303  F46   S    
O138  Zn10  S    
C53   C88   A    
C290  C292  A    
C278  C296  A    
C108  C127  A    
O193  Zn13  S    
O140  Zn13  S    
H35   O21   S    
C3    C255  S    
O197  Zn17  S    
C12   F40   S    
C188  C194  A    
C261  C282  S    
C153  O163  A    
O170  Zn29  S    
C56   C92   A    
O156  Zn2   S    
C297  O91   S    
C76   O178  A    
C27   C133  A    
C298  O92   S    
C12   C260  S    
C229  O60   S    
C300  O94   S    
C201  O73   S    
C156  O169  A    
H92   O77   S    
C153  C197  S    
