data_mof_unit_68194.cif
_audit_creation_date              2013-03-05T16:03:14-0500
_audit_creation_method            fapswitch 2.2
_symmetry_space_group_name_H-M    P1
_symmetry_Int_Tables_number       1
_space_group_crystal_system       triclinic
_cell_length_a                    7.054257
_cell_length_b                    14.225708
_cell_length_c                    16.823617
_cell_angle_alpha                 90.57073
_cell_angle_beta                  91.185059
_cell_angle_gamma                 91.71558
_cell_volume                      1687.06799063

loop_
_atom_site_label
_atom_site_type_symbol
_atom_site_description
_atom_site_fract_x
_atom_site_fract_y
_atom_site_fract_z
_atom_type_partial_charge
O1    O     O_R   0.361630 0.167340 0.164570 -0.536534
O2    O     O_R   0.638370 0.832660 0.835430 -0.552858
O3    O     O_R   0.690860 0.157560 0.338690 -0.589632
O4    O     O_R   0.309140 0.842440 0.661310 -0.584308
O5    O     O_R   0.861260 0.336420 0.339380 -0.583781
O6    O     O_R   0.138740 0.663580 0.660620 -0.581539
C1    C     C_R   0.521213 0.135435 0.368328 1.037309
C2    C     C_R   0.479637 0.864621 0.631862 1.063857
O7    O     O_R   0.691330 0.156310 0.165190 -0.573313
O8    O     O_R   0.308670 0.843690 0.834810 -0.563902
O9    O     O_R   0.861730 0.335160 0.164640 -0.576906
O10   O     O_R   0.138270 0.664840 0.835360 -0.566290
C3    C     C_R   0.519373 0.135010 0.136167 1.077469
C4    C     C_R   0.479055 0.864080 0.865012 1.110162
O11   O     O_R   0.361150 0.168600 0.339320 -0.550971
O12   O     O_R   0.638850 0.831400 0.660680 -0.563297
O13   O     O_3   0.527950 0.310560 0.252000 -0.256126
O14   O     O_3   0.472050 0.689440 0.748000 -0.251627
V1    V     V_3+5 0.802770 0.240990 0.251980 1.291223
V2    V     V_3+5 0.197230 0.759010 0.748020 1.291525
O15   O     O_R   0.191450 0.346190 0.165260 -0.561272
O16   O     O_R   0.808550 0.653810 0.834740 -0.564957
C5    C     C_R   0.022494 0.368803 0.136836 0.995744
C6    C     C_R   0.978348 0.629713 0.862104 0.977491
O17   O     O_R   0.190980 0.347440 0.338770 -0.570210
O18   O     O_R   0.809020 0.652560 0.661230 -0.578388
C7    C     C_R   0.026304 0.375752 0.363370 1.025055
C8    C     C_R   0.973636 0.624639 0.635974 1.001369
V3    V     V_3+5 0.302780 0.262760 0.251980 1.318816
V4    V     V_3+5 0.697220 0.737240 0.748020 1.309165
O19   O     O_3   0.027730 0.193200 0.251960 -0.242201
O20   O     O_3   0.972270 0.806800 0.748040 -0.252435
C9    C     C_3   0.837771 0.487457 0.459152 0.238182
C10   C     C_3   0.162578 0.516687 0.537122 0.234101
C11   C     C_3   0.878812 0.450837 0.543443 0.319745
C12   C     C_3   0.121283 0.552556 0.452630 0.334199
C13   C     C_3   0.971818 0.550598 0.566605 -0.317184
C14   C     C_3   0.028453 0.452884 0.429992 -0.312479
C15   C     C_3   0.926789 0.584314 0.481849 -0.294708
C16   C     C_3   0.073939 0.420304 0.514419 -0.293355
H1    H     H_    0.851732 0.647744 0.466635 0.226871
H2    H     H_    0.151541 0.357451 0.528599 0.231791
C17   C     C_R   0.936390 0.697393 0.032235 0.063592
C18   C     C_R   0.030865 0.302734 0.963765 0.058069
C19   C     C_R   0.878137 0.722004 0.108971 0.132470
C20   C     C_R   0.039107 0.277890 0.882311 0.137491
C21   C     C_R   0.869922 0.653251 0.166857 0.246525
C22   C     C_R   0.071787 0.348553 0.827282 0.206015
C23   C     C_R   0.959024 0.568989 0.155310 0.005989
C24   C     C_R   0.107801 0.439883 0.851544 0.036759
C25   C     C_R   0.981133 0.533893 0.078150 0.006175
C26   C     C_R   0.041537 0.469827 0.924390 -0.004812
C27   C     C_R   0.967283 0.599597 0.013243 0.027596
C28   C     C_R   0.027458 0.401460 0.986571 0.026379
C29   C     C_R   0.012535 0.435192 0.066311 -0.143762
C30   C     C_R   0.995020 0.566180 0.934442 -0.143376
C31   C     C_3   0.429351 0.960485 0.433150 -0.344900
C32   C     C_3   0.577079 0.040193 0.568146 -0.333061
C33   C     C_3   0.603690 0.925653 0.481132 0.269238
C34   C     C_3   0.402825 0.074756 0.519461 0.278556
H3    H     H_    0.358167 0.926592 0.381992 0.226676
H4    H     H_    0.651873 0.073235 0.620073 0.235147
C35   C     C_3   0.498926 0.936467 0.561561 -0.465895
C36   C     C_3   0.506401 0.063810 0.439221 -0.454322
C37   C     C_3   0.329216 0.972053 0.513170 0.590512
C38   C     C_3   0.676544 0.028550 0.487654 0.593962
C39   C     C_R   0.534111 0.198766 0.970300 0.120160
C40   C     C_R   0.423357 0.805397 0.032950 0.129837
C41   C     C_R   0.547710 0.228324 0.893296 -0.248948
C42   C     C_R   0.357917 0.779675 0.106917 -0.251051
C43   C     C_R   0.536340 0.165842 0.831304 0.198887
C44   C     C_R   0.332392 0.845990 0.165004 0.231911
C45   C     C_R   0.518579 0.068971 0.842641 0.443004
C46   C     C_R   0.382476 0.939759 0.153614 0.429898
C47   C     C_R   0.512247 0.033119 0.921396 0.018740
C48   C     C_R   0.442874 0.971211 0.077807 0.002512
C49   C     C_R   0.517805 0.100048 0.987364 0.004979
C50   C     C_R   0.453408 0.902888 0.013713 0.011638
C51   C     C_R   0.490546 0.933653 0.934657 -0.183920
C52   C     C_R   0.497318 0.067541 0.066311 -0.170769
H5    H     H_    0.563276 0.302534 0.880493 0.206857
H6    H     H_    0.326880 0.706576 0.120134 0.203615
I1    I     I_    0.709491 0.325411 0.552498 -0.282448
I2    I     I_    0.306665 0.671136 0.435280 -0.275043
O21   O     O_3   0.142213 0.943433 0.526570 -0.639300
H7    H     H_    0.143476 0.873834 0.526237 0.333516
O22   O     O_3   0.862875 0.057282 0.473563 -0.636357
H8    H     H_    0.859358 0.126703 0.470755 0.336581
I3    I     I_    0.212483 0.803824 0.270636 -0.234451
I4    I     I_    0.550085 0.227258 0.722292 -0.254205
I5    I     I_    0.522071 0.322028 0.043566 -0.321506
I6    I     I_    0.476302 0.682312 0.966154 -0.328421
O23   O     O_3   0.507207 0.009732 0.777235 -0.776825
H9    H     H_    0.437039 0.040598 0.733711 0.338460
O24   O     O_3   0.369887 0.999970 0.217345 -0.739957
H10   H     H_    0.448548 0.973716 0.260694 0.310508
I7    I     I_    0.576617 0.471663 0.392031 -0.207068
I8    I     I_    0.423841 0.523252 0.604052 -0.217901
I9    I     I_    0.072895 0.326511 0.705929 -0.237800
I10   I     I_    0.715847 0.670916 0.270507 -0.206993
I11   I     I_    0.975818 0.816481 0.955684 -0.274778
I12   I     I_    0.017070 0.183190 0.040658 -0.274515
I13   I     I_    0.831953 0.865173 0.144726 -0.309765
I14   I     I_    0.026094 0.134455 0.839266 -0.285302
I15   I     I_    0.176182 0.545764 0.240142 -0.275440
I16   I     I_    0.384972 0.486988 0.822390 -0.234600
I17   I     I_    0.794699 0.830388 0.436813 -0.233041
I18   I     I_    0.210637 0.174509 0.550350 -0.237520

loop_
_geom_bond_atom_site_label_1
_geom_bond_atom_site_label_2
_geom_bond_distance
_ccdc_geom_bond_type
C32   H4    1.104716 S    
V4    O20   2.151477 S    
O22   H8    0.990195 S    
C35   C37   1.535082 S    
O23   H9    0.989142 S    
C10   C13   1.533388 S    
O13   V3    1.709012 S    
O24   H10   0.990118 S    
C39   C49   1.437884 A    
C45   O23   1.378856 S    
C6    C30   1.527782 S    
O4    C2    1.340372 A    
V1    O19   1.745034 S    
C21   C23   1.383901 A    
O21   H7    0.990371 S    
O9    V1    2.039070 S    
C9    C15   1.538323 S    
C46   C48   1.425028 A    
C10   C16   1.531391 S    
C11   C13   1.587131 S    
C48   C50   1.449024 A    
O3    C1    1.336077 A    
C33   C38   1.538909 S    
C9    C11   1.540433 S    
C31   C33   1.553395 S    
C7    C14   1.560200 S    
O12   V4    2.042072 S    
O14   V2    2.202894 S    
O7    V1    2.015407 S    
C41   C43   1.363080 A    
O7    C3    1.323707 A    
C19   I13   2.153938 S    
C10   I8    2.138947 S    
O5    C7    1.329864 A    
C17   C27   1.448186 A    
O6    C8    1.331204 A    
C40   I6    2.117907 S    
C18   C20   1.414570 A    
C23   C25   1.399572 A    
C24   C26   1.388202 A    
O3    V1    2.045942 S    
O14   V4    1.709012 S    
C10   C12   1.540130 S    
C34   I18   2.061912 S    
C22   C24   1.372787 A    
C3    C52   1.512492 S    
C2    O12   1.316675 A    
O17   V3    2.067501 S    
C45   C47   1.425533 A    
C42   H6    1.082465 S    
C39   I5    2.138096 S    
C26   C28   1.438358 A    
O11   V3    2.042072 S    
C32   C34   1.557632 S    
C19   C21   1.387895 A    
C40   C50   1.437802 A    
C20   C22   1.390756 A    
C44   C46   1.385850 A    
O8    C4    1.318288 A    
O8    V2    2.015408 S    
C38   O22   1.390556 S    
C43   C45   1.395349 A    
C18   I12   2.148037 S    
C50   C51   1.431168 A    
C23   I15   2.107600 S    
C1    O11   1.322636 A    
C20   I14   2.157071 S    
C33   I17   2.082981 S    
C21   I10   2.090741 S    
C39   C41   1.370357 A    
C36   C38   1.536174 S    
C17   I11   2.153154 S    
C47   C49   1.454186 A    
O10   V2    2.039069 S    
O1    V3    2.048580 S    
C4    C51   1.525496 S    
C5    C29   1.525603 S    
C17   C19   1.406991 A    
C40   C42   1.384997 A    
C34   C37   1.537743 S    
O18   V4    2.067503 S    
O15   C5    1.324809 A    
O16   C6    1.330071 A    
O1    C3    1.313904 A    
C31   C36   1.553458 S    
C32   C38   1.547680 S    
V2    O20   1.745033 S    
C27   C30   1.423216 A    
C32   C35   1.561752 S    
C22   I9    2.062662 S    
C28   C29   1.427261 A    
C11   I1    2.125761 S    
O16   V4    2.048614 S    
C33   C35   1.563574 S    
C46   O24   1.371614 S    
C12   C15   1.545556 S    
C48   C52   1.428160 A    
C31   C37   1.542799 S    
C16   H2    1.088218 S    
C31   H3    1.088457 S    
O5    V1    2.019117 S    
O17   C7    1.314363 A    
O6    V2    2.019119 S    
O10   C6    1.310168 A    
O18   C8    1.315847 A    
C9    C14   1.534276 S    
O2    V4    2.048577 S    
C34   C36   1.556854 S    
C12   C14   1.583558 S    
C11   C16   1.543095 S    
V3    O19   2.151478 S    
C37   O21   1.392394 S    
C14   C16   1.529185 S    
C44   I3    2.070378 S    
C49   C52   1.419490 A    
C43   I4    2.042156 S    
O15   V3    2.048614 S    
C8    C13   1.563847 S    
C12   I2    2.129431 S    
O9    C5    1.314487 A    
O13   V1    2.202894 S    
C25   C29   1.440517 A    
O2    C4    1.326380 A    
C1    C36   1.579435 S    
C41   H5    1.082356 S    
C2    C35   1.576184 S    
O4    V2    2.045946 S    
C18   C28   1.453240 A    
C15   H1    1.089801 S    
C13   C15   1.538891 S    
C24   I16   2.116678 S    
C42   C44   1.369829 A    
C9    I7    2.145601 S    
C25   C27   1.448092 A    
C47   C51   1.438790 A    
C26   C30   1.428173 A    
