data_mof_unit_51547.cif
_audit_creation_date              2012-12-11T17:09:37-0500
_audit_creation_method            fapswitch 2.2
_symmetry_space_group_name_H-M    P1
_symmetry_Int_Tables_number       1
_space_group_crystal_system       triclinic
_cell_length_a                    14.804174
_cell_length_b                    6.945707
_cell_length_c                    13.492372
_cell_angle_alpha                 89.924369
_cell_angle_beta                  99.784473
_cell_angle_gamma                 90.088661
_cell_volume                      1367.17632226

loop_
_atom_site_label
_atom_site_type_symbol
_atom_type_description
_atom_site_fract_x
_atom_site_fract_y
_atom_site_fract_z
_atom_type_partial_charge
O1    O     O_R   0.586930 0.505770 0.416350 -0.536356
O2    O     O_R   0.413070 0.005770 0.583650 -0.535829
O3    O     O_R   0.397900 0.173100 0.389630 -0.537122
O4    O     O_R   0.602100 0.673100 0.610370 -0.534124
C1    C     C_R   0.364296 0.345379 0.362903 0.724431
C2    C     C_R   0.635664 0.845422 0.637159 0.731166
O5    O     O_R   0.585280 0.175870 0.404330 -0.542917
O6    O     O_R   0.414720 0.675870 0.595670 -0.547726
O7    O     O_R   0.601790 0.008380 0.598460 -0.535779
O8    O     O_R   0.398210 0.508380 0.401540 -0.536309
C3    C     C_R   0.614463 0.344703 0.382950 0.729401
C4    C     C_R   0.385345 0.844613 0.617191 0.728213
O9    O     O_3   0.505200 0.340120 0.563670 -0.370001
O10   O     O_3   0.494800 0.840120 0.436330 -0.370930
V1    V     V_3+5 0.499040 0.064180 0.488190 1.441657
V2    V     V_3+5 0.500960 0.564180 0.511810 1.440209
C5    C     C_R   0.314354 0.010580 0.750605 -0.022840
C6    C     C_R   0.667927 0.452620 0.224898 -0.014909
C7    C     C_R   0.317401 0.853157 0.686149 -0.149836
C8    C     C_R   0.683016 0.351184 0.315378 -0.158084
C9    C     C_R   0.246737 0.715225 0.679605 -0.148412
C10   C     C_R   0.764680 0.243479 0.336845 -0.123597
H1    H     H_    0.242498 0.601906 0.623923 0.152054
H2    H     H_    0.777278 0.155477 0.404146 0.145547
C11   C     C_R   0.174793 0.735068 0.735392 0.494448
C12   C     C_R   0.833867 0.258197 0.276220 0.444374
C13   C     C_R   0.179344 0.879511 0.809917 -0.183089
C14   C     C_R   0.819630 0.377491 0.188348 -0.194267
C15   C     C_R   0.245052 0.024112 0.810067 -0.085832
C16   C     C_R   0.733349 0.464275 0.163287 0.082986
C17   C     C_3   0.223512 0.224534 0.772243 0.735443
C18   C     C_3   0.699715 0.658048 0.124925 0.635761
C19   C     C_3   0.304528 0.216003 0.717777 -0.442499
C20   C     C_3   0.627479 0.644081 0.193779 -0.459921
H3    H     H_    0.364222 0.304286 0.752677 0.148905
H4    H     H_    0.556009 0.631275 0.152621 0.160077
H5    H     H_    0.285972 0.233598 0.634871 0.187400
H6    H     H_    0.637259 0.749479 0.256689 0.195206
C21   C     C_1   0.783442 0.877098 0.782948 -0.148274
C22   C     C_1   0.216484 0.377144 0.217166 -0.170636
C23   C     C_1   0.716140 0.860119 0.716870 -0.160342
C24   C     C_1   0.283786 0.360076 0.283237 -0.170869
O11   O     O_R   0.101720 0.231700 0.098560 -0.545771
O12   O     O_R   0.898280 0.731700 0.901440 -0.535881
O13   O     O_R   0.914700 0.558980 0.095690 -0.510364
O14   O     O_R   0.085300 0.058980 0.904310 -0.514095
C25   C     C_R   0.886368 0.389777 0.118214 0.720329
C26   C     C_R   0.112955 0.890003 0.880863 0.696007
O15   O     O_R   0.102080 0.561590 0.110390 -0.541794
O16   O     O_R   0.897920 0.061590 0.889610 -0.535054
O17   O     O_R   0.086950 0.728940 0.916330 -0.535006
O18   O     O_R   0.913050 0.228940 0.083670 -0.526404
C27   C     C_R   0.136014 0.391943 0.137460 0.713099
C28   C     C_R   0.863938 0.891910 0.862604 0.758320
O19   O     O_3   0.994770 0.394510 0.936380 -0.355721
O20   O     O_3   0.005230 0.894510 0.063620 -0.359008
V3    V     V_3+5 0.000970 0.670520 0.011800 1.570101
V4    V     V_3+5 0.999030 0.170520 0.988200 1.576900
O21   O     O_3   0.096969 0.626332 0.706642 -0.580034
H7    H     H_    0.044334 0.687080 0.730834 0.295945
O22   O     O_3   0.914524 0.159640 0.308347 -0.605628
H8    H     H_    0.962318 0.205028 0.270790 0.285487
O23   O     O_3   0.230776 0.363344 0.849025 -0.628177
H9    H     H_    0.289230 0.341751 0.895988 0.253428
O24   O     O_3   0.662065 0.652012 0.022417 -0.647559
H10   H     H_    0.631785 0.778264 0.006419 0.298032
Cl1   Cl    Cl    0.116123 0.232431 0.687139 -0.587182
Cl2   Cl    Cl    0.780448 0.848748 0.156697 -0.656747

loop_
_geom_bond_atom_site_label_1
_geom_bond_atom_site_label_2
_ccdc_geom_bond_type
C13   C26   S    
O4    V2    S    
O5    C3    A    
C1    C24   S    
C17   C19   S    
C14   C25   S    
O19   V3    S    
C25   O18   A    
C6    C16   A    
C17   O23   S    
C11   C13   A    
C5    C15   A    
C12   C14   A    
O1    C3    A    
O6    C4    A    
O12   V3    S    
C18   Cl2   S    
O2    C4    A    
C2    O7    A    
O5    V1    S    
O7    V1    S    
O15   V3    S    
C1    O8    A    
C15   C17   S    
O1    V2    S    
O8    V2    S    
O14   V4    S    
C16   C18   S    
O2    V1    S    
C6    C20   S    
C19   H3    S    
O13   V3    S    
O16   C28   A    
O13   C25   A    
C5    C19   S    
O15   C27   A    
C4    C7    S    
C14   C16   A    
C7    C9    A    
C12   O22   S    
O20   V4    S    
O24   H10   S    
C20   H4    S    
O9    V1    S    
C9    H1    S    
O22   H8    S    
O18   V4    S    
O10   V2    S    
C3    C8    S    
O19   V4    S    
C21   C28   S    
C13   C15   A    
C17   Cl1   S    
O4    C2    A    
O23   H9    S    
O16   V4    S    
O14   C26   A    
O12   C28   A    
O17   V3    S    
O21   H7    S    
O3    V1    S    
O20   V3    S    
C6    C8    A    
C21   C23   T    
C22   C27   S    
C10   C12   A    
O9    V2    S    
C9    C11   A    
O10   V1    S    
C18   O24   S    
O6    V2    S    
C11   O21   S    
O11   V4    S    
C5    C7    A    
C20   H6    S    
O11   C27   A    
C26   O17   A    
C19   H5    S    
C10   H2    S    
C8    C10   A    
C22   C24   T    
O3    C1    A    
C2    C23   S    
C18   C20   S    
