data_mof_unit_33551.cif
_audit_creation_date              2012-12-11T15:41:18-0500
_audit_creation_method            fapswitch 2.2
_symmetry_space_group_name_H-M    P1
_symmetry_Int_Tables_number       1
_space_group_crystal_system       triclinic
_cell_length_a                    14.81089
_cell_length_b                    15.123063
_cell_length_c                    15.171345
_cell_angle_alpha                 109.583364
_cell_angle_beta                  109.982359
_cell_angle_gamma                 109.214873
_cell_volume                      2603.9109517

loop_
_atom_site_label
_atom_site_type_symbol
_atom_type_description
_atom_site_fract_x
_atom_site_fract_y
_atom_site_fract_z
_atom_type_partial_charge
C1    C     C_R   0.194182 0.994541 0.904084 -0.257510
C2    C     C_R   0.745288 0.931773 0.019819 -0.255360
C3    C     C_R   0.868539 0.305004 0.303057 0.149211
C4    C     C_R   0.226315 0.674737 0.676875 0.128125
C5    C     C_R   0.505543 0.013306 0.325594 0.096340
C6    C     C_R   0.500028 0.068522 0.703783 0.156575
C7    C     C_R   0.493549 0.319246 0.044102 0.057479
C8    C     C_R   0.504397 0.695199 0.052308 0.082812
C9    C     C_R   0.187205 0.142273 0.710792 0.512189
C10   C     C_R   0.850458 0.887275 0.346335 0.548853
C11   C     C_R   0.288090 0.237658 0.795769 0.484470
C12   C     C_R   0.743886 0.798182 0.298000 0.464155
C13   C     C_R   0.289518 0.312226 0.884080 -0.146580
C14   C     C_R   0.707966 0.699681 0.207854 -0.169678
C15   C     C_R   0.188123 0.300040 0.875359 -0.252314
C16   C     C_R   0.782591 0.687068 0.174531 -0.190403
C17   C     C_R   0.087873 0.212912 0.784911 -0.048200
C18   C     C_R   0.890609 0.772042 0.227508 -0.095658
C19   C     C_R   0.086771 0.132882 0.704588 -0.327436
C20   C     C_R   0.924762 0.871586 0.312432 -0.423072
C21   C     C_R   0.403154 0.506710 0.990899 -0.323551
C22   C     C_R   0.578276 0.513445 0.144019 -0.306599
C23   C     C_R   0.805106 0.211390 0.300324 -0.167686
C24   C     C_R   0.252466 0.776798 0.687202 -0.155188
C25   C     C_R   0.501761 0.604900 0.067133 0.079136
C26   C     C_R   0.484061 0.414264 0.059703 0.068291
C27   C     C_R   0.592411 0.608572 0.144040 0.168236
C28   C     C_R   0.393765 0.410495 0.981478 0.136885
C29   C     C_R   0.044419 0.479567 0.380798 0.655404
C30   C     C_R   0.133205 0.470970 0.570582 0.655492
C31   C     C_R   0.134414 0.572276 0.476648 -0.413001
C32   C     C_R   0.037565 0.381301 0.477726 -0.409979
C33   C     C_R   0.170109 0.571867 0.574603 -0.116383
C34   C     C_R   0.985609 0.387904 0.385600 -0.114439
C35   C     C_R   0.593008 0.063858 0.603159 -0.470374
C36   C     C_R   0.427344 0.056966 0.439250 -0.482269
C37   C     C_R   0.597482 0.048420 0.510824 0.641183
C38   C     C_R   0.425119 0.077169 0.535478 0.654975
C39   C     C_R   0.510217 0.039409 0.426844 -0.057960
C40   C     C_R   0.507145 0.075203 0.614475 -0.092153
C41   C     C_R   0.939917 0.819073 0.901978 0.432305
C42   C     C_R   0.857105 0.933245 0.827427 0.497274
C43   C     C_R   0.845988 0.818377 0.905141 0.432737
C44   C     C_R   0.966849 0.962964 0.858958 0.444388
C45   C     C_R   0.410701 0.946278 0.223837 -0.145124
C46   C     C_R   0.590815 0.101141 0.797398 -0.121146
C47   C     C_R   0.815485 0.891497 0.883854 -0.396140
C48   C     C_R   0.011796 0.906166 0.898749 -0.399936
C49   C     C_R   0.589510 0.313364 0.060462 -0.113913
C50   C     C_R   0.410634 0.700428 0.000477 -0.152957
C51   C     C_R   0.596288 0.047888 0.314132 -0.016994
C52   C     C_R   0.407901 0.003106 0.700686 -0.059042
C53   C     C_R   0.405345 0.216283 0.979773 -0.052815
C54   C     C_R   0.594785 0.789123 0.084688 -0.074687
C55   C     C_R   0.802508 0.301274 0.210125 -0.156432
C56   C     C_R   0.250282 0.686677 0.778617 -0.145368
C57   C     C_R   0.198472 0.916536 0.004407 0.601675
C58   C     C_R   0.754405 0.031722 0.939989 0.613174
C59   C     C_R   0.130894 0.940804 0.938266 0.058687
C60   C     C_R   0.770660 0.946774 0.942931 0.021712
H1    H     H_    0.186794 0.358728 0.939222 0.142831
H2    H     H_    0.756333 0.611331 0.106155 0.159157
H3    H     H_    0.010594 0.205328 0.779224 0.144723
H4    H     H_    0.947678 0.761291 0.201559 0.164590
H5    H     H_    0.169394 0.645784 0.474206 0.169204
H6    H     H_    0.001756 0.309222 0.481664 0.161453
H7    H     H_    0.833812 0.180692 0.352136 0.101081
H8    H     H_    0.243453 0.797801 0.624714 0.092580
H9    H     H_    0.328836 0.895693 0.205729 0.172513
H10   H     H_    0.674290 0.163604 0.830434 0.149472
H11   H     H_    0.674123 0.379267 0.105383 0.099549
H12   H     H_    0.326826 0.649942 0.979650 0.111051
H13   H     H_    0.683102 0.099520 0.375704 0.133028
H14   H     H_    0.322390 0.969133 0.641517 0.152142
H15   H     H_    0.825746 0.352483 0.177759 0.164832
H16   H     H_    0.238185 0.625982 0.802019 0.171073
N1    N     N_R   0.293810 0.002730 0.945950 -0.091206
N2    N     N_R   0.706190 0.997270 0.054050 -0.078387
N3    N     N_R   0.706160 0.152130 0.208910 -0.045187
N4    N     N_R   0.293840 0.847870 0.791090 -0.046938
N5    N     N_R   0.443140 0.945920 0.152090 -0.045569
N6    N     N_R   0.556860 0.054080 0.847910 -0.060946
N7    N     N_R   0.556830 0.208940 0.002760 -0.041833
N8    N     N_R   0.443170 0.791060 0.997240 -0.044777
N9    N     N_R   0.556790 0.002750 0.208910 -0.053418
N10   N     N_R   0.443210 0.997250 0.791090 -0.062475
N11   N     N_R   0.443180 0.152110 0.945950 -0.020565
N12   N     N_R   0.556820 0.847890 0.054050 -0.045496
N13   N     N_R   0.706170 0.208950 0.152090 -0.057742
N14   N     N_R   0.293830 0.791050 0.847910 -0.056616
N15   N     N_R   0.293800 0.945910 0.002760 -0.111310
N16   N     N_R   0.706200 0.054090 0.997240 -0.117069
Ni1   Ni    Ni4+2 0.369690 0.999990 0.869700 0.220384
Ni2   Ni    Ni4+2 0.630310 0.000010 0.130300 0.220030
Ni3   Ni    Ni4+2 0.369670 0.869670 0.000000 0.235162
Ni4   Ni    Ni4+2 0.630330 0.130330 0.000000 0.199935
H17   H     H_    0.164726 0.011833 0.840031 0.188307
H18   H     H_    0.754599 0.876865 0.047348 0.198117
O1    O     O_3   0.191117 0.065132 0.632321 -0.578986
C61   C     C_3   0.111319 0.957942 0.593906 -0.240678
H19   H     H_    0.027431 0.937053 0.535957 0.160407
H20   H     H_    0.110903 0.943772 0.661093 0.122944
H21   H     H_    0.131845 0.901021 0.548214 0.161180
O2    O     O_3   0.878351 0.985521 0.428558 -0.610193
C62   C     C_3   0.954352 0.075652 0.433911 -0.315511
H22   H     H_    0.931326 0.067124 0.352304 0.145159
H23   H     H_    0.039861 0.090667 0.476485 0.166213
H24   H     H_    0.954256 0.148303 0.483570 0.164279
O3    O     O_3   0.385802 0.249300 0.798434 -0.581935
C63   C     C_3   0.420962 0.323070 0.763858 -0.133994
H25   H     H_    0.452811 0.407354 0.826385 0.098151
H26   H     H_    0.353863 0.300665 0.684468 0.114996
H27   H     H_    0.490483 0.321002 0.752463 0.166236
O4    O     O_3   0.669579 0.812308 0.328365 -0.575300
C64   C     C_3   0.679734 0.787440 0.411505 -0.110000
H28   H     H_    0.762046 0.847520 0.486760 0.149732
H29   H     H_    0.665779 0.703677 0.385480 0.078746
H30   H     H_    0.614981 0.791455 0.430753 0.160301
H31   H     H_    0.335185 0.501718 0.928131 0.153731
H32   H     H_    0.647299 0.515527 0.202796 0.138368
O5    O     O_3   0.007777 0.484931 0.287204 -0.635058
C65   C     C_3   0.074875 0.471133 0.242803 -0.328473
H33   H     H_    0.076185 0.394606 0.229248 0.126269
H34   H     H_    0.160868 0.541806 0.295239 0.158659
H35   H     H_    0.039573 0.465667 0.162697 0.178974
O6    O     O_3   0.178915 0.459863 0.659382 -0.630528
C66   C     C_3   0.282201 0.468979 0.677251 -0.355024
H36   H     H_    0.341809 0.549997 0.696588 0.149651
H37   H     H_    0.272084 0.403582 0.606258 0.140379
H38   H     H_    0.318512 0.459847 0.748416 0.175743
H39   H     H_    0.653036 0.058542 0.663096 0.201539
H40   H     H_    0.365317 0.053341 0.372655 0.152578
O7    O     O_3   0.676789 0.026582 0.495339 -0.598634
C67   C     C_3   0.784574 0.104438 0.585881 -0.241099
H41   H     H_    0.804428 0.079060 0.647386 0.194534
H42   H     H_    0.796456 0.187654 0.623040 0.104796
H43   H     H_    0.845377 0.109005 0.558893 0.210969
O8    O     O_3   0.346337 0.096217 0.556584 -0.579098
C68   C     C_3   0.272193 0.104521 0.475022 -0.194038
H44   H     H_    0.216052 0.024355 0.397789 0.115477
H45   H     H_    0.317844 0.170116 0.462601 0.098184
H46   H     H_    0.218971 0.127929 0.502282 0.179621
O9    O     O_3   0.964879 0.741900 0.913562 -0.527518
C69   C     C_3   0.946893 0.669678 0.813507 -0.123877
H47   H     H_    0.002816 0.711567 0.789236 0.112299
H48   H     H_    0.858408 0.627426 0.748281 0.084714
H49   H     H_    0.965774 0.606950 0.822570 0.157726
O10   O     O_3   0.802446 0.961924 0.757544 -0.545016
C70   C     C_3   0.693452 0.874712 0.679515 -0.226547
H50   H     H_    0.639900 0.864752 0.715931 0.145182
H51   H     H_    0.692608 0.797557 0.639365 0.087590
H52   H     H_    0.656865 0.892629 0.615433 0.167370
O11   O     O_3   0.792606 0.752652 0.937065 -0.574280
C71   C     C_3   0.682967 0.675458 0.850671 -0.223330
H53   H     H_    0.681786 0.626105 0.776473 0.117884
H54   H     H_    0.632538 0.714285 0.832411 0.135933
H55   H     H_    0.643120 0.619410 0.874954 0.156684
O12   O     O_3   0.031429 0.054677 0.861867 -0.594642
C72   C     C_3   0.082025 0.145704 0.966143 -0.155521
H56   H     H_    0.075151 0.126725 0.029312 0.084313
H57   H     H_    0.045340 0.197630 0.958994 0.157326
H58   H     H_    0.171782 0.193798 0.996660 0.138131
H59   H     H_    0.319822 0.190788 0.955756 0.088915
H60   H     H_    0.681294 0.818536 0.133362 0.095799
O13   O     O_3   0.171524 0.863369 0.057513 -0.591553
C73   C     C_3   0.163586 0.931815 0.141465 -0.223037
H61   H     H_    0.091133 0.942759 0.109549 0.148310
H62   H     H_    0.240457 0.012873 0.196421 0.083996
H63   H     H_    0.152555 0.893876 0.191024 0.163064
O14   O     O_3   0.798571 0.096484 0.902765 -0.585989
C74   C     C_3   0.865839 0.205429 0.988180 -0.311936
H64   H     H_    0.931982 0.214564 0.059724 0.129035
H65   H     H_    0.815543 0.237846 0.012215 0.143259
H66   H     H_    0.906968 0.255297 0.959397 0.164872
H67   H     H_    0.007092 0.064489 0.638008 0.194203
H68   H     H_    0.009219 0.935594 0.350953 0.164272

loop_
_geom_bond_atom_site_label_1
_geom_bond_atom_site_label_2
_ccdc_geom_bond_type
N7    N11   A    
C74   H64   S    
C30   O6    S    
O6    C66   S    
C56   H16   S    
C35   H39   S    
C11   O3    S    
C1    N1    A    
C3    C23   A    
C42   O10   S    
C51   N9    A    
C67   H43   S    
C58   N16   A    
O4    C64   S    
C50   N8    A    
N14   Ni3   S    
C20   H68   S    
C22   H32   S    
C62   H23   S    
O13   C73   S    
C7    C26   S    
C16   H2    S    
C58   O14   S    
N2    Ni2   S    
C41   O9    S    
C52   H14   S    
C1    C59   A    
N5    Ni3   S    
C68   H46   S    
C2    C60   A    
C57   C59   A    
C11   C13   A    
C57   O13   S    
O14   C74   S    
C58   C60   A    
O9    C69   S    
C6    C52   A    
N16   Ni4   S    
C44   O12   S    
C15   C17   A    
C23   H7    S    
C50   H12   S    
C63   H25   S    
C19   H67   S    
C47   C60   S    
C46   N6    A    
C3    C55   A    
C9    C19   A    
C72   H56   S    
C10   C20   A    
C64   H29   S    
C29   O5    S    
C72   H57   S    
C13   C28   S    
C14   C27   S    
C57   N15   A    
C71   H54   S    
C55   H15   S    
C56   N14   A    
C9    O1    S    
C38   C40   A    
C4    C56   A    
C73   H62   S    
C8    C25   S    
C41   C43   A    
C70   H51   S    
C73   H61   S    
C42   C44   A    
C69   H49   S    
C61   H20   S    
O2    C62   S    
C62   H24   S    
C24   N4    A    
C12   O4    S    
C38   O8    S    
C74   H66   S    
N12   Ni2   S    
N6    Ni4   S    
C45   H9    S    
C18   H4    S    
N8    N12   A    
C6    C40   S    
O10   C70   S    
C7    C49   A    
N3    Ni2   S    
C69   H48   S    
C70   H52   S    
C8    C54   A    
C53   H59   S    
C67   H42   S    
C3    C34   S    
N2    N16   A    
N6    N10   A    
C5    C45   A    
C29   C34   A    
C61   H21   S    
N8    Ni3   S    
C32   C34   A    
C66   H37   S    
C2    N2    A    
N10   Ni1   S    
C74   H65   S    
N9    Ni2   S    
O1    C61   S    
C29   C31   A    
C64   H30   S    
C31   C33   A    
C15   H1    S    
C72   H58   S    
C53   N11   A    
C9    C11   A    
C63   H27   S    
C71   H53   S    
C36   H40   S    
C10   C12   A    
C71   H55   S    
C16   C18   A    
C21   C28   A    
C12   C14   A    
C22   C27   A    
C13   C15   A    
C22   C26   A    
O12   C72   S    
C14   C16   A    
C7    C53   A    
C1    H17   S    
C66   H36   S    
C8    C50   A    
N1    Ni1   S    
C48   C59   S    
C32   H6    S    
C31   H5    S    
C5    C39   S    
C21   C25   A    
C4    C33   S    
N1    N15   A    
C6    C46   A    
C30   C33   A    
C35   C37   A    
C36   C39   A    
C45   N5    A    
C51   H13   S    
C69   H47   S    
C68   H44   S    
O5    C65   S    
C67   H41   S    
C25   C27   A    
C62   H22   S    
C26   C28   A    
C54   H60   S    
C54   N12   A    
C65   H35   S    
C52   N10   A    
C35   C40   A    
N4    Ni1   S    
C66   H38   S    
C37   C39   A    
C43   O11   S    
C70   H50   S    
C17   H3    S    
C36   C38   A    
C30   C32   A    
C68   H45   S    
C49   N7    A    
O7    C67   S    
C43   C47   A    
N13   Ni4   S    
C4    C24   A    
N7    Ni4   S    
N11   Ni1   S    
C10   O2    S    
C61   H19   S    
C17   C19   A    
C41   C48   A    
C18   C20   A    
C42   C47   A    
N4    N14   A    
C55   N13   A    
C37   O7    S    
C63   H26   S    
C46   H10   S    
O8    C68   S    
C24   H8    S    
N15   Ni3   S    
C44   C48   A    
C2    H18   S    
C73   H63   S    
C21   H31   S    
C49   H11   S    
C5    C51   A    
N3    N13   A    
C23   N3    A    
C65   H33   S    
O3    C63   S    
C65   H34   S    
N5    N9    A    
C64   H28   S    
O11   C71   S    
