data_mof_unit_38086.cif
_audit_creation_date              2012-12-10T16:48:45-0500
_audit_creation_method            fapswitch 2.2
_symmetry_space_group_name_H-M    P1
_symmetry_Int_Tables_number       1
_space_group_crystal_system       triclinic
_cell_length_a                    17.095224
_cell_length_b                    8.69277
_cell_length_c                    7.446337
_cell_angle_alpha                 103.117365
_cell_angle_beta                  89.085543
_cell_angle_gamma                 92.781554
_cell_volume                      1076.40489796

loop_
_atom_site_label
_atom_site_type_symbol
_atom_type_description
_atom_site_fract_x
_atom_site_fract_y
_atom_site_fract_z
_atom_type_partial_charge
C1    C     C_R   0.497666 0.199779 0.453588 0.880842
C2    C     C_R   0.502341 0.800219 0.546410 0.877791
C3    C     C_2   0.496549 0.031803 0.427587 -0.374741
C4    C     C_2   0.503466 0.968186 0.572410 -0.374869
C5    C     C_R   0.351069 0.503924 0.528455 0.776613
C6    C     C_R   0.648963 0.499352 0.472019 0.777538
C7    C     C_R   0.267406 0.522140 0.555453 -0.010570
C8    C     C_R   0.733289 0.514052 0.449747 -0.008664
C9    C     C_R   0.214191 0.414449 0.447263 -0.201269
C10   C     C_R   0.781879 0.418310 0.521414 -0.198304
C11   C     C_R   0.134346 0.438302 0.466557 -0.175414
C12   C     C_R   0.862767 0.440364 0.509720 -0.176569
C13   C     C_R   0.107351 0.574362 0.587423 0.173852
C14   C     C_R   0.895636 0.563770 0.434942 0.172271
C15   C     C_R   0.160916 0.679955 0.698823 -0.159108
C16   C     C_R   0.846528 0.656722 0.358902 -0.156226
C17   C     C_R   0.240607 0.652778 0.684347 -0.193771
C18   C     C_R   0.765617 0.630551 0.364389 -0.198645
C19   C     C_2   0.022878 0.604566 0.595566 0.126365
C20   C     C_2   0.981498 0.594244 0.437669 0.122659
Cu1   Cu    Cu3+1 0.508700 0.517250 0.683000 0.950606
Cu2   Cu    Cu3+1 0.491300 0.482750 0.317000 0.951120
H1    H     H_    0.234457 0.312349 0.348529 0.136435
H2    H     H_    0.757209 0.326997 0.586047 0.139038
H3    H     H_    0.728128 0.705482 0.309182 0.131989
H4    H     H_    0.281637 0.737092 0.768043 0.140927
H5    H     H_    0.141708 0.785594 0.792744 0.131797
H6    H     H_    0.870254 0.752405 0.300565 0.132592
H7    H     H_    0.899870 0.364263 0.563971 0.141091
H8    H     H_    0.093591 0.353080 0.383354 0.140271
H9    H     H_    0.490025 0.960131 0.288072 0.179655
H10   H     H_    0.509988 0.039855 0.711925 0.180019
H11   H     H_    0.439065 0.379637 0.959124 0.226598
H12   H     H_    0.560948 0.620340 0.040877 0.224932
N1    N     N_2   0.478180 0.456750 0.041980 -0.215831
N2    N     N_2   0.521820 0.543250 0.958020 -0.216012
O1    O     O_R   0.505650 0.286040 0.618880 -0.583332
O2    O     O_R   0.494350 0.713960 0.381120 -0.583883
O3    O     O_R   0.490960 0.256910 0.309800 -0.585642
O4    O     O_R   0.509040 0.743090 0.690200 -0.586567
O5    O     O_R   0.394600 0.516230 0.672450 -0.587863
O6    O     O_R   0.605400 0.483770 0.327550 -0.586210
O7    O     O_R   0.379910 0.487100 0.363380 -0.575573
O8    O     O_R   0.620090 0.512900 0.636620 -0.575566
C21   C     C_3   0.021006 0.601779 0.255842 -0.907655
H13   H     H_    0.993834 0.691245 0.195193 0.231486
H14   H     H_    0.084125 0.637756 0.270252 0.247822
H15   H     H_    0.014201 0.484664 0.158477 0.235239
C22   C     C_3   0.984147 0.634718 0.784208 -0.910748
H16   H     H_    0.016199 0.732234 0.880849 0.228143
H17   H     H_    0.923010 0.671597 0.782737 0.246251
H18   H     H_    0.984675 0.526131 0.838760 0.239093

loop_
_geom_bond_atom_site_label_1
_geom_bond_atom_site_label_2
_ccdc_geom_bond_type
C16   H6    S    
C2    C4    S    
C15   C17   A    
C2    O4    A    
C12   H7    S    
Cu1   O8    S    
C11   C13   A    
C19   C22   S    
C1    O3    A    
C15   H5    S    
Cu2   O7    S    
C1    O1    A    
C22   H18   S    
C19   C20   D    
C21   H14   S    
C5    O7    A    
Cu1   N2    S    
C4    H10   S    
C21   H13   S    
C3    H9    S    
Cu2   N1    S    
C9    C11   A    
Cu2   O6    S    
C18   H3    S    
C10   C12   A    
Cu1   O5    S    
C17   H4    S    
C8    C10   A    
H11   N1    S    
C12   C14   A    
H12   N2    S    
C13   C15   A    
C14   C16   A    
Cu2   O3    S    
C5    O5    A    
C3    C4    D    
Cu2   O2    S    
C14   C20   S    
Cu1   O1    S    
C6    O8    A    
C7    C9    A    
C22   H16   S    
C6    O6    A    
C21   H15   S    
C1    C3    S    
C5    C7    S    
C22   H17   S    
C2    O2    A    
C9    H1    S    
C13   C19   S    
C6    C8    S    
C10   H2    S    
Cu1   Cu2   S    
C16   C18   A    
C8    C18   A    
C20   C21   S    
C11   H8    S    
C7    C17   A    
N1    N2    D    
Cu1   O4    S    
