data_mof_unit_32732.cif
_audit_creation_date              2012-12-10T18:55:56-0500
_audit_creation_method            fapswitch 2.2
_symmetry_space_group_name_H-M    P1
_symmetry_Int_Tables_number       1
_space_group_crystal_system       triclinic
_cell_length_a                    10.695451
_cell_length_b                    9.887739
_cell_length_c                    15.183275
_cell_angle_alpha                 89.973585
_cell_angle_beta                  93.816568
_cell_angle_gamma                 89.985964
_cell_volume                      1602.12822318

loop_
_atom_site_label
_atom_site_type_symbol
_atom_type_description
_atom_site_fract_x
_atom_site_fract_y
_atom_site_fract_z
_atom_type_partial_charge
C1    C     C_R   0.261159 0.499632 0.510127 0.958155
C2    C     C_R   0.738863 0.499623 0.489918 0.958309
C3    C     C_R   0.505454 0.499143 0.327810 0.904268
C4    C     C_R   0.494494 0.499098 0.672181 0.904137
C5    C     C_R   0.584078 0.072075 0.554132 0.270992
C6    C     C_R   0.412280 0.928848 0.448789 0.233441
C7    C     C_R   0.415911 0.072187 0.445874 0.271453
C8    C     C_R   0.587719 0.928740 0.551214 0.233114
C9    C     C_R   0.062897 0.373749 0.513842 0.259276
C10   C     C_R   0.938071 0.620806 0.484299 0.267963
C11   C     C_R   0.937229 0.373742 0.486437 0.259467
C12   C     C_R   0.061915 0.620814 0.515775 0.267960
C13   C     C_R   0.547937 0.595587 0.091243 -0.271765
C14   C     C_R   0.507303 0.360118 0.902572 -0.267957
C15   C     C_R   0.450988 0.595393 0.908583 -0.271823
C16   C     C_R   0.492507 0.360102 0.097508 -0.267904
C17   C     C_R   0.538900 0.609186 0.181420 0.445265
C18   C     C_R   0.490117 0.364623 0.811495 0.465304
C19   C     C_R   0.460292 0.609012 0.818421 0.444930
C20   C     C_R   0.509841 0.364670 0.188572 0.465069
C21   C     C_R   0.517917 0.492370 0.232051 -0.291323
C22   C     C_R   0.481801 0.492267 0.767913 -0.291378
C23   C     C_R   0.510029 0.476390 0.048064 0.031376
C24   C     C_R   0.489237 0.476334 0.951900 0.030795
C25   C     C_R   0.872378 0.497854 0.480211 -0.351586
C26   C     C_R   0.127675 0.497871 0.519934 -0.351660
H1    H     H_    0.577093 0.682114 0.054493 0.153844
H2    H     H_    0.531637 0.264286 0.933465 0.158490
H3    H     H_    0.421526 0.681865 0.945228 0.153975
H4    H     H_    0.468431 0.264194 0.066709 0.158425
N1    N     N_R   0.500000 0.857200 0.500000 -0.160103
N2    N     N_R   0.500000 0.142800 0.500000 -0.185722
O1    O     O_R   0.316770 0.614620 0.499990 -0.553841
O2    O     O_R   0.683230 0.385380 0.500010 -0.570795
O3    O     O_R   0.683230 0.614620 0.500010 -0.553779
O4    O     O_R   0.316770 0.385380 0.499990 -0.570679
O5    O     O_R   0.499990 0.614660 0.369060 -0.575355
O6    O     O_R   0.500010 0.385340 0.630940 -0.571564
O7    O     O_R   0.500010 0.614660 0.630940 -0.575729
O8    O     O_R   0.499990 0.385340 0.369060 -0.571743
Zn1   Zn    Zn3+2 0.500000 0.653120 0.500000 1.079001
Zn2   Zn    Zn3+2 0.500000 0.346880 0.500000 1.063819
Br1   Br    Br    0.697344 0.166590 0.636324 -0.343429
Br2   Br    Br    0.278997 0.838159 0.381814 -0.400905
Br3   Br    Br    0.302580 0.166846 0.363705 -0.343604
Br4   Br    Br    0.721030 0.837937 0.618197 -0.400819
O9    O     O_3   0.559496 0.735455 0.218725 -0.617185
C27   C     C_3   0.447610 0.812766 0.209435 0.177544
H5    H     H_    0.459525 0.897904 0.256874 0.206377
H6    H     H_    0.365109 0.752114 0.226784 0.166072
C28   C     C_3   0.420012 0.872477 0.116506 -0.488575
H7    H     H_    0.507192 0.909644 0.089182 0.228999
H8    H     H_    0.378707 0.793002 0.072181 0.216205
C29   C     C_3   0.324771 0.987385 0.116981 -0.840741
H9    H     H_    0.306665 0.027358 0.048939 0.245198
H10   H     H_    0.235145 0.950192 0.141042 0.284193
H11   H     H_    0.360846 0.070794 0.160189 0.315772
O10   O     O_3   0.487416 0.242673 0.766870 -0.621497
C30   C     C_3   0.361529 0.207256 0.741978 0.174846
H12   H     H_    0.363775 0.133753 0.686764 0.197663
H13   H     H_    0.304702 0.295249 0.716409 0.139821
C31   C     C_3   0.297799 0.139695 0.818172 -0.484959
H14   H     H_    0.356671 0.055044 0.844496 0.246466
H15   H     H_    0.286878 0.213774 0.872103 0.221713
C32   C     C_3   0.168712 0.084865 0.787911 -0.752097
H16   H     H_    0.106691 0.168414 0.762744 0.281254
H17   H     H_    0.125709 0.036221 0.844488 0.251034
H18   H     H_    0.176779 0.008169 0.735134 0.307863
O11   O     O_3   0.439687 0.735274 0.781020 -0.617074
C33   C     C_3   0.551606 0.812458 0.790227 0.179172
H19   H     H_    0.539654 0.897746 0.742847 0.205924
H20   H     H_    0.634024 0.751748 0.772776 0.165860
C34   C     C_3   0.579421 0.871789 0.883184 -0.488025
H21   H     H_    0.492288 0.908865 0.910588 0.229085
H22   H     H_    0.620778 0.792109 0.927382 0.216167
C35   C     C_3   0.674680 0.986604 0.882767 -0.841085
H23   H     H_    0.692923 0.026260 0.950854 0.245194
H24   H     H_    0.764238 0.949453 0.858572 0.284440
H25   H     H_    0.638553 0.070213 0.839696 0.315970
O12   O     O_3   0.512943 0.242727 0.233313 -0.621290
C36   C     C_3   0.638930 0.207871 0.258416 0.174408
H26   H     H_    0.637056 0.136661 0.314944 0.198153
H27   H     H_    0.696219 0.296551 0.282193 0.138448
C37   C     C_3   0.701695 0.136722 0.183217 -0.483064
H28   H     H_    0.643924 0.049233 0.160398 0.248152
H29   H     H_    0.709456 0.207313 0.126938 0.221663
C38   C     C_3   0.832534 0.086369 0.213108 -0.752829
H30   H     H_    0.893399 0.172559 0.235186 0.279153
H31   H     H_    0.874936 0.035235 0.157213 0.251565
H32   H     H_    0.827497 0.012756 0.268041 0.309595
Br5   Br    Br    0.135726 0.204344 0.556083 -0.388167
Br6   Br    Br    0.871620 0.783934 0.428678 -0.317391
Br7   Br    Br    0.864561 0.204350 0.444274 -0.388647
Br8   Br    Br    0.128295 0.783938 0.571285 -0.316709

loop_
_geom_bond_atom_site_label_1
_geom_bond_atom_site_label_2
_ccdc_geom_bond_type
C2    O3    A    
C38   H30   S    
C34   H21   S    
C14   C18   A    
O4    Zn2   S    
O2    Zn2   S    
C37   C38   S    
C9    Br5   S    
C36   H26   S    
C1    O1    A    
O7    Zn1   S    
C15   C19   A    
C7    Br3   S    
C37   H29   S    
O6    Zn2   S    
C11   C25   A    
C16   H4    S    
C13   C23   A    
C14   C24   A    
C31   H15   S    
C18   O10   S    
C27   C28   S    
C32   H17   S    
C23   C24   S    
C35   H25   S    
C33   H19   S    
C5    N2    A    
C11   Br7   S    
C27   H6    S    
C6    N1    A    
C5    Br1   S    
C10   Br6   S    
C30   H12   S    
C6    Br2   S    
C34   H22   S    
C12   Br8   S    
C36   H27   S    
C9    C26   A    
C15   H3    S    
C29   H10   S    
C30   H13   S    
C20   O12   S    
C28   H7    S    
C19   C22   A    
C35   H23   S    
O10   C30   S    
C17   C21   A    
C12   C26   A    
C28   H8    S    
C31   H14   S    
C4    C22   S    
O9    C27   S    
C4    O7    A    
C16   C20   A    
C32   H18   S    
C33   C34   S    
C37   H28   S    
C9    C11   A    
C10   C12   A    
C10   C25   A    
C27   H5    S    
C4    O6    A    
C3    O8    A    
C16   C23   A    
C38   H31   S    
C1    C26   S    
C34   C35   S    
C3    C21   S    
C36   C37   S    
C29   H9    S    
C15   C24   A    
C30   C31   S    
C7    N2    A    
N1    Zn1   S    
C31   C32   S    
C18   C22   A    
C8    N1    A    
C17   O9    S    
C35   H24   S    
O12   C36   S    
C5    C8    A    
C6    C7    A    
C13   C17   A    
C28   C29   S    
O1    Zn1   S    
C2    O2    A    
O8    Zn2   S    
C2    C25   S    
O5    Zn1   S    
O11   C33   S    
O3    Zn1   S    
C8    Br4   S    
C19   O11   S    
C20   C21   A    
C3    O5    A    
C32   H16   S    
C38   H32   S    
N2    Zn2   S    
C13   H1    S    
C33   H20   S    
C14   H2    S    
C1    O4    A    
C29   H11   S    
