data_mof_unit_42626.cif
_audit_creation_date              2012-12-10T17:59:18-0500
_audit_creation_method            fapswitch 2.2
_symmetry_space_group_name_H-M    P1
_symmetry_Int_Tables_number       1
_space_group_crystal_system       triclinic
_cell_length_a                    10.825559
_cell_length_b                    9.545284
_cell_length_c                    10.738449
_cell_angle_alpha                 89.962083
_cell_angle_beta                  90.538915
_cell_angle_gamma                 89.858308
_cell_volume                      1109.58378994

loop_
_atom_site_label
_atom_site_type_symbol
_atom_type_description
_atom_site_fract_x
_atom_site_fract_y
_atom_site_fract_z
_atom_type_partial_charge
C1    C     C_R   0.262180 0.500084 0.499521 0.802397
C2    C     C_3   0.614798 0.568070 0.929215 -0.593690
C3    C     C_R   0.064350 0.373051 0.507834 -0.203760
C4    C     C_R   0.063561 0.626654 0.487201 -0.201948
C5    C     C_R   0.936570 0.372981 0.508171 -0.197588
C6    C     C_R   0.935759 0.626471 0.486775 -0.189513
C7    C     C_R   0.871770 0.499733 0.498070 -0.008901
C8    C     C_R   0.128328 0.499988 0.498058 -0.012084
C9    C     C_R   0.416307 0.074592 0.429815 -0.038365
C10   C     C_R   0.416266 0.925963 0.429864 -0.019190
C11   C     C_R   0.584087 0.925409 0.569857 -0.047650
C12   C     C_R   0.584114 0.074033 0.569783 -0.036214
C13   C     C_R   0.498775 0.499813 0.259859 0.794073
C14   C     C_R   0.737857 0.499882 0.499553 0.774263
C15   C     C_R   0.497938 0.499633 0.740229 0.814745
C16   C     C_3   0.382664 0.579997 0.071836 -0.428598
C17   C     C_3   0.491877 0.346043 0.072033 -0.411943
C18   C     C_3   0.380549 0.580375 0.927350 0.352998
C19   C     C_3   0.490883 0.344201 0.928886 0.371181
C20   C     C_3   0.615392 0.569678 0.072575 -0.406372
C21   C     C_3   0.497157 0.498914 0.121964 0.058840
C22   C     C_3   0.495316 0.497946 0.878601 0.054013
Cu1   Cu    Cu3+1 0.500020 0.640660 0.500000 0.922374
Cu2   Cu    Cu3+1 0.500020 0.359340 0.500000 0.934849
H1    H     H_    0.384316 0.690121 0.105851 0.129521
H2    H     H_    0.573472 0.285608 0.106419 0.135295
H3    H     H_    0.651106 0.869395 0.626394 0.117900
H4    H     H_    0.651201 0.129623 0.626201 0.106433
H5    H     H_    0.297003 0.531230 0.108461 0.178380
H6    H     H_    0.408024 0.292724 0.108039 0.187462
H7    H     H_    0.389025 0.690815 0.894131 0.051806
H8    H     H_    0.576103 0.289157 0.896841 0.028182
H9    H     H_    0.620903 0.679913 0.105897 0.189561
H10   H     H_    0.698809 0.513730 0.108413 0.173099
H11   H     H_    0.622476 0.677295 0.893756 0.196401
H12   H     H_    0.696796 0.508923 0.896318 0.180001
H13   H     H_    0.112751 0.274007 0.516599 0.144650
H14   H     H_    0.111340 0.725807 0.479344 0.140662
H15   H     H_    0.888831 0.273929 0.517082 0.145532
H16   H     H_    0.887363 0.725551 0.478557 0.146735
H17   H     H_    0.349191 0.130623 0.373422 0.113230
H18   H     H_    0.349121 0.870377 0.373513 0.110083
N1    N     N_R   0.500030 0.852070 0.500030 -0.156076
N2    N     N_R   0.500030 0.147930 0.500030 -0.157600
O1    O     O_R   0.319660 0.618740 0.499990 -0.592998
O2    O     O_R   0.319660 0.381260 0.499990 -0.592733
O3    O     O_R   0.499990 0.618790 0.317690 -0.585405
O4    O     O_R   0.499990 0.381210 0.317690 -0.588102
O5    O     O_R   0.680370 0.618830 0.500010 -0.587836
O6    O     O_R   0.680370 0.381170 0.500010 -0.591565
O7    O     O_R   0.500030 0.618780 0.682310 -0.604711
O8    O     O_R   0.500030 0.381220 0.682310 -0.566882
O9    O     O_3   0.270316 0.515439 0.883573 -0.561725
C23   C     C_3   0.176350 0.614493 0.860235 0.020282
H19   H     H_    0.197679 0.670951 0.772676 0.165581
H20   H     H_    0.166808 0.689035 0.939464 0.129199
C24   C     C_3   0.053723 0.538515 0.841601 -0.288744
H21   H     H_    0.061986 0.464076 0.762722 0.233711
H22   H     H_    0.031394 0.477591 0.926689 0.213140
C25   C     C_3   0.949203 0.641998 0.814083 -0.939433
H23   H     H_    0.926194 0.702089 0.899349 0.252050
H24   H     H_    0.866173 0.584107 0.781988 0.248442
H25   H     H_    0.975860 0.716467 0.739616 0.261387
O10   O     O_3   0.380618 0.280575 0.884959 -0.551177
C26   C     C_3   0.394647 0.136969 0.859519 0.073243
H26   H     H_    0.389341 0.076971 0.948148 0.125135
H27   H     H_    0.483127 0.112161 0.812292 0.117341
C27   C     C_3   0.288967 0.095255 0.772126 -0.276147
H28   H     H_    0.199766 0.133316 0.810198 0.221855
H29   H     H_    0.302332 0.144968 0.679648 0.235944
C28   C     C_3   0.282084 0.937628 0.756843 -0.983678
H30   H     H_    0.371281 0.894764 0.723872 0.281230
H31   H     H_    0.208260 0.910859 0.688444 0.251997
H32   H     H_    0.259835 0.890725 0.848260 0.235422

loop_
_geom_bond_atom_site_label_1
_geom_bond_atom_site_label_2
_ccdc_geom_bond_type
C2    H11   S    
C2    C22   S    
C13   O4    A    
C11   C12   A    
Cu2   O8    S    
C16   C21   S    
Cu1   O1    S    
C15   O7    A    
C10   H18   S    
C1    C8    S    
C5    C7    A    
C9    C10   A    
C9    H17   S    
C18   O9    S    
C4    C8    A    
C19   O10   S    
Cu1   Cu2   S    
C26   C27   S    
Cu2   O2    S    
O10   C26   S    
C15   O8    A    
C10   N1    A    
C13   C21   S    
C28   H30   S    
C12   N2    A    
C14   O6    A    
O9    C23   S    
C25   H24   S    
C11   N1    A    
C17   H6    S    
C1    O1    A    
C24   H21   S    
C6    C7    A    
C12   H4    S    
C27   C28   S    
C17   H2    S    
C4    C6    A    
C13   O3    A    
C17   C19   S    
C4    H14   S    
C11   H3    S    
C3    C8    A    
C6    H16   S    
C5    H15   S    
Cu2   O6    S    
Cu2   N2    S    
C23   H20   S    
C1    O2    A    
Cu1   O5    S    
C14   O5    A    
Cu1   O3    S    
C20   H9    S    
C2    C20   S    
C20   H10   S    
Cu2   O4    S    
C25   H25   S    
C3    C5    A    
C19   C22   S    
Cu1   N1    S    
C20   C21   S    
C3    H13   S    
C16   C18   S    
C26   H26   S    
C2    H12   S    
C16   H1    S    
C28   H31   S    
C27   H29   S    
C23   H19   S    
C25   H23   S    
C24   C25   S    
C18   H7    S    
C28   H32   S    
C26   H27   S    
C16   H5    S    
C18   C22   S    
Cu1   O7    S    
C19   H8    S    
C15   C22   S    
C7    C14   S    
C24   H22   S    
C27   H28   S    
C9    N2    A    
C23   C24   S    
C17   C21   S    
