data_mof_unit_20156.cif
_audit_creation_date              2013-03-05T16:12:34-0500
_audit_creation_method            fapswitch 2.2
_symmetry_space_group_name_H-M    P1
_symmetry_Int_Tables_number       1
_space_group_crystal_system       triclinic
_cell_length_a                    8.316365
_cell_length_b                    16.006739
_cell_length_c                    19.005002
_cell_angle_alpha                 111.891772
_cell_angle_beta                  91.651095
_cell_angle_gamma                 83.462612
_cell_volume                      2331.9546683

loop_
_atom_site_label
_atom_site_type_symbol
_atom_site_description
_atom_site_fract_x
_atom_site_fract_y
_atom_site_fract_z
_atom_type_partial_charge
P1    P     P_3+3 0.586140 0.411610 0.321630 0.460844
O1    O     O_2   0.405910 0.437000 0.315050 -0.346535
O2    O     O_3   0.650250 0.445090 0.405140 -0.405015
O3    O     O_3   0.110870 0.602570 0.387980 -0.374026
O4    O     O_2   0.223642 0.516971 0.251974 -0.420693
O5    O     O_3   0.607575 0.293033 0.281620 -0.569013
O6    O     O_3   0.133250 0.692404 0.287390 -0.512122
H1    H     H_    0.112007 0.771509 0.401894 0.105959
C1    C     C_3   0.051327 0.853886 0.335700 -0.105876
H2    H     H_    0.177022 0.868129 0.330622 0.155771
P2    P     P_3+3 0.070040 0.709050 0.593050 0.509075
P3    P     P_3+3 0.498977 0.768287 0.456022 0.474660
O7    O     O_2   0.240060 0.720390 0.573650 -0.309345
O8    O     O_3   0.508300 0.651290 0.432440 -0.375122
O9    O     O_2   0.358845 0.814114 0.513999 -0.353828
O10   O     O_3   0.083708 0.739528 0.691520 -0.533550
O11   O     O_3   0.436452 0.792839 0.376634 -0.554240
C2    C     C_3   0.524751 0.731449 0.313025 0.406630
H3    H     H_    0.488225 0.662293 0.298200 0.133258
H4    H     H_    0.656987 0.730372 0.323182 0.035638
C3    C     C_3   0.488449 0.760859 0.246314 -0.891235
H5    H     H_    0.358490 0.758563 0.231908 0.288841
H6    H     H_    0.519837 0.830818 0.260354 0.279964
C4    C     C_3   0.700669 0.752614 0.731748 0.868253
H7    H     H_    0.805941 0.714077 0.695670 0.024632
C5    C     C_3   0.734191 0.768387 0.815123 -1.044147
H8    H     H_    0.781449 0.703751 0.821096 0.232389
H9    H     H_    0.825496 0.816889 0.837764 0.264638
H10   H     H_    0.621213 0.796620 0.849596 0.261406
Ba1   Ba    Ba6+2 0.334020 0.539200 0.472300 1.584930
C6    C     C_3   0.566575 0.259313 0.336060 0.379133
H11   H     H_    0.440624 0.285480 0.355956 0.101702
H12   H     H_    0.650196 0.278564 0.384709 0.133197
C7    C     C_3   0.579723 0.156439 0.300271 -0.886381
H13   H     H_    0.494230 0.135069 0.252491 0.265016
H14   H     H_    0.549922 0.128233 0.342888 0.221468
H15   H     H_    0.705100 0.128906 0.278773 0.271861
C8    C     C_3   0.149463 0.664089 0.707568 0.452970
H16   H     H_    0.262631 0.632737 0.674600 0.104035
H17   H     H_    0.061976 0.613150 0.693705 0.120174
C9    C     C_3   0.186686 0.694216 0.791773 -1.001651
H18   H     H_    0.291262 0.734656 0.805004 0.281509
H19   H     H_    0.215272 0.634399 0.807812 0.221873
H20   H     H_    0.080888 0.736005 0.826310 0.265360
P4    P     P_3+3 0.603540 0.588460 0.678390 0.462021
O12   O     O_2   0.783780 0.563030 0.685000 -0.405244
O13   O     O_3   0.539430 0.554980 0.594880 -0.361570
O14   O     O_3   0.078810 0.397510 0.612040 -0.366835
O15   O     O_3   0.562036 0.707110 0.708989 -0.581996
P5    P     P_3+3 0.696613 0.233381 0.550912 0.454624
O16   O     O_3   0.165590 0.389880 0.444220 -0.390137
O17   O     O_3   0.681380 0.348790 0.567580 -0.380662
O18   O     O_2   0.832147 0.185745 0.490714 -0.378941
O19   O     O_3   0.767103 0.217011 0.632839 -0.523736
Ba2   Ba    Ba6+2 0.855780 0.460880 0.527720 1.565242
P6    P     P_3+3 0.089561 0.591592 0.294752 0.429537
C10   C     C_3   0.050815 0.764606 0.347529 0.325844
H21   H     H_    0.922445 0.754012 0.352521 -0.016853
H22   H     H_    0.994300 0.909674 0.386350 0.075738
O20   O     O_3   0.024090 0.610190 0.555810 -0.422330
C11   C     C_3   0.060840 0.292707 0.277165 0.344843
H23   H     H_    0.930127 0.302225 0.292228 0.105906
H24   H     H_    0.110863 0.359167 0.299396 0.115136
C12   C     C_3   0.081597 0.252093 0.190844 -0.363822
H25   H     H_    0.042995 0.182775 0.168678 0.229084
H26   H     H_    0.211647 0.246818 0.175883 0.220328
P7    P     P_3+3 0.131425 0.275732 0.404980 0.438100
O21   O     O_2   0.949630 0.279650 0.426400 -0.361267
O22   O     O_3   0.145189 0.231693 0.305954 -0.595319
H27   H     H_    0.560140 0.714671 0.196093 0.214720
C13   C     C_3   0.671313 0.276765 0.694637 0.477830
H28   H     H_    0.701356 0.347176 0.709199 0.133438
H29   H     H_    0.540535 0.273750 0.682151 0.001548
C14   C     C_3   0.704673 0.249886 0.762958 -0.962737
H30   H     H_    0.833292 0.254704 0.779442 0.292023
H31   H     H_    0.627685 0.295726 0.811858 0.222999
H32   H     H_    0.677146 0.179277 0.749248 0.264018
P8    P     P_3+3 0.109185 0.403160 0.704417 0.428339
C15   C     C_3   0.149774 0.230507 0.661253 0.472112
H33   H     H_    0.279786 0.241083 0.664585 -0.000956
O23   O     O_2   0.984292 0.481000 0.752590 -0.416386
O24   O     O_3   0.055419 0.305194 0.713438 -0.513419
H34   H     H_    0.106443 0.218397 0.602766 0.131467
H35   H     H_    0.213269 0.087742 0.639018 0.227830
C16   C     C_3   0.135821 0.146385 0.679045 -0.920445
H36   H     H_    0.009036 0.129852 0.673399 0.288482
H37   H     H_    0.176344 0.157806 0.737784 0.257450
C17   C     C_R   0.536940 0.549899 0.809018 -0.311633
H38   H     H_    0.604950 0.605777 0.839077 0.149914
C18   C     C_R   0.504310 0.532857 0.732029 0.299362
C19   C     C_R   0.376985 0.430953 0.803612 -0.349001
H39   H     H_    0.334448 0.383970 0.825596 0.153464
C20   C     C_R   0.313312 0.432764 0.735020 0.219497
C21   C     C_R   0.832823 0.561099 0.191919 -0.333362
H40   H     H_    0.909441 0.589886 0.165421 0.164589
C22   C     C_R   0.892674 0.555241 0.259493 0.229194
C23   C     C_R   0.620217 0.472491 0.195575 -0.295250
H41   H     H_    0.525055 0.431060 0.169506 0.162132
C24   C     C_R   0.677798 0.470623 0.266632 0.304733
C25   C     C_R   0.482900 0.494767 0.845765 0.102076
C26   C     C_R   0.389850 0.475159 0.695969 -0.435402
H42   H     H_    0.350081 0.469491 0.639822 0.158338
C27   C     C_R   0.687791 0.525841 0.159146 0.083860
C28   C     C_R   0.811386 0.514458 0.298108 -0.443396
H43   H     H_    0.859472 0.511413 0.350733 0.167041
C29   C     C_R   0.250603 0.489568 0.962163 -0.168552
C30   C     C_R   0.147105 0.473306 0.010424 -0.125814
C31   C     C_R   0.193014 0.488044 0.083942 -0.068886
C32   C     C_R   0.340929 0.519718 0.108851 -0.121053
C33   C     C_R   0.461031 0.516392 0.057944 0.050923
C34   C     C_R   0.414305 0.502996 0.981269 0.105155
C35   C     C_R   0.618043 0.538174 0.085391 -0.073746
C36   C     C_R   0.706236 0.569425 0.038422 0.066247
C37   C     C_R   0.680005 0.537279 0.958695 0.082800
C38   C     C_R   0.528390 0.507664 0.928195 -0.063419
C39   C     C_R   0.804536 0.640853 0.067595 -0.163941
C40   C     C_R   0.907352 0.659604 0.019897 -0.036574
C41   C     C_R   0.913341 0.607192 0.942757 -0.159992
C42   C     C_R   0.803825 0.543500 0.912838 -0.185198
H44   H     H_    0.196472 0.494172 0.911710 0.146773
H45   H     H_    0.026841 0.455509 0.992518 0.144391
H46   H     H_    0.110483 0.479256 0.122256 0.142212
H47   H     H_    0.361167 0.551472 0.168288 0.186000
H48   H     H_    0.796136 0.686021 0.126319 0.169690
H49   H     H_    0.984743 0.713174 0.042953 0.169397
H50   H     H_    0.999058 0.617715 0.905894 0.148159
H51   H     H_    0.808665 0.503112 0.853331 0.193358
C43   C     C_2   0.401686 0.239166 0.485976 -0.504981
C44   C     C_R   0.800511 0.752990 0.519053 -0.450719
C45   C     C_2   0.208865 0.125799 0.442064 -0.273658
C46   C     C_2   0.250565 0.206983 0.449392 0.307997
C47   C     C_2   0.501687 0.189958 0.515448 0.218888
C48   C     C_3   0.438562 0.112799 0.530033 -0.119470
C49   C     C_3   0.311403 0.064750 0.473211 0.053119
C50   C     C_2   0.566755 0.048432 0.545105 -0.085372
C51   C     C_2   0.611101 0.965326 0.493971 -0.119803
C52   C     C_R   0.864220 0.931099 0.553394 0.042976
C53   C     C_R   0.723522 0.901052 0.514274 -0.043465
C54   C     C_R   0.971213 0.873049 0.576097 -0.209488
C55   C     C_R   0.938635 0.784056 0.559046 0.294168
C56   C     C_R   0.690467 0.811224 0.497528 0.206760
H52   H     H_    0.102103 0.101084 0.410489 0.182392
H53   H     H_    0.077681 0.897791 0.607537 0.183457
H54   H     H_    0.436058 0.301739 0.484297 0.156773
H55   H     H_    0.774973 0.684380 0.507672 0.178990
H56   H     H_    0.617963 0.069513 0.601455 0.166166
H57   H     H_    0.557531 0.942575 0.438240 0.171763
C57   C     C_3   0.982556 0.308893 0.152749 -0.978699
H58   H     H_    0.851546 0.310625 0.163446 0.274078
H59   H     H_    0.017870 0.378548 0.174532 0.269099
H60   H     H_    0.005655 0.278677 0.090583 0.279765
N1    N     N_R   0.961580 0.851657 0.268065 0.268374
O25   O     O_R   0.827585 0.904600 0.274218 -0.408984
O26   O     O_R   0.020746 0.801446 0.201086 -0.399492
N2    N     N_R   0.673017 0.839981 0.722594 0.213599
O27   O     O_R   0.536963 0.863990 0.695985 -0.358311
O28   O     O_R   0.788754 0.891997 0.736399 -0.418411

loop_
_geom_bond_atom_site_label_1
_geom_bond_atom_site_label_2
_geom_bond_distance
_ccdc_geom_bond_type
O14   Ba2   2.765801 S    
C8    H17   1.107904 S    
Ba1   O16   2.779860 S    
C1    N1    1.458480 S    
C26   H42   1.081932 S    
N2    O28   1.301351 A    
C2    C3    1.520154 S    
C9    H18   1.110315 S    
O4    P6    1.534882 D    
C57   H60   1.110179 S    
P1    C24   1.874022 S    
C15   O24   1.405582 S    
C37   C38   1.428148 A    
C50   C51   1.339741 D    
P4    O12   1.522053 D    
C39   C40   1.396034 A    
C52   C54   1.389200 A    
C5    H8    1.109136 S    
P5    O19   1.747370 S    
C14   H31   1.109418 S    
C3    H5    1.108560 S    
C57   H59   1.106391 S    
P1    O1    1.521768 D    
P1    O2    1.572390 S    
C8    H16   1.105505 S    
C44   C56   1.393658 A    
C29   C30   1.387234 A    
P8    C20   1.834512 S    
C7    H15   1.110847 S    
C23   H41   1.078645 S    
C31   C32   1.387013 A    
C2    H4    1.110353 S    
C7    H13   1.110687 S    
O14   P8    1.736506 S    
C11   H24   1.112989 S    
C41   C42   1.393379 A    
C35   C36   1.428002 A    
C33   C34   1.440060 A    
O2    Ba2   2.800442 S    
H35   C16   1.110294 S    
O19   C13   1.404119 S    
P2    Ba1   3.428730 S    
C47   C48   1.512970 S    
C14   H32   1.110665 S    
Ba1   O20   2.945770 S    
O12   Ba2   2.863981 S    
P5    O17   1.744028 S    
C30   C31   1.377522 A    
C6    H12   1.110269 S    
C19   C25   1.419508 A    
C1    H2    1.109269 S    
C44   H55   1.082278 S    
C37   C42   1.403410 A    
O17   Ba2   2.750633 S    
C36   C39   1.413120 A    
C11   H23   1.111108 S    
C16   H37   1.110557 S    
C24   C28   1.382256 A    
Ba2   O20   2.779104 S    
O3    P6    1.719997 S    
C31   H46   1.071562 S    
C9    H19   1.108084 S    
C45   C49   1.498337 S    
C25   C38   1.543510 S    
C54   H53   1.082014 S    
O6    P6    1.749365 S    
O8    Ba1   2.750025 S    
C43   C47   1.333714 D    
C28   H43   1.082321 S    
C23   C24   1.429505 A    
Ba2   O21   2.852693 S    
C29   C34   1.418243 A    
P4    O13   1.572390 S    
P7    C46   1.816949 S    
C23   C27   1.448086 A    
P5    O18   1.545589 D    
C14   H30   1.108915 S    
P7    O21   1.565333 D    
O7    Ba1   2.852556 S    
C4    H7    1.101508 S    
C8    C9    1.522941 S    
C51   C53   1.462089 S    
C20   C26   1.384784 A    
C19   H39   1.081046 S    
C13   H29   1.109068 S    
C2    H3    1.111785 S    
O16   Ba2   2.944859 S    
C16   H36   1.108655 S    
O3    Ba1   2.766412 S    
P1    O5    1.751294 S    
C27   C35   1.572792 S    
P7    O22   1.748320 S    
C12   H26   1.112084 S    
P3    O11   1.746904 S    
O2    Ba1   2.944861 S    
P2    C55   1.814511 S    
C18   C26   1.385392 A    
H1    C10   1.111790 S    
C19   C20   1.401959 A    
P2    O10   1.752910 S    
P8    O24   1.747239 S    
C6    H11   1.104711 S    
P3    O9    1.544957 D    
P4    O15   1.761533 S    
C50   H56   1.085842 S    
O11   C2    1.402592 S    
C6    C7    1.521262 S    
O16   P7    1.750769 S    
C57   H58   1.109439 S    
C21   C22   1.395762 A    
P4    C18   1.845164 S    
C43   H54   1.084184 S    
C17   C25   1.427038 A    
P5    C47   1.846485 S    
Ba1   O13   2.799871 S    
N1    O26   1.300601 A    
C21   C27   1.418023 A    
C3    H6    1.110416 S    
C48   C49   1.541452 S    
C9    H20   1.106463 S    
C30   H45   1.081784 S    
P2    O20   1.561394 S    
C43   C46   1.469095 S    
C15   C16   1.522590 S    
O13   Ba2   2.945668 S    
C36   C37   1.425964 A    
C52   C53   1.401619 A    
C11   O22   1.401992 S    
C4    O15   1.405131 S    
P6    C22   1.825266 S    
C39   H48   1.079100 S    
C29   H44   1.071331 S    
C32   H47   1.069124 S    
C4    C5    1.531173 S    
C17   C18   1.409004 A    
C53   C56   1.409960 A    
C13   C14   1.522064 S    
C54   C55   1.395052 A    
C4    N2    1.464487 S    
Ba1   Ba2   4.567345 S    
C5    H9    1.109398 S    
C3    H27   1.104198 S    
O1    Ba1   2.863474 S    
C12   H25   1.111933 S    
C22   C28   1.381333 A    
C45   C46   1.339107 D    
P3    O8    1.748454 S    
C13   H28   1.112117 S    
C40   C41   1.390371 A    
C11   C12   1.529464 S    
C15   H34   1.111353 S    
P2    O7    1.518724 D    
P8    O23   1.542367 D    
C10   H21   1.111994 S    
C44   C55   1.393692 A    
P1    Ba1   3.431723 S    
C7    H14   1.109499 S    
O5    C6    1.398830 S    
C1    C10   1.527688 S    
P3    C56   1.844775 S    
C21   H40   1.063152 S    
C45   H52   1.084972 S    
C33   C35   1.423898 A    
C51   H57   1.083994 S    
C15   H33   1.109717 S    
C17   H38   1.077860 S    
P4    Ba2   3.432255 S    
C5    H10   1.110971 S    
N2    O27   1.302533 A    
C48   C50   1.494167 S    
C34   C38   1.432016 A    
N1    O25   1.300842 A    
C41   H50   1.082345 S    
C1    H22   1.112575 S    
C32   C33   1.393443 A    
C40   H49   1.082005 S    
O6    C10   1.411279 S    
C12   C57   1.521567 S    
O10   C8    1.401731 S    
C42   H51   1.072409 S    
