data_mof_unit_34097.cif
_audit_creation_date              2012-12-10T17:17:50-0500
_audit_creation_method            fapswitch 2.2
_symmetry_space_group_name_H-M    P1
_symmetry_Int_Tables_number       1
_space_group_crystal_system       triclinic
_cell_length_a                    14.935988
_cell_length_b                    15.770019
_cell_length_c                    9.57235
_cell_angle_alpha                 90.000662
_cell_angle_beta                  90.296248
_cell_angle_gamma                 90.0
_cell_volume                      2254.6489776

loop_
_atom_site_label
_atom_site_type_symbol
_atom_type_description
_atom_site_fract_x
_atom_site_fract_y
_atom_site_fract_z
_atom_type_partial_charge
C1    C     C_R   0.386526 0.876672 0.500420 0.824466
C2    C     C_R   0.386525 0.123328 0.500421 0.824476
C3    C     C_R   0.886525 0.376672 0.500420 0.824466
C4    C     C_R   0.886525 0.623327 0.500421 0.824476
C5    C     C_R   0.282047 0.218671 0.378527 -0.206245
C6    C     C_R   0.282046 0.781327 0.378530 -0.206252
C7    C     C_R   0.782047 0.718671 0.378527 -0.206245
C8    C     C_R   0.782046 0.281327 0.378530 -0.206252
C9    C     C_R   0.713161 0.777110 0.380026 -0.210139
C10   C     C_R   0.713161 0.222888 0.380031 -0.210141
C11   C     C_R   0.213161 0.277110 0.380026 -0.210139
C12   C     C_R   0.213161 0.722888 0.380031 -0.210141
C13   C     C_R   0.680478 0.808213 0.506961 -0.114463
C14   C     C_R   0.680485 0.191781 0.506965 -0.114461
C15   C     C_R   0.180478 0.308212 0.506961 -0.114463
C16   C     C_R   0.180485 0.691782 0.506965 -0.114461
C17   C     C_R   0.664788 0.999997 0.145358 -0.152634
C18   C     C_R   0.164788 0.499997 0.145358 -0.152634
C19   C     C_R   0.745254 0.999993 0.073468 -0.233485
C20   C     C_R   0.245254 0.499993 0.073468 -0.233485
C21   C     C_R   0.745186 0.999993 0.929515 -0.180935
C22   C     C_R   0.245186 0.499993 0.929515 -0.180935
C23   C     C_R   0.664650 0.999997 0.856601 -0.128918
C24   C     C_R   0.164650 0.499997 0.856601 -0.128918
C25   C     C_R   0.581012 0.999998 0.925543 0.134845
C26   C     C_R   0.081012 0.499998 0.925543 0.134845
C27   C     C_R   0.581002 0.999999 0.075310 0.194541
C28   C     C_R   0.081002 0.499999 0.075310 0.194541
C29   C     C_R   0.423211 0.000001 0.074799 -0.105396
C30   C     C_R   0.923211 0.500001 0.074799 -0.105396
C31   C     C_R   0.615505 0.122093 0.501447 0.770064
C32   C     C_R   0.615502 0.877904 0.501446 0.770062
C33   C     C_R   0.115505 0.622093 0.501447 0.770064
C34   C     C_R   0.115502 0.377904 0.501446 0.770062
C35   C     C_R   0.422555 0.000001 0.927421 0.235595
C36   C     C_R   0.922555 0.500000 0.927421 0.235595
C37   C     C_R   0.353288 0.230359 0.753826 -0.134255
C38   C     C_R   0.353302 0.769634 0.753816 -0.134241
C39   C     C_R   0.853288 0.730359 0.753826 -0.134255
C40   C     C_R   0.853302 0.269634 0.753816 -0.134241
C41   C     C_R   0.317668 0.252881 0.882783 -0.133301
C42   C     C_R   0.317691 0.747109 0.882774 -0.133316
C43   C     C_R   0.817668 0.752881 0.882783 -0.133301
C44   C     C_R   0.817691 0.247109 0.882774 -0.133316
C45   C     C_R   0.729379 0.779768 0.890851 -0.125247
C46   C     C_R   0.729410 0.220217 0.890848 -0.125273
C47   C     C_R   0.229379 0.279768 0.890851 -0.125247
C48   C     C_R   0.229410 0.720217 0.890848 -0.125273
C49   C     C_R   0.679944 0.792668 0.768750 -0.157307
C50   C     C_R   0.679970 0.207316 0.768754 -0.157328
C51   C     C_R   0.179944 0.292668 0.768750 -0.157307
C52   C     C_R   0.179970 0.707316 0.768754 -0.157328
C53   C     C_R   0.718836 0.779397 0.635421 0.095397
C54   C     C_R   0.718850 0.220592 0.635422 0.095396
C55   C     C_R   0.218836 0.279397 0.635421 0.095397
C56   C     C_R   0.218851 0.720592 0.635422 0.095396
C57   C     C_R   0.300516 0.234947 0.630478 0.107949
C58   C     C_R   0.300526 0.765047 0.630474 0.107957
C59   C     C_R   0.800516 0.734947 0.630478 0.107949
C60   C     C_R   0.800526 0.265047 0.630474 0.107957
C61   C     C_R   0.325344 0.195789 0.502933 -0.121994
C62   C     C_R   0.325347 0.804208 0.502931 -0.121993
C63   C     C_R   0.825344 0.695789 0.502933 -0.121994
C64   C     C_R   0.825347 0.304208 0.502931 -0.121993
Cu1   Cu    Cu3+1 0.499990 0.000000 0.640660 0.938428
Cu2   Cu    Cu3+1 0.999990 0.500000 0.640660 0.938428
Cu3   Cu    Cu3+1 0.500010 0.000000 0.359340 0.931774
Cu4   Cu    Cu3+1 0.000010 0.500000 0.359340 0.931774
H1    H     H_    0.301292 0.191356 0.279252 0.165923
H2    H     H_    0.301284 0.808647 0.279256 0.165927
H3    H     H_    0.801292 0.691356 0.279252 0.165923
H4    H     H_    0.801284 0.308647 0.279256 0.165927
H5    H     H_    0.808023 0.999991 0.873574 0.157856
H6    H     H_    0.308023 0.499991 0.873574 0.157856
H7    H     H_    0.672217 0.999999 0.746484 0.206898
H8    H     H_    0.172217 0.499999 0.746484 0.206898
H9    H     H_    0.422603 0.210758 0.752116 0.146690
H10   H     H_    0.422616 0.789235 0.752101 0.146677
H11   H     H_    0.922603 0.710758 0.752116 0.146690
H12   H     H_    0.922616 0.289235 0.752101 0.146677
H13   H     H_    0.357691 0.246800 0.976873 0.133096
H14   H     H_    0.357715 0.753188 0.976860 0.133102
H15   H     H_    0.857691 0.746799 0.976873 0.133096
H16   H     H_    0.857715 0.253188 0.976860 0.133102
H17   H     H_    0.699626 0.792439 0.991633 0.136315
H18   H     H_    0.699665 0.207546 0.991632 0.136327
H19   H     H_    0.199626 0.292439 0.991633 0.136315
H20   H     H_    0.199665 0.707546 0.991632 0.136327
H21   H     H_    0.610652 0.809867 0.782138 0.159289
H22   H     H_    0.610683 0.190115 0.782151 0.159310
H23   H     H_    0.110652 0.309867 0.782138 0.159289
H24   H     H_    0.110683 0.690115 0.782151 0.159310
H25   H     H_    0.684394 0.796790 0.281068 0.164095
H26   H     H_    0.684389 0.203210 0.281075 0.164098
H27   H     H_    0.184394 0.296790 0.281068 0.164095
H28   H     H_    0.184389 0.703210 0.281075 0.164098
H29   H     H_    0.360661 0.000001 0.131304 0.163087
H30   H     H_    0.860661 0.500001 0.131304 0.163087
H31   H     H_    0.672578 0.999998 0.255577 0.206194
H32   H     H_    0.172578 0.499998 0.255577 0.206194
H33   H     H_    0.808173 0.999991 0.130191 0.156898
H34   H     H_    0.308173 0.499991 0.130191 0.156898
N1    N     N_R   0.501200 0.000000 0.147910 -0.214299
N2    N     N_R   0.001200 0.500000 0.147910 -0.214299
N3    N     N_R   0.501270 0.000000 0.852040 -0.227977
N4    N     N_R   0.001270 0.500000 0.852040 -0.227977
O1    O     O_R   0.409820 0.909830 0.618810 -0.558652
O2    O     O_R   0.409820 0.090170 0.618810 -0.558655
O3    O     O_R   0.909820 0.409830 0.618810 -0.558652
O4    O     O_R   0.909820 0.590170 0.618810 -0.558655
O5    O     O_R   0.409840 0.909830 0.381240 -0.581634
O6    O     O_R   0.409840 0.090170 0.381240 -0.581635
O7    O     O_R   0.909840 0.409830 0.381240 -0.581634
O8    O     O_R   0.909840 0.590170 0.381240 -0.581635
O9    O     O_R   0.590170 0.090170 0.618760 -0.619552
O10   O     O_R   0.590170 0.909830 0.618760 -0.619548
O11   O     O_R   0.090170 0.590170 0.618760 -0.619552
O12   O     O_R   0.090170 0.409830 0.618760 -0.619548
O13   O     O_R   0.590190 0.090180 0.381190 -0.598531
O14   O     O_R   0.590190 0.909820 0.381190 -0.598533
O15   O     O_R   0.090190 0.590180 0.381190 -0.598531
O16   O     O_R   0.090190 0.409820 0.381190 -0.598533
I1    I     I_    0.292644 0.000001 0.836635 -0.366395
I2    I     I_    0.792644 0.500001 0.836635 -0.366395

loop_
_geom_bond_atom_site_label_1
_geom_bond_atom_site_label_2
_ccdc_geom_bond_type
C34   O12   A    
Cu2   Cu4   S    
C58   C62   A    
C40   C60   A    
C43   H15   S    
C13   C32   S    
C42   H14   S    
C14   C31   S    
C3    O7    A    
C1    C62   S    
C26   N4    A    
C30   N2    A    
C53   C59   A    
Cu3   N1    S    
C54   C60   A    
C3    C64   S    
C33   O11   A    
C4    C63   S    
C2    O6    A    
C50   C54   A    
C4    O8    A    
C36   I2    S    
C24   C26   A    
C5    C11   A    
C20   C22   A    
C6    C12   A    
C20   H34   S    
C10   H26   S    
C21   H5    S    
C29   N1    A    
C6    H2    S    
C31   O9    A    
C9    C13   A    
C5    H1    S    
C51   H23   S    
C38   C58   A    
C11   C15   A    
C50   H22   S    
C12   C16   A    
Cu1   Cu3   S    
Cu2   O11   S    
C48   H20   S    
Cu3   O14   S    
C15   C34   S    
C18   C20   A    
C2    C61   S    
Cu4   O7    S    
C39   C59   A    
C34   O16   A    
C33   O15   A    
Cu1   O9    S    
C18   H32   S    
Cu2   N4    S    
Cu1   N3    S    
C2    O2    A    
C44   C46   A    
C46   C50   A    
C13   C53   A    
C8    H4    S    
C25   N3    A    
C17   C27   A    
C18   C28   A    
C7    C63   A    
Cu4   O16   S    
C24   H8    S    
C39   C43   A    
C38   H10   S    
C36   N4    A    
C32   O10   A    
C47   H19   S    
C45   H17   S    
C16   C56   A    
C35   N3    A    
C16   C33   S    
C43   C45   A    
C28   N2    A    
C45   C49   A    
C41   H13   S    
C40   H12   S    
C41   C47   A    
C5    C61   A    
C42   C48   A    
Cu2   O4    S    
C17   H31   S    
C31   O13   A    
C39   H11   S    
C8    C64   A    
Cu3   O5    S    
C14   C54   A    
C1    O1    A    
C55   C57   A    
C10   C14   A    
Cu1   O10   S    
C22   C24   A    
C52   H24   S    
C22   H6    S    
C40   C44   A    
C9    H25   S    
C11   H27   S    
C7    C9    A    
C4    O4    A    
C49   H21   S    
Cu1   O2    S    
C19   C21   A    
C59   C63   A    
Cu4   N2    S    
C23   H7    S    
C44   H16   S    
Cu4   O15   S    
C47   C51   A    
C57   C61   A    
C29   H29   S    
C25   C27   A    
C29   C35   A    
C30   H30   S    
C26   C28   A    
C30   C36   A    
C60   C64   A    
C6    C62   A    
C21   C23   A    
C1    O5    A    
C7    H3    S    
C19   H33   S    
C37   H9    S    
C3    O3    A    
C49   C53   A    
C35   I1    S    
C17   C19   A    
C56   C58   A    
C51   C55   A    
C23   C25   A    
Cu2   O3    S    
C37   C41   A    
C38   C42   A    
Cu3   O6    S    
C48   C52   A    
C8    C10   A    
Cu2   O12   S    
Cu4   O8    S    
C12   H28   S    
C32   O14   A    
Cu3   O13   S    
C27   N1    A    
Cu1   O1    S    
C37   C57   A    
C52   C56   A    
C15   C55   A    
C46   H18   S    
