data_mof_unit_63290.cif
_audit_creation_date              2012-12-10T17:10:58-0500
_audit_creation_method            fapswitch 2.2
_symmetry_space_group_name_H-M    P1
_symmetry_Int_Tables_number       1
_space_group_crystal_system       triclinic
_cell_length_a                    18.584945
_cell_length_b                    18.266108
_cell_length_c                    18.872661
_cell_angle_alpha                 108.373414
_cell_angle_beta                  109.8925
_cell_angle_gamma                 108.371755
_cell_volume                      5036.25103914

loop_
_atom_site_label
_atom_site_type_symbol
_atom_type_description
_atom_site_fract_x
_atom_site_fract_y
_atom_site_fract_z
_atom_type_partial_charge
Br1   Br    Br    0.512456 0.291282 0.566569 -0.319079
Br2   Br    Br    0.229657 0.234734 0.014800 -0.139406
Br3   Br    Br    0.919291 0.989450 0.694340 -0.409008
Br4   Br    Br    0.370911 0.443079 0.183040 -0.143340
Br5   Br    Br    0.114055 0.302704 0.107223 -0.259321
Br6   Br    Br    0.174542 0.384600 0.336171 -0.358016
Br7   Br    Br    0.741220 0.755134 0.713595 -0.228826
Br8   Br    Br    0.768464 0.524301 0.984147 -0.347683
Br9   Br    Br    0.423781 0.420821 0.692838 -0.302365
Br10  Br    Br    0.379716 0.705197 0.415803 -0.163277
Br11  Br    Br    0.313234 0.181041 0.321193 -0.203038
Br12  Br    Br    0.001731 0.213473 0.397832 -0.189291
Br13  Br    Br    0.156324 0.826068 0.448779 -0.164809
Br14  Br    Br    0.909978 0.374409 0.714791 -0.300737
Br15  Br    Br    0.193690 0.398539 0.991421 -0.321039
C1    C     C_R   0.624081 0.620785 0.504455 0.956630
C2    C     C_R   0.777747 0.733917 0.569627 -0.120861
C3    C     C_R   0.689420 0.689801 0.504850 -0.158289
C4    C     C_R   0.381130 0.502693 0.380745 1.018242
C5    C     C_R   0.665720 0.697997 0.429758 0.326451
C6    C     C_R   0.729290 0.751285 0.419335 0.354351
C7    C     C_R   0.817208 0.790971 0.481704 -0.190236
C8    C     C_R   0.581957 0.366375 0.688325 0.150362
C9    C     C_R   0.561424 0.334869 0.741590 0.339065
C10   C     C_R   0.618512 0.380810 0.829797 0.310784
C11   C     C_R   0.701777 0.448906 0.862473 0.224807
C12   C     C_3   0.199858 0.422207 0.192779 0.184074
C13   C     C_R   0.727909 0.469198 0.805442 -0.097406
C14   C     C_R   0.662211 0.441806 0.724066 -0.126531
C15   C     C_R   0.682361 0.486945 0.679834 -0.125986
C16   C     C_R   0.381801 0.378878 0.501846 0.911212
C17   C     C_R   0.767628 0.530727 0.697236 0.313483
C18   C     C_R   0.835004 0.542121 0.768206 0.411992
C19   C     C_R   0.815698 0.510648 0.822955 -0.170211
C20   C     C_R   0.230595 0.211652 0.345031 0.209820
C21   C     C_R   0.147961 0.177517 0.275271 0.308279
C22   C     C_R   0.078760 0.176955 0.290185 0.353937
C23   C     C_3   0.218201 0.452635 0.285863 0.180922
C24   C     C_R   0.088063 0.193924 0.371769 0.275309
C25   C     C_R   0.167938 0.213221 0.437447 -0.131896
C26   C     C_R   0.241666 0.243551 0.429062 -0.123079
C27   C     C_R   0.319139 0.310612 0.505376 -0.124824
C28   C     C_R   0.616593 0.493944 0.619067 0.944687
C29   C     C_R   0.325667 0.323676 0.586005 0.240106
C30   C     C_R   0.258624 0.264419 0.588479 0.375550
C31   C     C_R   0.179908 0.205557 0.512265 -0.182075
C32   C     C_R   0.998708 0.621282 0.117582 0.973912
C33   C     C_R   0.123786 0.502261 0.127357 1.031979
C34   C     C_3   0.314772 0.505728 0.316997 -0.405512
C35   C     C_R   0.008386 0.379679 0.887667 0.934870
C36   C     C_R   0.882688 0.503957 0.885319 0.968174
C37   C     C_R   0.993415 0.116253 0.618060 0.934549
C38   C     C_R   0.881503 0.870421 0.491206 0.947376
C39   C     C_R   0.006967 0.884968 0.381272 0.932736
C40   C     C_3   0.304141 0.586676 0.322400 0.198406
C41   C     C_R   0.118249 0.127584 0.505988 0.942501
C42   C     C_R   0.916468 0.730223 0.076550 0.267001
C43   C     C_R   0.865696 0.771724 0.060034 0.332167
C44   C     C_R   0.884061 0.847136 0.127353 0.296757
C45   C     C_R   0.808313 0.747954 0.655580 0.202934
C46   C     C_R   0.948036 0.874702 0.209467 0.330955
C47   C     C_R   0.974610 0.815600 0.229180 -0.110776
C48   C     C_R   0.962400 0.743327 0.161250 -0.122719
C49   C     C_R   0.003789 0.693875 0.182372 -0.144284
C50   C     C_R   0.069866 0.729090 0.266341 0.335241
C51   C     C_R   0.073382 0.792376 0.333715 0.256937
C52   C     C_3   0.206269 0.532863 0.289502 0.347456
C53   C     C_R   0.019426 0.830911 0.314881 -0.186187
C54   C     C_R   0.109623 0.278378 0.910605 0.174754
C55   C     C_R   0.127210 0.210808 0.919725 0.243029
C56   C     C_R   0.896187 0.772245 0.706304 0.344341
C57   C     C_R   0.070741 0.123702 0.855614 0.319539
C58   C     C_R   0.010038 0.106815 0.776194 0.211698
C59   C     C_R   0.007876 0.177533 0.762034 -0.101850
C60   C     C_R   0.040872 0.257796 0.832583 -0.101278
C61   C     C_R   0.007136 0.314452 0.818799 -0.137266
C62   C     C_R   0.960773 0.300824 0.735356 0.204850
C63   C     C_R   0.953595 0.234632 0.666824 0.362842
C64   C     C_3   0.189303 0.503352 0.196978 -0.403024
C65   C     C_R   0.980010 0.173514 0.680915 -0.179310
C66   C     C_3   0.287145 0.557204 0.229696 0.307641
C67   C     C_R   0.951246 0.777363 0.670514 0.322618
C68   C     C_3   0.297768 0.475758 0.224756 0.222645
C69   C     C_R   0.923031 0.773002 0.589678 0.337420
C70   C     C_R   0.840109 0.765522 0.546115 -0.116949
Cl1   Cl    Cl    0.141476 0.558367 0.334283 -0.339469
Cl2   Cl    Cl    0.979682 0.150592 0.205984 -0.277125
Cl3   Cl    Cl    0.269697 0.270366 0.687359 -0.404776
Cl4   Cl    Cl    0.158615 0.707019 0.285140 -0.441114
Cl5   Cl    Cl    0.950187 0.700624 0.000988 -0.461143
Cl6   Cl    Cl    0.793548 0.740775 0.953548 -0.334417
Cl7   Cl    Cl    0.837921 0.914278 0.107504 -0.289873
Cl8   Cl    Cl    0.015904 0.987854 0.275135 -0.540519
Cl9   Cl    Cl    0.338240 0.629309 0.195998 -0.304820
Cl10  Cl    Cl    0.079846 0.036374 0.872181 -0.327822
Cl11  Cl    Cl    0.912926 0.231649 0.565776 -0.382984
Cl12  Cl    Cl    0.056813 0.792974 0.728355 -0.268992
Cl13  Cl    Cl    0.555063 0.646432 0.351247 -0.418067
Cl14  Cl    Cl    0.936969 0.792896 0.813858 -0.265123
Cl15  Cl    Cl    0.984768 0.761223 0.537172 -0.412667
Cl16  Cl    Cl    0.697608 0.761431 0.324568 -0.381020
Cl17  Cl    Cl    0.788374 0.559283 0.622272 -0.513520
Cl18  Cl    Cl    0.463345 0.239188 0.698469 -0.355079
Cl19  Cl    Cl    0.586754 0.350352 0.898713 -0.318007
Cl20  Cl    Cl    0.941642 0.595012 0.784148 -0.316955
Cl21  Cl    Cl    0.131466 0.137640 0.169815 -0.293269
O1    O     O_R   0.592050 0.539910 0.448690 -0.575904
O2    O     O_R   0.051390 0.091590 0.643040 -0.596925
O3    O     O_R   0.856260 0.908400 0.447890 -0.570151
O4    O     O_R   0.591210 0.643330 0.551330 -0.580496
O5    O     O_R   0.960490 0.908380 0.552100 -0.582281
O6    O     O_R   0.948610 0.908430 0.356980 -0.590637
O7    O     O_R   0.052850 0.908400 0.461190 -0.571981
O8    O     O_R   0.039510 0.091640 0.447910 -0.574262
O9    O     O_R   0.143740 0.091610 0.552120 -0.566606
O10   O     O_R   0.408100 0.448300 0.356370 -0.578000
O11   O     O_R   0.407270 0.551720 0.459020 -0.588271
O12   O     O_R   0.054880 0.643340 0.094680 -0.561699
O13   O     O_R   0.408790 0.356670 0.448670 -0.578352
O14   O     O_R   0.407950 0.460090 0.551310 -0.588938
O15   O     O_R   0.592730 0.448280 0.540980 -0.568777
O16   O     O_R   0.591900 0.551700 0.643630 -0.576557
O17   O     O_R   0.951420 0.539930 0.094700 -0.582839
O18   O     O_R   0.044450 0.448300 0.096090 -0.587021
O19   O     O_R   0.147910 0.551710 0.096070 -0.561736
O20   O     O_R   0.952850 0.356690 0.912870 -0.607352
O21   O     O_R   0.056310 0.460100 0.912850 -0.566512
O22   O     O_R   0.859820 0.448320 0.911480 -0.619047
O23   O     O_R   0.963280 0.551730 0.911460 -0.532520
O24   O     O_R   0.947150 0.091620 0.538830 -0.565707
Zn1   Zn    Zn3+2 0.500560 0.430950 0.431460 1.208625
Zn2   Zn    Zn3+2 0.499440 0.569050 0.568540 1.194482
Zn3   Zn    Zn3+2 0.934790 0.430970 0.003790 1.166258
Zn4   Zn    Zn3+2 0.072940 0.569060 0.003760 1.256082
Zn5   Zn    Zn3+2 0.930400 0.000020 0.430430 1.218993
Zn6   Zn    Zn3+2 0.069600 0.999990 0.569590 1.209287

loop_
_geom_bond_atom_site_label_1
_geom_bond_atom_site_label_2
_ccdc_geom_bond_type
O19   Zn4   S    
C51   C53   A    
C66   Cl9   S    
C16   C27   S    
O3    Zn5   S    
Br8   C11   S    
C58   C59   A    
O24   Zn5   S    
O21   Zn4   S    
C36   O23   A    
C1    O4    A    
C23   C34   S    
C62   C63   A    
C50   Cl4   S    
O10   Zn1   S    
C19   C36   S    
C14   C15   A    
O18   Zn3   S    
O17   Zn3   S    
C2    C70   A    
C36   O22   A    
C8    C14   A    
C33   C64   S    
C21   C22   A    
O2    Zn6   S    
C12   C64   S    
C63   C65   A    
O5    Zn6   S    
Br14  C62   S    
C39   C53   S    
O9    Zn6   S    
C12   C23   S    
C39   O7    A    
C26   C27   A    
C7    C70   A    
O11   Zn2   S    
C1    O1    A    
C33   O19   A    
Br5   C12   S    
C57   Cl10  S    
C32   O12   A    
C20   C21   A    
O20   Zn3   S    
C63   Cl11  S    
Br9   C29   S    
O7    Zn6   S    
O13   Zn1   S    
C8    C9    A    
Br6   C23   S    
O4    Zn2   S    
C35   O20   A    
C40   C66   S    
C43   Cl6   S    
C28   O15   A    
O12   Zn4   S    
C56   C67   A    
C6    Cl16  S    
C38   O5    A    
C13   C19   A    
C59   C65   A    
C6    C7    A    
C46   C47   A    
C27   C29   A    
O15   Zn1   S    
Br3   C58   S    
O16   Zn2   S    
C66   C68   S    
C42   C48   A    
C7    C38   S    
Br13  C51   S    
Br15  C54   S    
C44   C46   A    
C42   Cl5   S    
C21   Cl21  S    
C69   Cl15  S    
C30   Cl3   S    
C52   C64   S    
C9    C10   A    
O1    Zn1   S    
C59   C60   A    
C32   C49   S    
C64   C66   S    
C45   C56   A    
C43   C44   A    
C30   C31   A    
C56   Cl14  S    
O23   Zn4   S    
C25   C31   A    
C60   C61   A    
C47   C48   A    
C35   C61   S    
C4    C34   S    
C32   O17   A    
O8    Zn5   S    
C5    C6    A    
C2    C3    A    
C18   Cl20  S    
C69   C70   A    
Br10  C40   S    
C28   O16   A    
C16   O13   A    
C25   C26   A    
Br1   C8    S    
C67   C69   A    
C67   Cl12  S    
C17   Cl17  S    
C15   C28   S    
O6    Zn5   S    
Br7   C45   S    
C24   C25   A    
C29   C30   A    
C38   O3    A    
C13   C14   A    
C52   Cl1   S    
O14   Zn2   S    
C22   Cl2   S    
C57   C58   A    
C33   O18   A    
C40   C52   S    
C10   Cl19  S    
C11   C13   A    
C47   C53   A    
C9    Cl18  S    
C37   O24   A    
C49   C50   A    
C34   C68   S    
Br12  C24   S    
C12   C68   S    
C10   C11   A    
C22   C24   A    
C34   C40   S    
O22   Zn3   S    
C17   C18   A    
C15   C17   A    
C61   C62   A    
C42   C43   A    
Br4   C68   S    
Br2   C55   S    
C4    O10   A    
Br11  C20   S    
C41   O9    A    
C18   C19   A    
C54   C60   A    
C3    C5    A    
C44   Cl7   S    
C54   C55   A    
C20   C26   A    
C16   O14   A    
C2    C45   A    
C48   C49   A    
C5    Cl13  S    
C23   C52   S    
C4    O11   A    
C1    C3    S    
C50   C51   A    
C31   C41   S    
C41   O8    A    
C39   O6    A    
C37   O2    A    
C55   C57   A    
C35   O21   A    
C37   C65   S    
C46   Cl8   S    
