data_mof_unit_48578.cif
_audit_creation_date              2012-12-10T18:09:45-0500
_audit_creation_method            fapswitch 2.2
_symmetry_space_group_name_H-M    P1
_symmetry_Int_Tables_number       1
_space_group_crystal_system       triclinic
_cell_length_a                    11.141913
_cell_length_b                    12.873173
_cell_length_c                    13.510342
_cell_angle_alpha                 82.766203
_cell_angle_beta                  100.088337
_cell_angle_gamma                 104.067162
_cell_volume                      1843.57736874

loop_
_atom_site_label
_atom_site_type_symbol
_atom_type_description
_atom_site_fract_x
_atom_site_fract_y
_atom_site_fract_z
_atom_type_partial_charge
C1    C     C_R   0.482168 0.440442 0.691143 0.843727
C2    C     C_3   0.120805 0.493717 0.510335 -0.268098
C3    C     C_3   0.046366 0.493244 0.401122 0.092079
C4    C     C_3   0.115618 0.603534 0.555597 0.509591
C5    C     C_R   0.594016 0.726893 0.072619 0.442026
C6    C     C_R   0.516673 0.595650 0.204623 -0.237996
C7    C     C_R   0.414236 0.296837 0.834336 0.225328
C8    C     C_R   0.418411 0.269710 0.938773 -0.264953
C9    C     C_R   0.449487 0.347610 0.007626 0.201783
C10   C     C_R   0.467094 0.457927 0.971870 0.023752
C11   C     C_R   0.490562 0.485611 0.871422 -0.152543
C12   C     C_R   0.743728 0.501150 0.506328 0.866433
C13   C     C_R   0.484168 0.542855 0.035746 -0.188135
C14   C     C_R   0.538443 0.650035 0.002245 -0.160383
C15   C     C_R   0.546792 0.674345 0.900777 0.430216
C16   C     C_R   0.555482 0.592007 0.848347 0.385652
C17   C     C_R   0.449933 0.526106 0.132259 0.441364
C18   C     C_R   0.590517 0.696785 0.174971 0.042770
C19   C     C_R   0.463649 0.406257 0.800018 -0.177969
C20   C     C_R   0.307586 0.081938 0.348150 0.324288
C21   C     C_R   0.671409 0.802415 0.622041 0.530304
C22   C     C_R   0.709465 0.904940 0.657652 -0.048797
C23   C     C_R   0.511836 0.559316 0.310381 0.986307
C24   C     C_R   0.631567 0.977690 0.627435 0.211429
C25   C     C_R   0.538814 0.961929 0.538680 -0.091652
C26   C     C_R   0.508392 0.856450 0.503710 -0.031072
C27   C     C_R   0.475198 0.042912 0.482331 -0.115706
C28   C     C_R   0.385894 0.013913 0.395661 -0.099106
C29   C     C_R   0.377371 0.918369 0.353536 0.135717
C30   C     C_R   0.423742 0.835970 0.413807 0.329843
C31   C     C_R   0.499414 0.153242 0.501729 0.517098
C32   C     C_R   0.338946 0.189301 0.369164 0.126885
C33   C     C_R   0.257893 0.496105 0.504331 0.972554
C34   C     C_3   0.908583 0.386364 0.562689 0.767007
C35   C     C_3   0.054710 0.384879 0.574576 0.262057
C36   C     C_3   0.910219 0.510575 0.398282 0.563130
C37   C     C_3   0.978710 0.593531 0.582481 0.242502
C38   C     C_3   0.883596 0.502184 0.513298 -0.316943
H1    H     H_    0.399070 0.186573 0.968906 0.155971
H2    H     H_    0.035665 0.412179 0.376113 0.138809
N1    N     N_R   0.433240 0.222190 0.444680 -0.189194
N2    N     N_R   0.566070 0.776970 0.554790 -0.123039
O1    O     O_R   0.468120 0.366740 0.627160 -0.684440
O2    O     O_R   0.510770 0.544830 0.662520 -0.531093
O3    O     O_R   0.663880 0.410950 0.482330 -0.548945
O4    O     O_R   0.706530 0.589040 0.517700 -0.602742
O5    O     O_R   0.489230 0.455170 0.337480 -0.544512
O6    O     O_R   0.531880 0.633260 0.372840 -0.543611
O7    O     O_R   0.293470 0.410960 0.482300 -0.663251
O8    O     O_R   0.336120 0.589050 0.517670 -0.520161
Zn1   Zn    Zn3+2 0.471520 0.381090 0.476390 0.980971
Zn2   Zn    Zn3+2 0.528480 0.618910 0.523610 1.051687
O9    O     O_3   0.838046 0.308250 0.498136 -0.708555
H3    H     H_    0.799197 0.243411 0.538226 0.390572
N3    N     N_2   0.163226 0.701746 0.489212 -0.252766
H4    H     H_    0.251802 0.742502 0.516888 0.255905
C39   C     C_3   0.106251 0.771787 0.410925 -0.664500
H5    H     H_    0.154442 0.856683 0.421365 0.216386
H6    H     H_    0.009236 0.771373 0.411262 0.231435
H7    H     H_    0.117408 0.756405 0.334893 0.287526
N4    N     N_2   0.893453 0.612243 0.342519 -0.276423
H8    H     H_    0.824549 0.642018 0.362939 0.199269
C40   C     C_3   0.884332 0.621966 0.232855 -0.721358
H9    H     H_    0.915643 0.707556 0.205364 0.225708
H10   H     H_    0.786128 0.591269 0.198175 0.211074
H11   H     H_    0.943041 0.576641 0.205794 0.269630
O10   O     O_3   0.112900 0.569456 0.334607 -0.782302
H12   H     H_    0.172005 0.536512 0.309446 0.329093
N5    N     N_2   0.670643 0.763554 0.247798 -0.279322
H13   H     H_    0.763256 0.781465 0.238354 0.237751
C41   C     C_3   0.632060 0.859845 0.259174 -0.638150
H14   H     H_    0.674691 0.888438 0.334323 0.212082
H15   H     H_    0.529619 0.842285 0.253177 0.266805
H16   H     H_    0.662206 0.924240 0.199881 0.248546
O11   O     O_3   0.568920 0.779054 0.859279 -0.775598
H17   H     H_    0.554730 0.777817 0.784974 0.342763
O12   O     O_3   0.667510 0.825549 0.045783 -0.744327
H18   H     H_    0.728524 0.811942 0.006568 0.350817
O13   O     O_3   0.347104 0.448569 0.155874 -0.760610
H19   H     H_    0.292689 0.425825 0.092407 0.329535
N6    N     N_2   0.362044 0.215245 0.765352 -0.282868
H20   H     H_    0.316278 0.242084 0.697884 0.257872
C42   C     C_3   0.293394 0.110329 0.802227 -0.878871
H21   H     H_    0.250768 0.060995 0.737787 0.240835
H22   H     H_    0.217477 0.118277 0.842101 0.247076
H23   H     H_    0.356427 0.066601 0.854553 0.259978
N7    N     N_2   0.475491 0.313301 0.112034 -0.276477
H24   H     H_    0.431087 0.234916 0.130571 0.204746
C43   C     C_3   0.607089 0.333035 0.153004 -0.702497
H25   H     H_    0.654975 0.285383 0.116294 0.213340
H26   H     H_    0.652311 0.419609 0.141665 0.236049
H27   H     H_    0.617554 0.308544 0.235285 0.279846
O14   O     O_3   0.868880 0.360404 0.658146 -0.812998
H28   H     H_    0.777303 0.352273 0.650221 0.333151
O15   O     O_3   0.664666 0.609708 0.809823 -0.762741
H29   H     H_    0.693810 0.542022 0.825971 0.316407
N8    N     N_2   0.291604 0.266801 0.299283 -0.216771
H30   H     H_    0.296285 0.256600 0.225934 0.251558
C44   C     C_3   0.170593 0.282816 0.308538 -0.721208
H31   H     H_    0.100273 0.254928 0.242607 0.192620
H32   H     H_    0.178956 0.369504 0.307506 0.260534
H33   H     H_    0.137073 0.239783 0.378119 0.249438
N9    N     N_2   0.327374 0.907925 0.248432 -0.246675
H34   H     H_    0.288194 0.833898 0.221967 0.217758
C45   C     C_3   0.387828 0.986074 0.174574 -0.725620
H35   H     H_    0.423811 0.944669 0.122641 0.224377
H36   H     H_    0.467522 0.046275 0.210725 0.226468
H37   H     H_    0.318509 0.028521 0.128745 0.257389
O16   O     O_3   0.202510 0.040883 0.281033 -0.762262
H38   H     H_    0.144640 0.089635 0.267953 0.339172
O17   O     O_3   0.598662 0.195444 0.569401 -0.778235
H39   H     H_    0.584101 0.260608 0.590478 0.375103
O18   O     O_3   0.738620 0.725241 0.651927 -0.687157
H40   H     H_    0.810336 0.752182 0.702819 0.363723
N10   N     N_2   0.638772 0.056118 0.694719 -0.235349
H41   H     H_    0.725025 0.086962 0.734745 0.240780
C46   C     C_3   0.537827 0.036230 0.753058 -0.710709
H42   H     H_    0.548134 0.107550 0.794731 0.256659
H43   H     H_    0.541815 0.965951 0.808740 0.270432
H44   H     H_    0.446281 0.022262 0.702836 0.247153
N11   N     N_2   0.828020 0.936399 0.719449 -0.339475
H45   H     H_    0.875738 0.013800 0.701984 0.221680
C47   C     C_3   0.832199 0.909307 0.827034 -0.765194
H46   H     H_    0.771444 0.950137 0.857575 0.279362
H47   H     H_    0.929701 0.935955 0.865406 0.226377
H48   H     H_    0.803063 0.821268 0.844527 0.284723
O19   O     O_3   0.388491 0.734181 0.384875 -0.711646
H49   H     H_    0.306990 0.721985 0.341181 0.342248
N12   N     N_2   0.114163 0.383517 0.681728 -0.283490
H50   H     H_    0.127686 0.449482 0.719855 0.292771
C48   C     C_3   0.092367 0.287163 0.751022 -0.755098
H51   H     H_    0.156691 0.301400 0.823127 0.227352
H52   H     H_    0.111587 0.218296 0.721220 0.248783
H53   H     H_    0.996106 0.265617 0.769500 0.285283
N13   N     N_2   0.077210 0.290007 0.534103 -0.290884
H54   H     H_    0.166802 0.281079 0.559577 0.261311
C49   C     C_3   0.998136 0.181682 0.538767 -0.797576
H55   H     H_    0.947441 0.165088 0.604383 0.247325
H56   H     H_    0.932918 0.168704 0.466990 0.279420
H57   H     H_    0.055837 0.120784 0.546302 0.206279
O20   O     O_3   0.821645 0.428477 0.346808 -0.715893
H58   H     H_    0.851863 0.416382 0.285296 0.327300
N14   N     N_2   0.945730 0.698762 0.567913 -0.252798
H59   H     H_    0.881852 0.718340 0.508610 0.252263
C50   C     C_3   0.019376 0.787985 0.624911 -0.780123
H60   H     H_    0.029743 0.764992 0.707191 0.238743
H61   H     H_    0.972033 0.856144 0.609311 0.243214
H62   H     H_    0.113322 0.818501 0.602859 0.228984
N15   N     N_2   0.980150 0.557212 0.691152 -0.271723
H63   H     H_    0.056922 0.590570 0.740634 0.245043
C51   C     C_3   0.874060 0.546876 0.741601 -0.662359
H64   H     H_    0.871072 0.477536 0.799748 0.227447
H65   H     H_    0.784990 0.533082 0.690160 0.279187
H66   H     H_    0.886778 0.618908 0.782705 0.234721
O21   O     O_3   0.203945 0.611001 0.645400 -0.837440
H67   H     H_    0.217111 0.682841 0.670406 0.323930

loop_
_geom_bond_atom_site_label_1
_geom_bond_atom_site_label_2
_ccdc_geom_bond_type
C2    C35   S    
C15   O11   S    
N3    H4    S    
C40   H10   S    
O14   H28   S    
C47   H46   S    
C45   H35   S    
O15   H29   S    
C34   O14   S    
N7    H24   S    
C48   H53   S    
N8    H30   S    
N15   H63   S    
N13   H54   S    
O9    H3    S    
C48   H51   S    
C49   H56   S    
C11   C19   A    
C29   C30   A    
C28   C29   A    
N12   H50   S    
N15   C51   S    
C50   H60   S    
C39   H6    S    
O3    Zn1   S    
C33   O7    A    
N14   H59   S    
O4    Zn2   S    
C17   O13   S    
C32   N8    S    
C29   N9    S    
N4    C40   S    
C34   C35   S    
C51   H66   S    
N5    C41   S    
N9    H34   S    
N6    C42   S    
C1    O1    A    
O17   H39   S    
C8    C9    A    
N10   C46   S    
O8    Zn2   S    
C51   H64   S    
C8    H1    S    
C43   H26   S    
C37   N14   S    
C9    C10   A    
C35   N12   S    
O2    Zn2   S    
C18   N5    S    
C40   H11   S    
N13   C49   S    
C13   C14   A    
N4    H8    S    
C50   H61   S    
N6    H20   S    
C7    N6    S    
C6    C18   A    
C49   H57   S    
C1    C19   S    
C23   O5    A    
C27   C31   A    
O10   H12   S    
C7    C8    A    
C24   C25   A    
C12   O4    A    
N8    C44   S    
C46   H44   S    
C35   N13   S    
C41   H15   S    
C47   H48   S    
O5    Zn1   S    
C5    C18   A    
C20   C28   A    
O7    Zn1   S    
C33   O8    A    
O12   H18   S    
C21   N2    A    
C2    C4    S    
O11   H17   S    
C37   C38   S    
C45   H36   S    
C11   C16   A    
C1    O2    A    
C42   H21   S    
O6    Zn2   S    
C32   N1    A    
C42   H23   S    
C5    C14   A    
N9    C45   S    
C45   H37   S    
C43   H27   S    
N11   H45   S    
C34   O9    S    
C2    C33   S    
C21   O18   S    
C42   H22   S    
C3    H2    S    
C26   C30   A    
C7    C19   A    
N3    C39   S    
C4    N3    S    
C22   C24   A    
O13   H19   S    
C5    O12   S    
O19   H49   S    
C6    C17   A    
O21   H67   S    
C50   H62   S    
C26   N2    A    
C22   N11   S    
O18   H40   S    
C20   C32   A    
N14   C50   S    
C36   O20   S    
C30   O19   S    
C16   O15   S    
C23   O6    A    
C31   N1    A    
C44   H32   S    
C34   C38   S    
C3    O10   S    
C37   N15   S    
C12   O3    A    
C48   H52   S    
C10   C13   A    
C41   H16   S    
C36   N4    S    
C25   C27   A    
C49   H55   S    
C46   H42   S    
C44   H31   S    
C13   C17   A    
C20   O16   S    
C46   H43   S    
C2    C3    S    
C25   C26   A    
C41   H14   S    
O20   H58   S    
C9    N7    S    
O1    Zn1   S    
C39   H5    S    
C3    C36   S    
C6    C23   S    
C36   C38   S    
C51   H65   S    
C12   C38   S    
N5    H13   S    
N11   C47   S    
C47   H47   S    
C10   C11   A    
C40   H9    S    
C39   H7    S    
C44   H33   S    
C4    C37   S    
C24   N10   S    
C4    O21   S    
O16   H38   S    
C27   C28   A    
N7    C43   S    
C31   O17   S    
C14   C15   A    
N10   H41   S    
C43   H25   S    
C21   C22   A    
N1    Zn1   S    
C15   C16   A    
N2    Zn2   S    
N12   C48   S    
