data_mof_unit_47224.cif
_audit_creation_date              2012-12-11T14:31:08-0500
_audit_creation_method            fapswitch 2.2
_symmetry_space_group_name_H-M    P1
_symmetry_Int_Tables_number       1
_space_group_crystal_system       triclinic
_cell_length_a                    6.89345
_cell_length_b                    14.331618
_cell_length_c                    16.446658
_cell_angle_alpha                 89.999953
_cell_angle_beta                  89.995172
_cell_angle_gamma                 90.0
_cell_volume                      1624.83592879

loop_
_atom_site_label
_atom_site_type_symbol
_atom_type_description
_atom_site_fract_x
_atom_site_fract_y
_atom_site_fract_z
_atom_type_partial_charge
O1    O     O_R   0.469910 0.836130 0.163900 -0.542864
O2    O     O_R   0.530090 0.163870 0.836100 -0.542864
O3    O     O_R   0.530090 0.163870 0.663900 -0.544751
O4    O     O_R   0.469910 0.836130 0.336100 -0.544756
O5    O     O_R   0.969910 0.663870 0.336100 -0.544750
O6    O     O_R   0.030090 0.336130 0.663900 -0.544751
O7    O     O_R   0.030090 0.336130 0.836100 -0.542863
O8    O     O_R   0.969910 0.663870 0.163900 -0.542862
O9    O     O_R   0.140100 0.847470 0.335520 -0.522292
O10   O     O_R   0.859900 0.152530 0.664480 -0.522295
O11   O     O_R   0.859900 0.152530 0.835520 -0.524825
O12   O     O_R   0.140100 0.847470 0.164480 -0.524827
O13   O     O_R   0.640100 0.652530 0.164480 -0.524826
O14   O     O_R   0.359900 0.347470 0.835520 -0.524823
O15   O     O_R   0.359900 0.347470 0.664480 -0.522295
O16   O     O_R   0.640100 0.652530 0.335520 -0.522294
C1    C     C_R   0.310946 0.870651 0.362846 0.774699
C2    C     C_R   0.689053 0.129349 0.637154 0.774703
C3    C     C_R   0.689791 0.131506 0.864660 0.756888
C4    C     C_R   0.310209 0.868494 0.135340 0.756894
C5    C     C_R   0.810209 0.631506 0.135340 0.756896
C6    C     C_R   0.189791 0.368494 0.864660 0.756885
C7    C     C_R   0.189053 0.370652 0.637154 0.774729
C8    C     C_R   0.810946 0.629348 0.362845 0.774727
O17   O     O_3   0.303300 0.689750 0.250000 -0.360504
O18   O     O_3   0.696700 0.310250 0.750000 -0.360503
O19   O     O_3   0.803300 0.810250 0.250000 -0.360508
O20   O     O_3   0.196700 0.189750 0.750000 -0.360504
V1    V     V_3+5 0.028490 0.761170 0.250000 1.625034
V2    V     V_3+5 0.971510 0.238830 0.750000 1.625040
V3    V     V_3+5 0.528490 0.738830 0.250000 1.625026
V4    V     V_3+5 0.471510 0.261170 0.750000 1.625036
C9    C     C_2   0.826712 0.561965 0.430839 -0.348198
C10   C     C_2   0.173288 0.438034 0.569161 -0.348192
C11   C     C_2   0.173329 0.442289 0.927589 -0.334131
C12   C     C_2   0.826670 0.557712 0.072410 -0.334126
C13   C     C_2   0.326670 0.942288 0.072410 -0.334126
C14   C     C_2   0.673330 0.057712 0.927590 -0.334134
C15   C     C_2   0.673286 0.061965 0.569162 -0.348180
C16   C     C_2   0.326712 0.938034 0.430838 -0.348194
C17   C     C_2   0.998323 0.529990 0.462547 -0.137429
C18   C     C_2   0.001676 0.470009 0.537452 -0.137427
C19   C     C_2   0.011442 0.456601 0.974242 -0.050306
C20   C     C_2   0.988556 0.543401 0.025756 -0.050312
C21   C     C_2   0.488556 0.956598 0.025756 -0.050314
C22   C     C_2   0.511442 0.043399 0.974242 -0.050310
C23   C     C_2   0.501673 0.029999 0.537447 -0.137410
C24   C     C_2   0.498323 0.970009 0.462548 -0.137428
C25   C     C_2   0.812413 0.446878 0.576123 0.858889
O21   O     O_2   0.762531 0.487808 0.637763 -0.525662
O22   O     O_R   0.690244 0.379349 0.542471 -0.658761
H1    H     H_    0.747146 0.349583 0.491924 0.259483
C26   C     C_2   0.187586 0.553121 0.423877 0.858891
O23   O     O_2   0.237468 0.512191 0.362236 -0.525660
O24   O     O_R   0.309757 0.620650 0.457528 -0.658763
H2    H     H_    0.252855 0.650416 0.508075 0.259477
C27   C     C_2   0.142032 0.616255 0.022645 0.806735
O25   O     O_2   0.306630 0.598457 0.045587 -0.549837
O26   O     O_R   0.095465 0.705731 0.995095 -0.659859
H3    H     H_    0.211084 0.749332 0.995362 0.315916
C28   C     C_2   0.857960 0.383751 0.977349 0.806735
O27   O     O_2   0.693370 0.401551 0.954401 -0.549837
O28   O     O_R   0.904510 0.294276 0.004906 -0.659863
H4    H     H_    0.788886 0.250677 0.004636 0.315912
C29   C     C_2   0.357959 0.116249 0.977349 0.806731
O29   O     O_2   0.193366 0.098447 0.954404 -0.549840
O30   O     O_R   0.404512 0.205726 0.004901 -0.659862
H5    H     H_    0.288886 0.249324 0.004632 0.315910
C30   C     C_2   0.642031 0.883744 0.022645 0.806732
O31   O     O_2   0.806631 0.901542 0.045584 -0.549838
O32   O     O_R   0.595461 0.794268 0.995097 -0.659860
H6    H     H_    0.711081 0.750666 0.995363 0.315915
C31   C     C_2   0.687589 0.946869 0.423884 0.858896
O33   O     O_2   0.737514 0.987813 0.362258 -0.525666
O34   O     O_R   0.809713 0.879315 0.457526 -0.658752
H7    H     H_    0.752777 0.849541 0.508062 0.259474
C32   C     C_2   0.312406 0.053150 0.576103 0.858877
O35   O     O_2   0.262478 0.012223 0.637739 -0.525663
O36   O     O_R   0.190280 0.120691 0.542443 -0.658760
H8    H     H_    0.247217 0.150451 0.491900 0.259492
H9    H     H_    0.310228 0.458574 0.542144 0.175030
H10   H     H_    0.689772 0.541426 0.457856 0.175031
H11   H     H_    0.705369 0.509851 0.069691 0.186725
H12   H     H_    0.294632 0.490148 0.930310 0.186736
H13   H     H_    0.794633 0.009853 0.930311 0.186739
H14   H     H_    0.205370 0.990150 0.069692 0.186727
H15   H     H_    0.189771 0.958578 0.457852 0.175026
H16   H     H_    0.810227 0.041413 0.542153 0.175020

loop_
_geom_bond_atom_site_label_1
_geom_bond_atom_site_label_2
_ccdc_geom_bond_type
O17   V3    S    
O24   H2    S    
O18   V4    S    
O12   V1    S    
O19   V1    S    
C17   C18   S    
C26   O24   S    
C10   C18   D    
C19   C20   S    
O15   V4    S    
C5    C12   S    
C32   O35   D    
O16   V3    S    
C6    C11   S    
O11   C3    A    
O8    V1    S    
C16   H15   S    
C27   O26   S    
C12   H11   S    
O1    V3    S    
O3    C2    A    
O2    V4    S    
C31   O33   D    
C30   O32   S    
C2    C15   S    
O11   V2    S    
C25   O22   S    
C10   H9    S    
C11   C19   D    
C9    H10   S    
O9    V1    S    
O15   C7    A    
O26   H3    S    
O16   C8    A    
O7    V2    S    
C31   O34   S    
C28   O27   D    
C15   H16   S    
O5    V1    S    
C32   O36   S    
O17   V1    S    
C14   H13   S    
O19   V3    S    
O30   H5    S    
C13   H14   S    
O20   V4    S    
O36   H8    S    
C22   C29   S    
C29   O30   S    
C26   O23   D    
C21   C30   S    
O22   H1    S    
C1    C16   S    
O34   H7    S    
C3    C14   S    
O10   V2    S    
C23   C24   S    
C20   C27   S    
C7    C10   S    
O12   C4    A    
C28   O28   S    
O8    C5    A    
O13   C5    A    
O3    V4    S    
C17   C26   S    
O4    C1    A    
O9    C1    A    
O6    V2    S    
O18   V2    S    
C25   O21   D    
C12   C20   D    
C23   C32   S    
C13   C21   D    
C19   C28   S    
C15   C23   D    
C16   C24   D    
O1    C4    A    
O2    C3    A    
C24   C31   S    
O13   V3    S    
O14   V4    S    
C11   H12   S    
O7    C6    A    
C8    C9    S    
C9    C17   D    
O14   C6    A    
O20   V2    S    
O32   H6    S    
C4    C13   S    
C27   O25   D    
O5    C8    A    
O10   C2    A    
O6    C7    A    
C30   O31   D    
C14   C22   D    
O4    V3    S    
C18   C25   S    
O28   H4    S    
C21   C22   S    
C29   O29   D    
