data_mof_unit_28508.cif
_audit_creation_date              2012-12-10T17:54:24-0500
_audit_creation_method            fapswitch 2.2
_symmetry_space_group_name_H-M    P1
_symmetry_Int_Tables_number       1
_space_group_crystal_system       triclinic
_cell_length_a                    27.684255
_cell_length_b                    10.603137
_cell_length_c                    9.949029
_cell_angle_alpha                 90.622682
_cell_angle_beta                  87.978539
_cell_angle_gamma                 92.272436
_cell_volume                      2916.19367118

loop_
_atom_site_label
_atom_site_type_symbol
_atom_type_description
_atom_site_fract_x
_atom_site_fract_y
_atom_site_fract_z
_atom_type_partial_charge
C1    C     C_R   0.501384 0.260953 0.499352 0.840071
C2    C     C_R   0.278009 0.444266 0.401765 -0.093917
C3    C     C_R   0.252916 0.491775 0.514501 0.295329
C4    C     C_R   0.101629 0.484656 0.502892 -0.123699
C5    C     C_R   0.125452 0.371215 0.523212 -0.203094
C6    C     C_R   0.098234 0.255964 0.532389 0.420884
C7    C     C_R   0.128704 0.599937 0.492323 0.030701
C8    C     C_R   0.353560 0.498867 0.506152 -0.037277
C9    C     C_R   0.646667 0.498066 0.492150 -0.040890
C10   C     C_R   0.972274 0.372144 0.517161 0.084136
C11   C     C_R   0.977433 0.593530 0.444508 0.046069
C12   C     C_R   0.406203 0.500423 0.501980 0.850184
C13   C     C_R   0.949608 0.482831 0.478302 0.065252
C14   C     C_R   0.942997 0.270959 0.569741 -0.183741
C15   C     C_R   0.892921 0.273127 0.569523 -0.182102
C16   C     C_R   0.870375 0.378005 0.520625 -0.016323
C17   C     C_R   0.898611 0.483609 0.475648 -0.061117
C18   C     C_R   0.875814 0.590708 0.429928 -0.016840
C19   C     C_R   0.825294 0.590275 0.430550 0.501295
C20   C     C_R   0.819971 0.381686 0.519577 0.508259
C21   C     C_R   0.721996 0.489914 0.361889 -0.101433
C22   C     C_R   0.671875 0.493657 0.367227 -0.207060
C23   C     C_R   0.501209 0.739339 0.500447 0.868764
C24   C     C_R   0.672277 0.499084 0.611474 -0.240162
C25   C     C_R   0.722397 0.495518 0.605764 -0.107844
C26   C     C_R   0.747235 0.490710 0.481075 0.320269
C27   C     C_R   0.023405 0.368702 0.508750 -0.128577
C28   C     C_R   0.050801 0.483466 0.492747 0.008684
C29   C     C_R   0.027776 0.597082 0.464243 0.096184
C30   C     C_R   0.048203 0.254451 0.512678 0.314816
C31   C     C_R   0.105370 0.712321 0.472549 -0.153588
C32   C     C_R   0.953799 0.697357 0.393089 -0.231526
C33   C     C_R   0.903808 0.695796 0.385855 -0.135853
C34   C     C_R   0.593905 0.500181 0.497778 0.837820
C35   C     C_R   0.055790 0.711120 0.458524 -0.231657
C36   C     C_R   0.583441 0.141180 0.609719 -0.175485
C37   C     C_R   0.621728 0.079919 0.664416 -0.112802
C38   C     C_R   0.621484 0.948665 0.665767 -0.121978
C39   C     C_R   0.582955 0.878263 0.612417 -0.194400
C40   C     C_R   0.543561 0.939058 0.557912 0.090952
C41   C     C_R   0.543824 0.071186 0.556424 0.096673
C42   C     C_R   0.504702 0.128971 0.498087 -0.086186
C43   C     C_R   0.467134 0.060404 0.439012 -0.227065
C44   C     C_R   0.466919 0.931627 0.440224 -0.197274
C45   C     C_R   0.176266 0.376767 0.528751 0.556752
C46   C     C_R   0.504188 0.872037 0.500986 -0.096576
C47   C     C_R   0.451727 0.304526 0.144865 -0.133621
C48   C     C_R   0.440199 0.190876 0.081382 -0.189247
C49   C     C_R   0.443564 0.183250 0.942588 -0.225631
C50   C     C_R   0.452335 0.294040 0.869036 0.010061
C51   C     C_R   0.476457 0.400746 0.930232 0.141129
C52   C     C_R   0.476494 0.402663 0.074406 0.160778
C53   C     C_R   0.522555 0.593546 0.070031 -0.111586
C54   C     C_R   0.522428 0.593735 0.927241 -0.111295
C55   C     C_R   0.178893 0.600287 0.500502 0.498312
C56   C     C_R   0.277995 0.543729 0.622757 -0.102764
C57   C     C_R   0.328267 0.547556 0.618535 -0.135146
C58   C     C_R   0.328206 0.447928 0.397366 -0.225188
H1    H     H_    0.347141 0.409783 0.309826 0.161940
H2    H     H_    0.258485 0.581316 0.709533 0.143194
H3    H     H_    0.125408 0.802101 0.466808 0.194705
H4    H     H_    0.973278 0.779997 0.354649 0.147976
H5    H     H_    0.653694 0.502494 0.708999 0.164458
H6    H     H_    0.887190 0.778078 0.346992 0.189347
H7    H     H_    0.742040 0.496616 0.698021 0.140746
H8    H     H_    0.040108 0.801714 0.447149 0.146913
H9    H     H_    0.437398 0.106886 0.394863 0.137331
H10   H     H_    0.585602 0.243087 0.608008 0.153705
H11   H     H_    0.651875 0.134477 0.704695 0.157048
H12   H     H_    0.258497 0.404919 0.317633 0.145433
H13   H     H_    0.651440 0.901214 0.707128 0.149046
H14   H     H_    0.584754 0.776589 0.612781 0.144651
H15   H     H_    0.437196 0.878044 0.395950 0.157401
H16   H     H_    0.541186 0.669975 0.122316 0.151471
H17   H     H_    0.439456 0.314680 0.247168 0.189438
H18   H     H_    0.424422 0.112357 0.138616 0.157324
H19   H     H_    0.428246 0.099082 0.894788 0.147169
H20   H     H_    0.540935 0.670265 0.872882 0.147715
H21   H     H_    0.652966 0.492607 0.273745 0.165171
H22   H     H_    0.741281 0.486009 0.265412 0.141454
H23   H     H_    0.871955 0.192835 0.609758 0.196616
H24   H     H_    0.957995 0.191233 0.617557 0.202183
H25   H     H_    0.347337 0.589226 0.702306 0.183900
N1    N     N_R   0.201401 0.489791 0.516973 -0.361346
N2    N     N_R   0.798664 0.487052 0.475782 -0.357544
N3    N     N_R   0.499540 0.498800 0.142780 -0.120007
N4    N     N_R   0.499520 0.498720 0.857170 -0.121965
O1    O     O_R   0.500000 0.316780 0.614690 -0.651751
O2    O     O_2   0.792365 0.280993 0.561783 -0.561617
O3    O     O_2   0.205268 0.709815 0.489445 -0.556252
O4    O     O_2   0.802858 0.692727 0.388515 -0.558749
O5    O     O_R   0.500000 0.316750 0.385360 -0.625737
O6    O     O_R   0.428760 0.500030 0.614650 -0.595318
O7    O     O_R   0.428750 0.500010 0.385320 -0.637877
O8    O     O_R   0.500000 0.683250 0.614640 -0.622036
O9    O     O_R   0.500000 0.683220 0.385310 -0.612073
O10   O     O_R   0.571250 0.499990 0.614680 -0.632714
O11   O     O_R   0.571240 0.499970 0.385350 -0.612232
O12   O     O_2   0.200754 0.270724 0.544312 -0.513529
Zn1   Zn    Zn3+2 0.500000 0.500020 0.653130 0.949664
Zn2   Zn    Zn3+2 0.500000 0.499980 0.346870 0.944718
C59   C     C_2   0.414075 0.308080 0.773508 0.523501
H26   H     H_    0.413075 0.251176 0.682231 0.032118
O13   O     O_2   0.379939 0.373256 0.804184 -0.587272
O14   O     O_3   0.121103 0.142645 0.544784 -0.585720
C60   C     C_3   0.107446 0.084661 0.669030 0.136078
H27   H     H_    0.112068 0.981561 0.656401 0.163401
H28   H     H_    0.068757 0.095976 0.699792 0.142332
C61   C     C_3   0.140013 0.133479 0.781286 -0.332511
H29   H     H_    0.178277 0.113894 0.754023 0.273473
H30   H     H_    0.136812 0.237144 0.793547 0.214699
C62   C     C_3   0.126048 0.070232 0.914939 -0.964654
H31   H     H_    0.088205 0.090815 0.945872 0.259359
H32   H     H_    0.150373 0.107018 0.993922 0.279918
H33   H     H_    0.129560 0.966444 0.906064 0.273746
O15   O     O_3   0.024507 0.139687 0.487803 -0.671569
C63   C     C_3   0.030624 0.105922 0.350293 0.132223
H34   H     H_    0.053155 0.021491 0.343645 0.167971
H35   H     H_    0.049002 0.180627 0.285932 0.125608
C64   C     C_3   0.981050 0.073178 0.293492 -0.355751
H36   H     H_    0.961150 0.003534 0.359584 0.228420
H37   H     H_    0.959770 0.159819 0.291586 0.236292
C65   C     C_3   0.985655 0.018579 0.151293 -0.967577
H38   H     H_    0.004284 0.088375 0.082809 0.264718
H39   H     H_    0.949073 0.995335 0.113511 0.276572
H40   H     H_    0.006370 0.930951 0.150991 0.264223

loop_
_geom_bond_atom_site_label_1
_geom_bond_atom_site_label_2
_ccdc_geom_bond_type
C10   C27   A    
C21   C26   A    
C37   H11   S    
C41   C42   A    
C48   H18   S    
C53   H16   S    
C7    C55   A    
C62   H32   S    
C65   H38   S    
C15   H23   S    
C30   O15   S    
C53   C54   A    
C23   O9    A    
C40   C46   A    
C28   C29   A    
C22   H21   S    
C55   O3    S    
C61   H30   S    
C5    C6    A    
C9    C22   A    
C65   H39   S    
C60   H27   S    
C15   C16   A    
C34   O10   A    
C56   C57   A    
C18   C19   A    
C31   H3    S    
C8    C58   A    
O7    Zn2   S    
C64   H37   S    
C16   C17   A    
C39   H14   S    
C57   H25   S    
C53   N3    A    
C64   C65   S    
C16   C20   A    
C1    O1    A    
C23   C46   S    
O9    Zn2   S    
C27   C30   A    
C12   O7    A    
C36   C41   A    
C59   H26   S    
C4    C7    A    
C62   H31   S    
C4    C28   A    
C44   C46   A    
C17   C18   A    
C7    C31   A    
C51   C52   A    
C25   H7    S    
C24   C25   A    
C10   C14   A    
C63   C64   S    
C51   N4    A    
C39   C40   A    
O8    Zn1   S    
C65   H40   S    
C35   H8    S    
C58   H1    S    
C5    C45   A    
C56   H2    S    
C49   H19   S    
C43   C44   A    
C37   C38   A    
C8    C57   A    
C3    C56   A    
C47   C48   A    
C8    C12   S    
C20   N2    A    
C36   H10   S    
C50   C51   A    
C59   O13   D    
O6    Zn1   S    
O1    Zn1   S    
O5    Zn2   S    
C54   N4    A    
C43   H9    S    
C48   C49   A    
C6    C30   A    
C11   C32   A    
C50   C59   S    
C1    O5    A    
C45   O12   S    
C9    C34   S    
C31   C35   A    
C12   O6    A    
C61   C62   S    
C45   N1    A    
C42   C43   A    
C14   H24   S    
C33   H6    S    
C3    N1    S    
O10   Zn1   S    
C64   H36   S    
N4    Zn1   S    
O14   C60   S    
C38   H13   S    
C40   C41   A    
C4    C5    A    
C19   N2    A    
C10   C13   A    
C2    C58   A    
C9    C24   A    
C47   C52   A    
C24   H5    S    
O11   Zn2   S    
C20   O2    S    
C29   C35   A    
C13   C17   A    
C32   C33   A    
C63   H35   S    
C2    C3    A    
C25   C26   A    
C47   H17   S    
C2    H12   S    
C63   H34   S    
C11   C13   A    
C38   C39   A    
C60   H28   S    
C26   N2    S    
C21   H22   S    
C52   N3    A    
C34   O11   A    
C6    O14   S    
C23   O8    A    
O15   C63   S    
C44   H15   S    
C18   C33   A    
C19   O4    S    
C32   H4    S    
C1    C42   S    
C11   C29   A    
C36   C37   A    
C49   C50   A    
C61   H29   S    
C27   C28   A    
C14   C15   A    
C55   N1    A    
C21   C22   A    
N3    Zn2   S    
C62   H33   S    
C54   H20   S    
C60   C61   S    
