data_mof_unit_38409.cif
_audit_creation_date              2012-10-26T19:03:23-0400
_audit_creation_method            fapswitch 2.2
_symmetry_space_group_name_H-M    P1
_symmetry_Int_Tables_number       1
_space_group_crystal_system       triclinic
_cell_length_a                    10.767511
_cell_length_b                    12.987912
_cell_length_c                    11.723457
_cell_angle_alpha                 99.407421
_cell_angle_beta                  93.224326
_cell_angle_gamma                 90.944908
_cell_volume                      1614.33682018

loop_
_atom_site_label
_atom_site_type_symbol
_atom_type_description
_atom_site_fract_x
_atom_site_fract_y
_atom_site_fract_z
_atom_type_partial_charge
C1    C     C_R   0.495003 0.299593 0.479038 0.570126
C2    C     C_R   0.404911 0.130679 0.377148 0.376087
C3    C     C_R   0.539185 0.136412 0.551357 -0.184754
C4    C     C_R   0.262731 0.503051 0.501054 0.565290
C5    C     C_R   0.522816 0.029133 0.544890 0.027126
C6    C     C_R   0.445487 0.971094 0.453899 -0.031054
C7    C     C_R   0.428531 0.862604 0.449548 0.008888
C8    C     C_R   0.569588 0.872877 0.622459 -0.128564
C9    C     C_R   0.582366 0.979867 0.629198 -0.103862
C10   C     C_R   0.379564 0.405719 0.026218 -0.138456
C11   C     C_R   0.391635 0.413582 0.146514 0.074513
C12   C     C_R   0.071709 0.593211 0.571512 -0.003069
C13   C     C_R   0.553529 0.540903 0.156879 0.076485
C14   C     C_R   0.548292 0.534051 0.033956 0.009336
C15   C     C_R   0.456817 0.466701 0.968078 -0.010929
C16   C     C_R   0.498226 0.700444 0.520940 0.557017
C17   C     C_R   0.445292 0.461086 0.845591 0.155842
C18   C     C_R   0.611613 0.584443 0.852687 0.022655
C19   C     C_R   0.628424 0.592708 0.974262 -0.030310
C20   C     C_R   0.737374 0.503736 0.499661 0.535724
C21   C     C_R   0.141244 0.677438 0.638618 -0.019341
C22   C     C_R   0.081675 0.759747 0.703529 0.413670
C23   C     C_R   0.129200 0.509742 0.502689 0.042148
C24   C     C_R   0.952370 0.760600 0.701540 -0.085205
C25   C     C_R   0.881940 0.679237 0.634643 -0.170515
C26   C     C_R   0.940324 0.594097 0.569584 0.017390
C27   C     C_2   0.347152 0.392862 0.778030 0.283925
C28   C     C_2   0.732920 0.661543 0.031657 0.207047
C29   C     C_2   0.338839 0.801453 0.361751 0.249172
C30   C     C_R   0.058435 0.431926 0.430049 -0.119762
C31   C     C_R   0.930304 0.432714 0.428355 -0.123670
C32   C     C_R   0.871185 0.511365 0.499263 0.031070
C33   C     C_R   0.495892 0.813711 0.532177 0.032564
C34   C     C_R   0.481176 0.187061 0.467621 0.011507
C35   C     C_R   0.386199 0.023927 0.371059 -0.088761
Cu1   Cu    Cu3+1 0.509250 0.507730 0.615930 0.963330
Cu2   Cu    Cu3+1 0.490750 0.492270 0.384070 1.022961
F1    F     F_    0.344274 0.179306 0.297081 -0.635439
F2    F     F_    0.149803 0.839937 0.767173 -0.609826
H1    H     H_    0.102889 0.369029 0.375995 0.151716
H2    H     H_    0.781880 0.685112 0.632697 0.126659
H3    H     H_    0.876923 0.370118 0.373642 0.138332
H4    H     H_    0.620741 0.835733 0.686189 0.114573
H5    H     H_    0.324462 0.984251 0.301262 0.140142
H6    H     H_    0.370168 0.319332 0.726846 0.116967
H7    H     H_    0.763822 0.726791 0.992192 0.113265
H8    H     H_    0.337373 0.811875 0.271799 0.107952
H9    H     H_    0.641073 0.023888 0.699135 0.123487
H10   H     H_    0.597658 0.180695 0.621458 0.131968
H11   H     H_    0.671927 0.629031 0.807007 0.115208
H12   H     H_    0.309839 0.351287 0.979840 0.145940
H13   H     H_    0.331905 0.366347 0.189615 0.182432
H14   H     H_    0.616793 0.594950 0.211965 0.183395
H15   H     H_    0.241628 0.681813 0.640047 0.168927
H16   H     H_    0.906241 0.825235 0.750776 0.135553
N1    N     N_R   0.523180 0.519350 0.790130 -0.253089
N2    N     N_R   0.476820 0.480650 0.209890 -0.251754
O1    O     O_R   0.506570 0.354460 0.582000 -0.544216
O2    O     O_2   0.790629 0.643258 0.118365 -0.493574
O3    O     O_2   0.264505 0.739630 0.390063 -0.482133
O4    O     O_R   0.490940 0.341410 0.386200 -0.447039
O5    O     O_R   0.327470 0.506530 0.597920 -0.487650
O6    O     O_R   0.311840 0.493480 0.402120 -0.479781
O7    O     O_R   0.509060 0.658590 0.613800 -0.525283
O8    O     O_R   0.493430 0.645540 0.418000 -0.489791
O9    O     O_R   0.688160 0.506520 0.597880 -0.511923
O10   O     O_R   0.672530 0.493470 0.402080 -0.504034
O11   O     O_2   0.238208 0.416776 0.783632 -0.496606

loop_
_geom_bond_atom_site_label_1
_geom_bond_atom_site_label_2
_ccdc_geom_bond_type
C2    C35   A    
Cu2   O4    S    
C29   O3    D    
C26   C32   A    
C6    C7    A    
C7    C29   S    
C31   H3    S    
C13   C14   A    
C16   C33   S    
C11   H13   S    
C2    F1    S    
C20   O10   A    
C13   H14   S    
C31   C32   A    
C4    O6    A    
C8    H4    S    
C18   N1    A    
C10   C15   A    
C10   C11   A    
C2    C34   A    
C12   C21   A    
C3    H10   S    
C30   H1    S    
C11   N2    A    
C21   C22   A    
C24   C25   A    
C24   H16   S    
C5    C9    A    
C35   H5    S    
C7    C33   A    
C17   N1    A    
C28   H7    S    
C21   H15   S    
C1    O1    A    
C29   H8    S    
Cu1   N1    S    
C22   F2    S    
Cu2   O10   S    
C22   C24   A    
C20   O9    A    
Cu1   Cu2   S    
Cu2   O6    S    
C1    C34   S    
C16   O8    A    
Cu1   O1    S    
C8    C33   A    
C19   C28   S    
C30   C31   A    
Cu1   O9    S    
C13   N2    A    
C27   H6    S    
C10   H12   S    
C17   C27   S    
C23   C30   A    
C4    O5    A    
C6    C35   A    
C18   H11   S    
C9    H9    S    
C15   C17   A    
C18   C19   A    
C20   C32   S    
C28   O2    D    
C25   H2    S    
C5    C6    A    
C4    C23   S    
C14   C15   A    
C12   C23   A    
C27   O11   D    
C16   O7    A    
C3    C34   A    
C3    C5    A    
C25   C26   A    
Cu1   O7    S    
C14   C19   A    
Cu2   N2    S    
Cu2   O8    S    
C12   C26   A    
C8    C9    A    
Cu1   O5    S    
C1    O4    A    
