data_mof_unit_39036.cif
_audit_creation_date              2012-12-10T16:50:18-0500
_audit_creation_method            fapswitch 2.2
_symmetry_space_group_name_H-M    P1
_symmetry_Int_Tables_number       1
_space_group_crystal_system       triclinic
_cell_length_a                    23.468818
_cell_length_b                    8.672731
_cell_length_c                    7.442392
_cell_angle_alpha                 103.054888
_cell_angle_beta                  93.94836
_cell_angle_gamma                 92.318684
_cell_volume                      1469.71385555

loop_
_atom_site_label
_atom_site_type_symbol
_atom_type_description
_atom_site_fract_x
_atom_site_fract_y
_atom_site_fract_z
_atom_type_partial_charge
C1    C     C_R   0.498280 0.199665 0.453167 0.889574
C2    C     C_R   0.501720 0.800335 0.546833 0.889582
C3    C     C_R   0.236069 0.547671 0.372726 -0.097337
C4    C     C_R   0.763932 0.452389 0.627338 -0.097365
C5    C     C_R   0.295176 0.545505 0.367210 -0.174614
C6    C     C_R   0.704826 0.454568 0.632850 -0.174610
C7    C     C_R   0.328758 0.502380 0.509459 -0.091020
C8    C     C_R   0.671240 0.497622 0.490559 -0.091036
C9    C     C_R   0.302341 0.460749 0.656895 -0.236641
C10   C     C_R   0.697656 0.539195 0.343102 -0.236628
C11   C     C_R   0.242911 0.459707 0.660551 0.322904
C12   C     C_R   0.757087 0.540250 0.339466 0.322907
C13   C     C_R   0.209706 0.503751 0.517950 0.270908
C14   C     C_R   0.790294 0.496260 0.482100 0.270925
C15   C     C_2   0.497457 0.031676 0.426838 -0.356134
C16   C     C_2   0.502543 0.968323 0.573161 -0.356136
C17   C     C_R   0.391065 0.500303 0.502927 0.817676
C18   C     C_R   0.608934 0.499691 0.497078 0.817708
C19   C     C_R   0.882715 0.636228 0.551682 0.648015
C20   C     C_R   0.117287 0.363787 0.448356 0.648017
C21   C     C_R   0.876448 0.357739 0.418755 0.605806
C22   C     C_R   0.123554 0.642274 0.581289 0.605787
C23   C     C_R   0.936699 0.353824 0.423658 -0.082994
C24   C     C_R   0.063304 0.646189 0.576384 -0.082993
C25   C     C_R   0.969765 0.498292 0.495598 -0.051766
C26   C     C_R   0.030239 0.501722 0.504443 -0.051770
C27   C     C_R   0.942469 0.639790 0.559243 -0.054533
C28   C     C_R   0.057534 0.360225 0.440794 -0.054524
C29   C     C_R   0.965351 0.212748 0.360802 0.290396
C30   C     C_R   0.034653 0.787267 0.639236 0.290402
C31   C     C_R   0.024902 0.218014 0.370010 -0.134703
C32   C     C_R   0.975101 0.782001 0.630024 -0.134700
Cu1   Cu    Cu3+1 0.506340 0.517380 0.684380 0.966387
Cu2   Cu    Cu3+1 0.493660 0.482620 0.315620 0.966389
H1    H     H_    0.045720 0.108838 0.321034 0.223689
H2    H     H_    0.954281 0.891182 0.678989 0.223689
H3    H     H_    0.210493 0.582772 0.263623 0.192225
H4    H     H_    0.789508 0.417317 0.736455 0.192248
H5    H     H_    0.314646 0.579150 0.252817 0.179482
H6    H     H_    0.685357 0.420966 0.747258 0.179501
H7    H     H_    0.327666 0.426376 0.767197 0.174807
H8    H     H_    0.672333 0.573499 0.232750 0.174815
H9    H     H_    0.492668 0.959834 0.285942 0.181352
H10   H     H_    0.507332 0.040166 0.714057 0.181352
H11   H     H_    0.454893 0.379421 0.948979 0.227935
H12   H     H_    0.545107 0.620579 0.051021 0.227936
N1    N     N_R   0.851312 0.497082 0.482205 -0.471894
N2    N     N_R   0.148689 0.502928 0.517840 -0.471898
N3    N     N_2   0.484110 0.456420 0.038520 -0.215729
N4    N     N_2   0.515890 0.543580 0.961480 -0.215732
O1    O     O_R   0.504120 0.286130 0.619770 -0.585899
O2    O     O_R   0.495880 0.713870 0.380230 -0.585895
O3    O     O_R   0.493410 0.256770 0.308360 -0.580384
O4    O     O_R   0.506590 0.743230 0.691640 -0.580383
O5    O     O_R   0.423230 0.514630 0.655730 -0.589734
O6    O     O_R   0.576770 0.485370 0.344270 -0.589742
O7    O     O_R   0.412530 0.485280 0.344320 -0.578598
O8    O     O_R   0.587470 0.514720 0.655680 -0.578617
O9    O     O_2   0.855966 0.770628 0.614017 -0.460223
O10   O     O_2   0.144036 0.229385 0.386023 -0.460225
O11   O     O_2   0.842747 0.224904 0.351883 -0.441123
O12   O     O_2   0.157255 0.775108 0.648167 -0.441130
Br1   Br    Br    0.928386 0.005739 0.259819 -0.349545
Br2   Br    Br    0.071617 0.994276 0.740213 -0.349538
Br3   Br    Br    0.208084 0.396428 0.859864 -0.438273
Br4   Br    Br    0.791911 0.603509 0.140151 -0.438343

loop_
_geom_bond_atom_site_label_1
_geom_bond_atom_site_label_2
_ccdc_geom_bond_type
Cu1   O5    S    
Cu2   O7    S    
C22   N2    A    
C29   Br1   S    
C12   Br4   S    
Cu2   O6    S    
Cu1   O8    S    
C1    C15   S    
H11   N3    S    
C22   O12   S    
C19   C27   A    
C17   O5    A    
C21   O11   S    
C3    C13   A    
C18   O6    A    
C9    C11   A    
C23   C25   A    
Cu1   Cu2   S    
C25   C26   A    
C15   H9    S    
C29   C31   A    
C21   N1    A    
C32   H2    S    
C30   C32   A    
C10   H8    S    
C1    O1    A    
C20   N2    A    
C2    O2    A    
Cu1   N4    S    
C6    C8    A    
C10   C12   A    
C31   H1    S    
C8    C10   A    
C26   C28   A    
C24   C26   A    
C30   Br2   S    
C21   C23   A    
C4    C14   A    
C22   C24   A    
C20   O10   S    
C24   C30   A    
C25   C27   A    
C15   C16   D    
C23   C29   A    
C12   C14   A    
C11   C13   A    
C6    H6    S    
C2    C16   S    
C3    H3    S    
Cu2   O3    S    
C4    C6    A    
N3    N4    D    
C2    O4    A    
C19   N1    A    
Cu1   O4    S    
C7    C9    A    
C5    H5    S    
H12   N4    S    
C5    C7    A    
Cu2   N3    S    
C1    O3    A    
Cu2   O2    S    
C20   C28   A    
C19   O9    S    
C27   C32   A    
C4    H4    S    
C14   N1    S    
C9    H7    S    
C16   H10   S    
C28   C31   A    
C8    C18   S    
Cu1   O1    S    
C11   Br3   S    
C17   O7    A    
C18   O8    A    
C3    C5    A    
C13   N2    S    
C7    C17   S    
