data_mof_unit_10190.cif
_audit_creation_date              2012-12-10T17:50:45-0500
_audit_creation_method            fapswitch 2.2
_symmetry_space_group_name_H-M    P1
_symmetry_Int_Tables_number       1
_space_group_crystal_system       triclinic
_cell_length_a                    14.782139
_cell_length_b                    14.761929
_cell_length_c                    15.893144
_cell_angle_alpha                 76.225464
_cell_angle_beta                  103.157195
_cell_angle_gamma                 114.79705
_cell_volume                      3025.508956

loop_
_atom_site_label
_atom_site_type_symbol
_atom_type_description
_atom_site_fract_x
_atom_site_fract_y
_atom_site_fract_z
_atom_type_partial_charge
C1    C     C_R   0.880461 0.312362 0.514368 0.790623
C2    C     C_R   0.119539 0.687638 0.485632 0.790623
C3    C     C_R   0.784357 0.027823 0.548048 -0.179450
C4    C     C_R   0.215643 0.972177 0.451952 -0.179450
C5    C     C_R   0.850321 0.128583 0.543971 -0.198990
C6    C     C_R   0.149679 0.871417 0.456029 -0.198991
C7    C     C_R   0.708699 0.179046 0.506248 -0.219198
C8    C     C_R   0.291301 0.820954 0.493752 -0.219197
C9    C     C_R   0.639638 0.077680 0.512941 0.064379
C10   C     C_R   0.360362 0.922320 0.487059 0.064379
C11   C     C_R   0.678954 0.000819 0.531769 0.147085
C12   C     C_R   0.321046 0.999181 0.468231 0.147085
C13   C     C_R   0.533149 0.051446 0.499587 0.015103
C14   C     C_R   0.466851 0.948554 0.500413 0.015103
C15   C     C_R   0.508913 0.874935 0.513990 -0.163159
C16   C     C_R   0.491087 0.125065 0.486010 -0.163159
C17   C     C_R   0.612567 0.899097 0.532093 0.164939
C18   C     C_R   0.387433 0.100902 0.467907 0.164939
C19   C     C_R   0.713800 0.671135 0.358150 -0.260317
C20   C     C_R   0.286200 0.328865 0.641850 -0.260317
C21   C     C_R   0.794579 0.640915 0.377561 0.368558
C22   C     C_R   0.205421 0.359085 0.622439 0.368558
C23   C     C_R   0.000012 0.499997 0.660001 0.820838
C24   C     C_R   0.999988 0.500003 0.339998 0.820838
C25   C     C_R   0.714824 0.509243 0.488018 -0.008488
C26   C     C_R   0.285176 0.490757 0.511982 -0.008488
C27   C     C_R   0.628637 0.536096 0.468185 -0.047269
C28   C     C_R   0.371362 0.463904 0.531815 -0.047269
C29   C     C_R   0.631059 0.620511 0.402592 0.029650
C30   C     C_R   0.368940 0.379489 0.597408 0.029650
C31   C     C_R   0.541047 0.483192 0.511200 0.015483
C32   C     C_R   0.458953 0.516808 0.488800 0.015483
C33   C     C_R   0.467378 0.602822 0.424776 -0.266615
C34   C     C_R   0.532621 0.397178 0.575224 -0.266615
C35   C     C_R   0.551076 0.653690 0.382098 0.377773
C36   C     C_R   0.448924 0.346310 0.617902 0.377773
C37   C     C_3   0.953834 0.403680 0.039647 -0.232587
C38   C     C_3   0.046165 0.596320 0.960353 -0.232587
C39   C     C_3   0.905413 0.461102 0.960587 0.157633
C40   C     C_3   0.094587 0.538898 0.039413 0.157633
C41   C     C_1   0.000211 0.500219 0.749603 -0.167590
C42   C     C_1   0.999789 0.499781 0.250397 -0.167590
C43   C     C_3   0.049310 0.444292 0.994875 0.177211
C44   C     C_3   0.950690 0.555708 0.005125 0.177211
C45   C     C_3   0.000298 0.500476 0.916662 0.092063
C46   C     C_3   0.999702 0.499524 0.083338 0.092063
C47   C     C_1   0.000334 0.500445 0.825027 -0.023456
C48   C     C_1   0.999666 0.499555 0.174973 -0.023456
C49   C     C_R   0.812823 0.204833 0.522191 -0.050339
C50   C     C_R   0.187177 0.795167 0.477809 -0.050339
Cu1   Cu    Cu3+1 0.081740 0.475690 0.522610 0.946148
Cu2   Cu    Cu3+1 0.918260 0.524310 0.477390 0.946147
H1    H     H_    0.279485 0.551248 0.460656 0.133720
H2    H     H_    0.720515 0.448752 0.539344 0.133720
H3    H     H_    0.716697 0.735198 0.306982 0.208213
H4    H     H_    0.283303 0.264802 0.693018 0.208213
H5    H     H_    0.410244 0.633863 0.406512 0.166539
H6    H     H_    0.589756 0.366137 0.593488 0.166539
H7    H     H_    0.916121 0.324984 0.072421 0.159311
H8    H     H_    0.083879 0.675015 0.927579 0.159311
H9    H     H_    0.316233 0.759507 0.513723 0.149854
H10   H     H_    0.683767 0.240493 0.486277 0.149854
H11   H     H_    0.069352 0.853275 0.443693 0.158159
H12   H     H_    0.930647 0.146725 0.556307 0.158159
H13   H     H_    0.817190 0.971683 0.563333 0.149079
H14   H     H_    0.182810 0.028317 0.436667 0.149079
H15   H     H_    0.463085 0.796828 0.509811 0.143413
H16   H     H_    0.536915 0.203172 0.490189 0.143412
N1    N     N_R   0.795440 0.560790 0.443380 -0.174691
N2    N     N_R   0.204560 0.439210 0.556620 -0.174691
O1    O     O_R   0.977900 0.338120 0.529810 -0.589949
O2    O     O_R   0.022100 0.661880 0.470190 -0.589949
O3    O     O_R   0.839850 0.379180 0.491620 -0.589674
O4    O     O_R   0.160150 0.620820 0.508380 -0.589674
O5    O     O_R   0.069010 0.479460 0.640020 -0.580678
O6    O     O_R   0.930990 0.520540 0.359980 -0.580678
O7    O     O_R   0.930960 0.520530 0.601820 -0.573084
O8    O     O_R   0.069040 0.479470 0.398180 -0.573084
C51   C     C_3   0.797735 0.417018 0.914998 -0.803396
H17   H     H_    0.744598 0.395086 0.962474 0.241570
H18   H     H_    0.783031 0.474218 0.860436 0.238125
H19   H     H_    0.786377 0.349301 0.888544 0.240722
C52   C     C_3   0.202265 0.582982 0.085002 -0.803397
H20   H     H_    0.255402 0.604914 0.037526 0.241570
H21   H     H_    0.213623 0.650699 0.111456 0.240722
H22   H     H_    0.216969 0.525782 0.139564 0.238125
C53   C     C_3   0.122702 0.296564 0.677909 -0.794010
H23   H     H_    0.059861 0.319744 0.668215 0.270972
H24   H     H_    0.090901 0.216978 0.666477 0.195807
H25   H     H_    0.155074 0.297804 0.748154 0.204151
C54   C     C_3   0.877298 0.703436 0.322091 -0.794010
H26   H     H_    0.940139 0.680256 0.331785 0.270972
H27   H     H_    0.844926 0.702196 0.251846 0.204151
H28   H     H_    0.909099 0.783022 0.333523 0.195807
C55   C     C_3   0.894383 0.618946 0.011635 -0.843078
H29   H     H_    0.866924 0.650349 0.944933 0.237922
H30   H     H_    0.829249 0.571048 0.047136 0.240942
H31   H     H_    0.945597 0.681960 0.047644 0.234303
C56   C     C_3   0.105617 0.381054 0.988365 -0.843078
H32   H     H_    0.133076 0.349651 0.055067 0.237922
H33   H     H_    0.054403 0.318040 0.952356 0.234303
H34   H     H_    0.170751 0.428952 0.952864 0.240942
C57   C     C_3   0.650313 0.814599 0.550080 -0.842223
H35   H     H_    0.587855 0.739120 0.549566 0.238194
H36   H     H_    0.696404 0.825670 0.499406 0.250640
H37   H     H_    0.696343 0.813444 0.615819 0.223051
C58   C     C_3   0.349687 0.185400 0.449920 -0.842223
H38   H     H_    0.412145 0.260880 0.450435 0.238194
H39   H     H_    0.303657 0.186556 0.384181 0.223051
H40   H     H_    0.303596 0.174330 0.500594 0.250640
Cl1   Cl    Cl    0.552102 0.761379 0.303685 -0.643932
Cl2   Cl    Cl    0.447898 0.238621 0.696315 -0.643932

loop_
_geom_bond_atom_site_label_1
_geom_bond_atom_site_label_2
_ccdc_geom_bond_type
C4    H14   S    
C53   H23   S    
C27   C29   A    
C24   C42   S    
C55   H29   S    
Cu1   O4    S    
C20   H4    S    
C55   H31   S    
C20   C30   A    
C40   C46   S    
C1    O1    A    
C19   C21   A    
C43   C56   S    
C8    C10   A    
C15   C17   A    
C9    C13   A    
C18   C58   S    
C38   C45   S    
Cu2   N1    S    
C2    C50   S    
C40   C43   S    
C56   H32   S    
C36   Cl2   S    
C58   H38   S    
C16   H16   S    
Cu1   N2    S    
C4    C12   A    
C2    O4    A    
C8    H9    S    
C39   C45   S    
C13   C14   A    
C58   H39   S    
C40   C52   S    
C5    C49   A    
C3    H13   S    
Cu1   O1    S    
C2    O2    A    
C44   C46   S    
C45   C47   S    
C46   C48   S    
C27   C31   A    
Cu1   Cu2   S    
C28   C32   A    
C25   H2    S    
C7    C49   A    
C4    C6    A    
Cu2   O3    S    
C10   C14   A    
C23   O5    A    
C54   H26   S    
C51   H18   S    
C24   O6    A    
Cu2   O6    S    
C23   O7    A    
C5    H12   S    
C21   N1    A    
C39   C51   S    
C6    H11   S    
C37   C43   S    
C7    H10   S    
C38   C44   S    
Cu2   O2    S    
C54   H27   S    
C9    C11   A    
C52   H20   S    
C15   H15   S    
C56   H34   S    
C41   C47   T    
C31   C34   A    
C57   H36   S    
C42   C48   T    
C22   C53   S    
C6    C50   A    
C43   C45   S    
C37   H7    S    
C10   C12   A    
C38   H8    S    
C24   O8    A    
C52   H21   S    
C20   C22   A    
C53   H24   S    
C26   N2    A    
C58   H40   S    
C13   C16   A    
C25   N1    A    
Cu2   O7    S    
C19   C29   A    
C26   H1    S    
C8    C50   A    
C35   Cl1   S    
C21   C54   S    
C19   H3    S    
C7    C9    A    
C11   C17   A    
C33   H5    S    
C56   H33   S    
C31   C32   A    
Cu1   O5    S    
C3    C5    A    
C51   H19   S    
C55   H30   S    
C39   C44   S    
C25   C27   A    
C29   C35   A    
C26   C28   A    
C23   C41   S    
C30   C36   A    
C1    O3    A    
C32   C33   A    
C28   C30   A    
C17   C57   S    
Cu1   O8    S    
C37   C39   S    
C44   C55   S    
C54   H28   S    
C38   C40   S    
C33   C35   A    
C57   H37   S    
C34   C36   A    
C3    C11   A    
C51   H17   S    
C52   H22   S    
C16   C18   A    
C53   H25   S    
C12   C18   A    
C57   H35   S    
C34   H6    S    
C14   C15   A    
C37   C46   S    
C1    C49   S    
C22   N2    A    
