data_mof_unit_47879.cif
_audit_creation_date              2012-10-26T18:51:39-0400
_audit_creation_method            fapswitch 2.2
_symmetry_space_group_name_H-M    P1
_symmetry_Int_Tables_number       1
_space_group_crystal_system       triclinic
_cell_length_a                    11.703605
_cell_length_b                    14.694526
_cell_length_c                    14.801953
_cell_angle_alpha                 65.036031
_cell_angle_beta                  103.09839
_cell_angle_gamma                 102.913865
_cell_volume                      2224.06855076

loop_
_atom_site_label
_atom_site_type_symbol
_atom_type_description
_atom_site_fract_x
_atom_site_fract_y
_atom_site_fract_z
_atom_type_partial_charge
C1    C     C_R   0.481710 0.120286 0.312480 0.544984
C2    C     C_R   0.483869 0.614439 0.093524 -0.140799
C3    C     C_R   0.700447 0.287090 0.663597 -0.157740
C4    C     C_R   0.301044 0.714024 0.334708 -0.159391
C5    C     C_R   0.666651 0.203962 0.636674 0.043050
C6    C     C_R   0.332117 0.795465 0.364338 0.043477
C7    C     C_R   0.516086 0.285382 0.508987 0.027937
C8    C     C_R   0.487979 0.716968 0.487016 0.028108
C9    C     C_R   0.546303 0.372864 0.532378 0.003103
C10   C     C_R   0.459588 0.630610 0.461776 0.001636
C11   C     C_R   0.640631 0.371627 0.611935 0.042314
C12   C     C_R   0.519390 0.879950 0.687561 0.564143
C13   C     C_R   0.364303 0.631397 0.383088 0.039578
C14   C     C_R   0.486358 0.460238 0.480934 0.023792
C15   C     C_R   0.521456 0.544327 0.511347 0.023038
C16   C     C_R   0.284119 0.000190 0.499972 0.548453
C17   C     C_R   0.715866 0.999877 0.499926 0.547253
C18   C     C_R   0.616534 0.538977 0.590711 -0.145019
C19   C     C_R   0.392603 0.466381 0.400339 -0.146331
C20   C     C_R   0.674601 0.454421 0.639735 -0.129104
C21   C     C_R   0.332942 0.550137 0.352844 -0.133743
C22   C     C_1   0.162490 0.000454 0.499976 -0.025198
C23   C     C_R   0.403904 0.321256 0.004677 0.019901
C24   C     C_1   0.837472 0.999715 0.499782 -0.029386
C25   C     C_1   0.059940 0.000300 0.499893 -0.045045
C26   C     C_1   0.940014 0.999927 0.499791 -0.046691
C27   C     C_R   0.463612 0.189519 0.205522 0.008453
C28   C     C_R   0.519493 0.811712 0.794440 0.022698
C29   C     C_R   0.378013 0.216124 0.032495 -0.148052
C30   C     C_R   0.505413 0.784779 0.965076 -0.147998
C31   C     C_R   0.403467 0.150959 0.132793 -0.166805
C32   C     C_R   0.514088 0.850040 0.865352 -0.170143
C33   C     C_R   0.498987 0.295661 0.175931 0.116402
C34   C     C_R   0.492475 0.679707 0.993504 0.019883
C35   C     C_R   0.516973 0.706619 0.824759 0.130107
C36   C     C_R   0.455800 0.361863 0.078454 0.055729
C37   C     C_R   0.487749 0.639368 0.920864 0.045957
C38   C     C_3   0.668634 0.623218 0.809318 -0.307208
C39   C     C_3   0.708932 0.314343 0.242852 -0.278988
C40   C     C_R   0.466563 0.468030 0.051051 0.040912
C41   C     C_R   0.457285 0.533141 0.947947 0.029756
C42   C     C_R   0.407178 0.490792 0.875648 -0.130441
C43   C     C_R   0.474815 0.510204 0.122602 -0.113254
C44   C     C_R   0.378132 0.386368 0.904069 -0.143397
Cu1   Cu    Cu3+1 0.469550 0.918260 0.475690 0.936363
Cu2   Cu    Cu3+1 0.530450 0.081740 0.524310 0.924950
H1    H     H_    0.336940 0.356509 0.846902 0.113594
H2    H     H_    0.775416 0.357997 0.281670 0.142041
H3    H     H_    0.730801 0.337356 0.166241 0.148669
H4    H     H_    0.714064 0.232248 0.286490 0.153501
H5    H     H_    0.517501 0.930659 0.843932 0.134776
H6    H     H_    0.376854 0.070137 0.153220 0.130321
H7    H     H_    0.335344 0.184357 0.977037 0.113885
H8    H     H_    0.505744 0.816314 0.019435 0.115811
H9    H     H_    0.381667 0.537796 0.797647 0.122907
H10   H     H_    0.465334 0.463040 0.200286 0.123326
H11   H     H_    0.746855 0.453779 0.700502 0.104393
H12   H     H_    0.486064 0.644050 0.149813 0.117624
H13   H     H_    0.261029 0.551125 0.291751 0.107892
H14   H     H_    0.561179 0.724772 0.543265 0.125284
H15   H     H_    0.445001 0.278868 0.450638 0.116046
H16   H     H_    0.283725 0.859544 0.326881 0.124187
H17   H     H_    0.712628 0.138541 0.676379 0.127656
H18   H     H_    0.772792 0.285250 0.724534 0.090682
H19   H     H_    0.228013 0.715627 0.274339 0.090675
H20   H     H_    0.648722 0.599206 0.617141 0.096461
H21   H     H_    0.362609 0.407405 0.371793 0.089009
H22   H     H_    0.507389 0.655743 0.707996 0.252808
H23   H     H_    0.645756 0.541442 0.822907 0.144406
H24   H     H_    0.710092 0.630952 0.881626 0.158300
H25   H     H_    0.734368 0.659059 0.756215 0.140836
H26   H     H_    0.572470 0.332904 0.301664 0.266481
N1    N     N_R   0.576230 0.204580 0.560790 -0.233598
N2    N     N_R   0.423770 0.795420 0.439210 -0.233483
N3    N     N_2   0.563313 0.672139 0.765417 -0.520350
N4    N     N_2   0.591896 0.335985 0.235911 -0.523673
O1    O     O_R   0.459870 0.022090 0.338120 -0.509044
O2    O     O_R   0.540130 0.977910 0.661880 -0.512845
O3    O     O_R   0.511290 0.160150 0.379180 -0.508617
O4    O     O_R   0.488710 0.839850 0.620820 -0.489965
O5    O     O_R   0.311490 0.930960 0.479480 -0.497707
O6    O     O_R   0.688510 0.069040 0.520520 -0.498793
O7    O     O_R   0.362910 0.069020 0.520540 -0.496448
O8    O     O_R   0.637090 0.930980 0.479460 -0.494290

loop_
_geom_bond_atom_site_label_1
_geom_bond_atom_site_label_2
_ccdc_geom_bond_type
C15   C18   A    
C38   H24   S    
C34   C37   A    
C1    O1    A    
C41   C42   A    
C31   H6    S    
H26   N4    S    
C7    N1    A    
C3    H18   S    
C27   C33   A    
H22   N3    S    
C30   H8    S    
C35   N3    S    
C12   C28   S    
C23   C29   A    
C35   C37   A    
C24   C26   T    
C21   H13   S    
C10   C15   A    
Cu2   O3    S    
C33   C36   A    
C5    H17   S    
C17   O6    A    
C4    C13   A    
C7    H15   S    
Cu2   O6    S    
C40   C43   A    
C28   C35   A    
C22   C25   T    
C12   O2    A    
C19   H21   S    
C44   H1    S    
C2    C34   A    
C38   H23   S    
C37   C41   A    
C42   C44   A    
C6    N2    A    
C38   N3    S    
C11   C20   A    
C17   C24   S    
C30   C34   A    
C27   C31   A    
C36   C40   A    
C4    C6    A    
Cu2   O2    S    
C25   C26   S    
Cu1   Cu2   S    
C16   O7    A    
C23   C44   A    
Cu1   N2    S    
C9    C14   A    
C32   H5    S    
C42   H9    S    
C33   N4    S    
C28   C32   A    
C2    C43   A    
C8    N2    A    
C13   C21   A    
C39   N4    S    
C9    C11   A    
C40   C41   A    
C39   H3    S    
C1    O3    A    
Cu1   O8    S    
C7    C9    A    
C38   H25   S    
C16   C22   S    
C19   C21   A    
C14   C19   A    
Cu1   O5    S    
C3    C5    A    
C10   C13   A    
C2    H12   S    
C18   H20   S    
C17   O8    A    
C6    H16   S    
C29   C31   A    
C8    H14   S    
C30   C32   A    
C4    H19   S    
C29   H7    S    
C12   O4    A    
C16   O5    A    
Cu1   O4    S    
C18   C20   A    
C5    N1    A    
C3    C11   A    
Cu2   O7    S    
C43   H10   S    
C39   H4    S    
C8    C10   A    
C23   C36   A    
C1    C27   S    
C14   C15   A    
Cu1   O1    S    
C20   H11   S    
Cu2   N1    S    
C39   H2    S    
