data_mof_unit_38548.cif
_audit_creation_date              2012-12-11T15:35:28-0500
_audit_creation_method            fapswitch 2.2
_symmetry_space_group_name_H-M    P1
_symmetry_Int_Tables_number       1
_space_group_crystal_system       triclinic
_cell_length_a                    17.37082
_cell_length_b                    24.458511
_cell_length_c                    14.744728
_cell_angle_alpha                 89.99817
_cell_angle_beta                  124.804057
_cell_angle_gamma                 90.012724
_cell_volume                      5143.84401836

loop_
_atom_site_label
_atom_site_type_symbol
_atom_type_description
_atom_site_fract_x
_atom_site_fract_y
_atom_site_fract_z
_atom_type_partial_charge
C1    C     C_R   0.355597 0.152834 0.908459 0.315768
C2    C     C_R   0.597599 0.126451 0.908435 -0.096472
C3    C     C_R   0.253417 0.546042 0.304558 -0.061804
C4    C     C_3   0.319104 0.175022 0.795927 -1.075998
C5    C     C_3   0.317360 0.825354 0.795316 -1.084245
C6    C     C_3   0.819103 0.675022 0.795926 -1.075996
C7    C     C_3   0.817360 0.325354 0.795316 -1.084243
C8    C     C_3   0.338882 0.898528 0.288407 -1.050310
C9    C     C_3   0.338707 0.101342 0.288257 -1.045163
C10   C     C_3   0.838882 0.398529 0.288407 -1.050315
C11   C     C_3   0.838706 0.601342 0.288257 -1.045161
C12   C     C_3   0.137541 0.003400 0.503727 -0.840958
C13   C     C_R   0.097276 0.373341 0.908258 -0.088641
C14   C     C_3   0.027896 0.976385 0.764329 -0.799601
C15   C     C_3   0.637545 0.503400 0.503733 -0.840972
C16   C     C_3   0.527889 0.476379 0.764322 -0.799604
C17   C     C_R   0.097600 0.626451 0.908435 -0.096476
C18   C     C_R   0.443228 0.999989 0.633952 0.104707
C19   C     C_R   0.943228 0.499989 0.633952 0.104709
C20   C     C_R   0.803172 0.000732 0.364856 0.108793
C21   C     C_R   0.303170 0.500732 0.364858 0.108790
C22   C     C_R   0.686179 0.138133 0.001441 0.102861
C23   C     C_R   0.685670 0.861411 0.001156 0.093596
C24   C     C_R   0.186179 0.638133 0.001442 0.102860
C25   C     C_R   0.354993 0.847313 0.908291 0.325252
C26   C     C_R   0.185670 0.361411 0.001156 0.093590
C27   C     C_3   0.066323 0.979246 0.524511 -0.016483
C28   C     C_3   0.017697 0.961890 0.656014 -0.042982
C29   C     C_3   0.566320 0.479250 0.524508 -0.016491
C30   C     C_3   0.517699 0.461885 0.656012 -0.042971
C31   C     C_3   0.963363 0.984582 0.423589 0.060876
C32   C     C_3   0.913933 0.959668 0.552021 0.056615
C33   C     C_3   0.463363 0.484597 0.423587 0.060883
C34   C     C_3   0.413938 0.459659 0.552014 0.056601
C35   C     C_3   0.033750 0.059571 0.609193 -0.397593
C36   C     C_R   0.855597 0.652834 0.908459 0.315767
C37   C     C_3   0.533746 0.559569 0.609203 -0.397610
C38   C     C_3   0.075489 0.000821 0.631282 0.229633
C39   C     C_3   0.575489 0.500820 0.631284 0.229634
C40   C     C_3   0.900175 0.001237 0.463228 0.090544
C41   C     C_3   0.400173 0.501238 0.463232 0.090550
C42   C     C_R   0.445416 0.847763 0.092181 -0.245236
C43   C     C_R   0.445696 0.152271 0.092283 -0.245963
C44   C     C_R   0.945416 0.347763 0.092181 -0.245235
C45   C     C_R   0.945695 0.652271 0.092283 -0.245963
C46   C     C_3   0.929564 0.058868 0.516893 -0.374554
C47   C     C_R   0.854993 0.347313 0.908291 0.325252
C48   C     C_3   0.429557 0.558864 0.516915 -0.374548
C49   C     C_R   0.329956 0.721060 0.937762 -0.219248
C50   C     C_R   0.330544 0.278998 0.938507 -0.220318
C51   C     C_R   0.829957 0.221060 0.937764 -0.219249
C52   C     C_R   0.830544 0.778998 0.938509 -0.220319
C53   C     C_R   0.779603 0.176617 0.936772 0.208102
C54   C     C_R   0.779703 0.823226 0.937184 0.205726
C55   C     C_R   0.279602 0.676617 0.936770 0.208100
C56   C     C_R   0.279702 0.323225 0.937183 0.205722
C57   C     C_R   0.750219 0.177397 0.007875 0.060467
C58   C     C_R   0.688966 0.122562 0.092825 -0.106843
C59   C     C_R   0.749215 0.821974 0.007193 0.049492
C60   C     C_R   0.250220 0.677396 0.007876 0.060475
C61   C     C_R   0.249216 0.321974 0.007193 0.049489
C62   C     C_R   0.775966 0.219932 0.083396 -0.191208
C63   C     C_R   0.773808 0.779047 0.081564 -0.202171
C64   C     C_R   0.275970 0.719930 0.083400 -0.191193
C65   C     C_R   0.273810 0.279047 0.081566 -0.202169
C66   C     C_R   0.325305 0.763289 0.083942 -0.168535
C67   C     C_R   0.323671 0.235903 0.082476 -0.173018
C68   C     C_R   0.825300 0.263290 0.083939 -0.168537
C69   C     C_R   0.688686 0.877017 0.092691 -0.114455
C70   C     C_R   0.823668 0.735902 0.082474 -0.173017
C71   C     C_R   0.349248 0.765098 0.008527 0.118760
C72   C     C_R   0.349188 0.234715 0.008485 0.117158
C73   C     C_R   0.849247 0.265099 0.008526 0.118761
C74   C     C_R   0.849187 0.734714 0.008485 0.117158
C75   C     C_R   0.390481 0.950637 0.459391 -0.190255
C76   C     C_R   0.390381 0.049290 0.459316 -0.187817
C77   C     C_R   0.890481 0.450637 0.459391 -0.190254
C78   C     C_R   0.890381 0.549290 0.459316 -0.187816
C79   C     C_R   0.373047 0.950582 0.354666 0.284678
C80   C     C_R   0.188966 0.622561 0.092825 -0.106846
C81   C     C_R   0.372959 0.049324 0.354594 0.281395
C82   C     C_R   0.873047 0.450582 0.354666 0.284679
C83   C     C_R   0.872959 0.549324 0.354594 0.281393
C84   C     C_R   0.384197 0.999956 0.313590 0.046515
C85   C     C_R   0.884197 0.499956 0.313589 0.046514
C86   C     C_R   0.476041 0.045385 0.244722 -0.105314
C87   C     C_R   0.476087 0.954588 0.244769 -0.089830
C88   C     C_R   0.976041 0.545385 0.244722 -0.105322
C89   C     C_R   0.976087 0.454588 0.244769 -0.089822
C90   C     C_R   0.408380 0.999973 0.516718 0.034563
C91   C     C_R   0.188686 0.377017 0.092691 -0.114466
C92   C     C_R   0.908380 0.499973 0.516718 0.034562
C93   C     C_R   0.231192 0.954364 0.753030 -0.176936
C94   C     C_R   0.232296 0.046243 0.754077 -0.144742
C95   C     C_R   0.731192 0.454364 0.753030 -0.176933
C96   C     C_R   0.732295 0.546242 0.754075 -0.144737
C97   C     C_R   0.386731 0.183938 0.001619 0.040118
C98   C     C_R   0.386039 0.816180 0.001438 0.035965
C99   C     C_R   0.886730 0.683937 0.001619 0.040118
C100  C     C_R   0.886039 0.316180 0.001438 0.035965
C101  C     C_R   0.439438 0.999975 0.265139 0.057635
C102  C     C_R   0.597276 0.873341 0.908258 -0.088644
C103  C     C_R   0.939438 0.499975 0.265139 0.057634
C104  C     C_R   0.175695 0.000622 0.723234 0.076180
C105  C     C_R   0.675695 0.500622 0.723234 0.076182
C106  C     C_R   0.455770 0.045324 0.697394 -0.100968
C107  C     C_R   0.455777 0.954664 0.697408 -0.105062
C108  C     C_R   0.955770 0.545324 0.697394 -0.100965
C109  C     C_R   0.955777 0.454664 0.697408 -0.105065
C110  C     C_R   0.756340 0.954663 0.304045 -0.121744
C111  C     C_R   0.753419 0.046042 0.304557 -0.061811
C112  C     C_R   0.256340 0.454663 0.304046 -0.121763
H1    H     H_    0.082369 0.934636 0.536499 0.099715
H2    H     H_    0.044920 0.077657 0.685020 0.170320
H3    H     H_    0.568738 0.587155 0.583308 0.175702
H4    H     H_    0.544926 0.577654 0.685036 0.170318
H5    H     H_    0.917068 0.090758 0.456230 0.182066
H6    H     H_    0.888261 0.070429 0.550146 0.197408
H7    H     H_    0.417048 0.590764 0.456263 0.182064
H8    H     H_    0.388261 0.570412 0.550184 0.197416
H9    H     H_    0.352586 0.721153 0.883151 0.155935
H10   H     H_    0.354098 0.279245 0.884790 0.157770
H11   H     H_    0.852589 0.221152 0.883155 0.155934
H12   H     H_    0.046679 0.919815 0.668796 0.106800
H13   H     H_    0.854100 0.779245 0.884792 0.157767
H14   H     H_    0.752843 0.221675 0.137802 0.128193
H15   H     H_    0.749674 0.776985 0.134954 0.132491
H16   H     H_    0.252850 0.721673 0.137807 0.128192
H17   H     H_    0.249677 0.276986 0.134958 0.132492
H18   H     H_    0.339076 0.797188 0.138689 0.133901
H19   H     H_    0.336828 0.201738 0.136430 0.135253
H20   H     H_    0.839069 0.297190 0.138684 0.133902
H21   H     H_    0.836824 0.701737 0.136426 0.135253
H22   H     H_    0.390882 0.912016 0.495295 0.134394
H23   H     H_    0.582356 0.434639 0.536485 0.099713
H24   H     H_    0.390697 0.087911 0.495162 0.134919
H25   H     H_    0.890883 0.412016 0.495295 0.134394
H26   H     H_    0.890697 0.587910 0.495162 0.134919
H27   H     H_    0.489332 0.834071 0.177089 0.130462
H28   H     H_    0.489430 0.165884 0.177262 0.125637
H29   H     H_    0.989331 0.334071 0.177089 0.130464
H30   H     H_    0.989429 0.665884 0.177262 0.125638
H31   H     H_    0.467648 0.087822 0.255785 0.123824
H32   H     H_    0.467766 0.912146 0.255899 0.123451
H33   H     H_    0.967648 0.587822 0.255786 0.123825
H34   H     H_    0.546687 0.419812 0.668799 0.106806
H35   H     H_    0.967766 0.412146 0.255899 0.123452
H36   H     H_    0.207376 0.912602 0.737497 0.123088
H37   H     H_    0.211297 0.088370 0.743484 0.124356
H38   H     H_    0.707376 0.412601 0.737496 0.123088
H39   H     H_    0.711295 0.588370 0.743480 0.124354
H40   H     H_    0.438660 0.087234 0.669914 0.085741
H41   H     H_    0.438655 0.912750 0.669938 0.085571
H42   H     H_    0.938660 0.587234 0.669914 0.085741
H43   H     H_    0.938655 0.412750 0.669938 0.085571
H44   H     H_    0.771743 0.912715 0.331897 0.091607
H45   H     H_    0.941212 0.943414 0.384428 0.079566
H46   H     H_    0.763681 0.088075 0.331591 0.081183
H47   H     H_    0.271742 0.412715 0.331897 0.091624
H48   H     H_    0.263678 0.588074 0.331592 0.081188
H49   H     H_    0.746001 0.128259 0.178362 0.116708
H50   H     H_    0.745558 0.870919 0.178108 0.099725
H51   H     H_    0.246001 0.628259 0.178362 0.116723
H52   H     H_    0.245558 0.370919 0.178109 0.099721
H53   H     H_    0.569216 0.863762 0.823206 0.119062
H54   H     H_    0.569670 0.136029 0.823423 0.119783
H55   H     H_    0.069216 0.363762 0.823206 0.119063
H56   H     H_    0.902310 0.917769 0.517070 0.062310
H57   H     H_    0.069671 0.636029 0.823423 0.119785
H58   H     H_    0.315734 0.142525 0.741327 0.252023
H59   H     H_    0.248378 0.192933 0.758422 0.261368
H60   H     H_    0.367898 0.206445 0.802103 0.256227
H61   H     H_    0.313764 0.857933 0.740736 0.252604
H62   H     H_    0.365624 0.793879 0.800482 0.255445
H63   H     H_    0.246591 0.807618 0.758418 0.260099
H64   H     H_    0.815735 0.642525 0.741327 0.252024
H65   H     H_    0.748376 0.692933 0.758421 0.261369
H66   H     H_    0.867897 0.706445 0.802103 0.256226
H67   H     H_    0.441209 0.443434 0.384399 0.079585
H68   H     H_    0.813765 0.357932 0.740737 0.252602
H69   H     H_    0.865624 0.293879 0.800483 0.255445
H70   H     H_    0.746591 0.307618 0.758417 0.260099
H71   H     H_    0.315132 0.905443 0.201641 0.254566
H72   H     H_    0.394838 0.866990 0.327777 0.251401
H73   H     H_    0.277441 0.882852 0.285379 0.264789
H74   H     H_    0.394605 0.132931 0.327584 0.247840
H75   H     H_    0.314983 0.094399 0.201508 0.254860
H76   H     H_    0.277231 0.116965 0.285192 0.268218
H77   H     H_    0.815132 0.405443 0.201641 0.254566
H78   H     H_    0.402328 0.417763 0.517054 0.062304
H79   H     H_    0.894839 0.366990 0.327777 0.251402
H80   H     H_    0.777441 0.382852 0.285379 0.264788
H81   H     H_    0.894605 0.632931 0.327584 0.247839
H82   H     H_    0.814983 0.594399 0.201508 0.254860
H83   H     H_    0.777230 0.616965 0.285191 0.268219
H84   H     H_    0.124748 0.986329 0.426469 0.264823
H85   H     H_    0.133528 0.048648 0.498343 0.261316
H86   H     H_    0.210475 0.991605 0.569297 0.232564
H87   H     H_    0.995823 0.943815 0.785075 0.268839
H88   H     H_    0.102823 0.978801 0.834568 0.222344
H89   H     H_    0.068750 0.087155 0.583307 0.175681
H90   H     H_    0.993850 0.015952 0.757708 0.267545
H91   H     H_    0.624740 0.486340 0.426462 0.264828
H92   H     H_    0.633554 0.548649 0.498378 0.261319
H93   H     H_    0.710473 0.491591 0.569291 0.232564
H94   H     H_    0.495825 0.443806 0.785072 0.268839
H95   H     H_    0.602814 0.478804 0.834562 0.222344
H96   H     H_    0.493829 0.515943 0.757691 0.267547
I1    I     I_    0.939975 0.036203 0.287948 -0.433850
I2    I     I_    0.805175 0.966943 0.582379 -0.379121
I3    I     I_    0.439989 0.536244 0.287987 -0.433891
I4    I     I_    0.305174 0.466908 0.582365 -0.379139
I5    I     I_    0.751559 0.110448 0.828736 -0.354648
I6    I     I_    0.752653 0.889796 0.830366 -0.338398
I7    I     I_    0.251555 0.610449 0.828731 -0.354673
I8    I     I_    0.252650 0.389795 0.830362 -0.338401
N1    N     N_R   0.392140 0.102630 0.941800 -0.055667
N2    N     N_R   0.525160 0.972040 0.206160 -0.042164
N3    N     N_R   0.025160 0.527960 0.206160 -0.044918
N4    N     N_R   0.025160 0.472040 0.206160 -0.042162
N5    N     N_R   0.317870 0.971120 0.792790 -0.043241
N6    N     N_R   0.317870 0.028880 0.792790 -0.044685
N7    N     N_R   0.817870 0.471120 0.792790 -0.043241
N8    N     N_R   0.817870 0.528880 0.792790 -0.044682
N9    N     N_R   0.473480 0.027920 0.793480 -0.039155
N10   N     N_R   0.473480 0.972080 0.793480 -0.039578
N11   N     N_R   0.973480 0.527920 0.793480 -0.039155
N12   N     N_R   0.392140 0.897370 0.941800 -0.054723
N13   N     N_R   0.973480 0.472080 0.793480 -0.039579
N14   N     N_R   0.681610 0.971120 0.207570 -0.033369
N15   N     N_R   0.681610 0.028880 0.207570 -0.038137
N16   N     N_R   0.181610 0.471120 0.207570 -0.033371
N17   N     N_R   0.181610 0.528880 0.207570 -0.038140
N18   N     N_R   0.605410 0.102620 0.056870 -0.048065
N19   N     N_R   0.605410 0.897380 0.056870 -0.044079
N20   N     N_R   0.105410 0.602620 0.056870 -0.048066
N21   N     N_R   0.105410 0.397380 0.056870 -0.044077
N22   N     N_R   0.549680 0.896430 0.944180 -0.045595
N23   N     N_R   0.892140 0.602630 0.941800 -0.055668
N24   N     N_R   0.549680 0.103570 0.944180 -0.044635
N25   N     N_R   0.049680 0.396430 0.944180 -0.045595
N26   N     N_R   0.049680 0.603570 0.944180 -0.044635
N27   N     N_R   0.892140 0.397370 0.941800 -0.054724
N28   N     N_R   0.450890 0.896450 0.057150 -0.054797
N29   N     N_R   0.450890 0.103550 0.057150 -0.053628
N30   N     N_R   0.950890 0.396450 0.057150 -0.054797
N31   N     N_R   0.950890 0.603550 0.057150 -0.053628
N32   N     N_R   0.525160 0.027960 0.206160 -0.044918
Ni1   Ni    Ni4+2 0.433410 0.064680 0.868830 0.214108
Ni2   Ni    Ni4+2 0.433410 0.935320 0.868830 0.213491
Ni3   Ni    Ni4+2 0.933410 0.564680 0.868830 0.214108
Ni4   Ni    Ni4+2 0.933410 0.435320 0.868830 0.213490
Ni5   Ni    Ni4+2 0.565650 0.934380 0.131170 0.229132
Ni6   Ni    Ni4+2 0.565650 0.065620 0.131170 0.221029
Ni7   Ni    Ni4+2 0.065650 0.434380 0.131170 0.229135
Ni8   Ni    Ni4+2 0.065650 0.565620 0.131170 0.221026

loop_
_geom_bond_atom_site_label_1
_geom_bond_atom_site_label_2
_ccdc_geom_bond_type
N7    Ni4   S    
C73   C100  S    
C96   C105  A    
N4    Ni7   S    
C77   C92   A    
C70   C74   A    
C4    H59   S    
N9    Ni1   S    
C33   H67   S    
C51   H11   S    
C5    H62   S    
C80   N20   A    
N7    N8    A    
C50   H10   S    
C11   H82   S    
N14   Ni5   S    
C2    N24   A    
C81   C84   A    
C22   C57   S    
C15   H92   S    
C76   H24   S    
C75   H22   S    
C57   C62   A    
C48   H8    S    
C37   H4    S    
C54   I6    S    
C94   H37   S    
C23   C59   S    
N25   Ni4   S    
C52   C74   A    
C4    H58   S    
C35   H2    S    
N23   Ni3   S    
N26   Ni3   S    
C112  H47   S    
C26   C61   S    
C77   H25   S    
C16   H94   S    
C42   C98   A    
C55   I7    S    
C79   C84   A    
C20   C40   S    
N32   Ni6   S    
C13   H55   S    
C23   C102  A    
N30   Ni7   S    
C27   C38   S    
C16   C30   S    
C107  N10   A    
C29   C33   S    
C111  N15   A    
C31   C40   S    
C46   H6    S    
C93   H36   S    
N23   N31   A    
C67   C72   A    
C7    H68   S    
C87   N2    A    
N20   N26   A    
C68   H20   S    
N15   Ni6   S    
C23   C69   A    
C18   C107  A    
C38   C104  S    
C19   C92   S    
C95   C105  A    
C75   C90   A    
C9    C81   S    
C87   C101  A    
C109  N13   A    
C78   C83   A    
C24   C80   A    
N22   Ni2   S    
C13   N25   A    
C44   H29   S    
C64   H16   S    
C31   I1    S    
C2    C22   A    
C70   H21   S    
C86   N32   A    
C12   H85   S    
C30   H34   S    
C28   C38   S    
C87   H32   S    
C110  N14   A    
C2    H54   S    
N17   Ni8   S    
C44   N30   A    
C54   C59   A    
C50   C72   A    
C19   C108  A    
C16   H95   S    
C36   N23   A    
C94   C104  A    
N24   Ni1   S    
C55   C60   A    
C6    H66   S    
C84   C101  S    
C5    H63   S    
N5    Ni2   S    
C91   N21   A    
N16   Ni7   S    
N1    Ni1   S    
C58   H49   S    
C109  H43   S    
C78   H26   S    
C93   C104  A    
C52   C54   A    
C86   H31   S    
C15   C29   S    
C48   H7    S    
N12   Ni2   S    
C72   C97   S    
C19   C109  A    
C68   C73   A    
C71   C98   S    
C88   C103  A    
C102  N22   A    
C17   C24   A    
C106  H40   S    
N3    Ni8   S    
C30   C34   S    
C12   C27   S    
C27   C31   S    
C18   C90   S    
C43   C97   A    
C28   C32   S    
C35   C38   S    
C69   H50   S    
N19   Ni5   S    
C9    H74   S    
C45   C99   A    
C1    C97   A    
N3    N4    A    
C62   H14   S    
C7    H69   S    
C35   H89   S    
C65   C67   A    
C26   C91   A    
C49   C55   A    
C96   H39   S    
C14   H88   S    
C10   C82   S    
C10   H80   S    
C47   C100  A    
C46   H5    S    
C51   C53   A    
C7    C47   S    
C76   C81   A    
C41   C48   S    
C40   C46   S    
C18   C106  A    
C80   H51   S    
C34   C41   S    
N5    N6    A    
C8    C79   S    
C20   C111  A    
C32   I2    S    
C12   H84   S    
C15   H91   S    
C66   C71   A    
N12   N28   A    
C63   C70   A    
C34   H78   S    
C24   C60   S    
N27   N30   A    
C49   H9    S    
C29   C39   S    
N9    N10   A    
C86   C101  A    
C88   H33   S    
C43   H28   S    
C95   H38   S    
N18   N24   A    
N8    Ni3   S    
N20   Ni8   S    
C37   C48   S    
C15   H93   S    
C22   C58   A    
C31   H45   S    
C34   I4    S    
C21   C41   S    
C27   H1    S    
C8    H71   S    
C29   H23   S    
C17   N26   A    
C102  H53   S    
N28   Ni5   S    
C32   H56   S    
C6    H65   S    
C3    N17   A    
C3    H48   S    
N19   N22   A    
C20   C110  A    
C13   C26   A    
C3    C21   A    
C58   N18   A    
C21   C112  A    
C106  N9    A    
N11   Ni3   S    
N29   Ni6   S    
C30   C39   S    
N10   Ni2   S    
N18   Ni6   S    
C53   I5    S    
N27   Ni4   S    
C4    H60   S    
C7    H70   S    
C83   C85   A    
C42   H27   S    
C5    H61   S    
C111  H46   S    
C67   H19   S    
C51   C73   A    
C11   H83   S    
N1    N29   A    
C9    H75   S    
C53   C57   A    
C85   C103  S    
C5    C25   S    
C39   C105  S    
C65   H17   S    
C52   H13   S    
C28   H12   S    
C74   C99   S    
C37   H3    S    
C108  N11   A    
N21   N25   A    
C8    H73   S    
C82   C85   A    
C14   H87   S    
C35   C46   S    
C25   N12   A    
C59   C63   A    
C10   H79   S    
C112  N16   A    
C88   N3    A    
C62   C68   A    
C60   C64   A    
C1    C4    S    
C78   C92   A    
C69   N19   A    
C33   C41   S    
C37   C39   S    
N11   N13   A    
N21   Ni7   S    
C50   C56   A    
N31   Ni8   S    
C89   N4    A    
C47   N27   A    
C44   C100  A    
C8    H72   S    
C45   H30   S    
C6    H64   S    
C77   C82   A    
C43   N29   A    
C89   H35   S    
C14   H90   S    
C42   N28   A    
N16   N17   A    
N2    Ni5   S    
C6    C36   S    
C10   H77   S    
C36   C99   A    
C17   H57   S    
C32   C40   S    
N14   N15   A    
C91   H52   S    
C95   N7    A    
C16   H96   S    
C56   I8    S    
N13   Ni4   S    
C110  H44   S    
C107  H41   S    
C61   C65   A    
N6    Ni1   S    
C11   C83   S    
C108  H42   S    
C45   N31   A    
C96   N8    A    
C49   C71   A    
C25   C98   A    
C76   C90   A    
C94   N6    A    
C12   H86   S    
C56   C61   A    
C93   N5    A    
C1    N1    A    
C89   C103  A    
N2    N32   A    
C14   C28   S    
C9    H76   S    
C75   C79   A    
C63   H15   S    
C33   I3    S    
C64   C66   A    
C66   H18   S    
C11   H81   S    
