data_mof_unit_18964.cif
_audit_creation_date              2012-12-11T16:19:56-0500
_audit_creation_method            fapswitch 2.2
_symmetry_space_group_name_H-M    P1
_symmetry_Int_Tables_number       1
_space_group_crystal_system       triclinic
_cell_length_a                    13.529589
_cell_length_b                    14.041638
_cell_length_c                    30.086267
_cell_angle_alpha                 97.760391
_cell_angle_beta                  90.203151
_cell_angle_gamma                 118.751366
_cell_volume                      4949.7024916

loop_
_atom_site_label
_atom_site_type_symbol
_atom_type_description
_atom_site_fract_x
_atom_site_fract_y
_atom_site_fract_z
_atom_type_partial_charge
C1    C     C_R   0.720679 0.098916 0.568898 0.546243
C2    C     C_R   0.350061 0.685548 0.679025 -0.014328
C3    C     C_R   0.251840 0.650708 0.651372 -0.047907
C4    C     C_R   0.258931 0.672243 0.607088 0.240717
C5    C     C_R   0.251752 0.665726 0.835164 -0.119564
C6    C     C_R   0.235470 0.639470 0.878521 -0.127530
C7    C     C_R   0.389136 0.596375 0.874358 -0.131768
C8    C     C_R   0.405053 0.622507 0.830960 -0.119935
C9    C     C_R   0.334068 0.653832 0.810971 0.036549
C10   C     C_1   0.339768 0.665387 0.764550 -0.037176
C11   C     C_1   0.343526 0.673484 0.725395 -0.041836
C12   C     C_R   0.383612 0.787962 0.551027 0.525941
C13   C     C_R   0.301233 0.600531 0.897842 0.019922
C14   C     C_3   0.328360 0.050710 0.719406 -0.211811
C15   C     C_3   0.226851 0.158848 0.712037 -0.219243
C16   C     C_3   0.214744 0.168861 0.763520 -0.220597
C17   C     C_1   0.295643 0.197849 0.877053 -0.018510
C18   C     C_3   0.335352 0.152330 0.701498 0.062176
C19   C     C_3   0.313812 0.058749 0.770694 -0.215419
C20   C     C_3   0.314277 0.167541 0.788761 0.069832
C21   C     C_3   0.426148 0.265470 0.778159 -0.212565
C22   C     C_3   0.438074 0.256874 0.726847 -0.219637
C23   C     C_R   0.398022 0.118512 0.569436 0.547087
C24   C     C_1   0.303849 0.179111 0.837462 -0.072899
C25   C     C_1   0.349130 0.144077 0.653004 -0.066281
C26   C     C_1   0.367149 0.135034 0.613986 -0.009146
C27   C     C_3   0.725319 0.190744 0.727640 -0.024330
C28   C     C_3   0.936688 0.260486 0.720045 0.004761
C29   C     C_3   0.953778 0.272762 0.772257 -0.235495
C30   C     C_1   0.896791 0.204426 0.878997 -0.008477
C31   C     C_3   0.814997 0.166231 0.703132 0.100087
C32   C     C_3   0.745419 0.201419 0.779931 0.031059
C33   C     C_3   0.847463 0.183830 0.791148 0.069192
C34   C     C_R   0.719657 0.095039 0.442643 0.543821
C35   C     C_3   0.825990 0.069639 0.767480 -0.224723
C36   C     C_3   0.798815 0.056480 0.716340 -0.235398
C37   C     C_1   0.869218 0.193821 0.839867 -0.031345
C38   C     C_1   0.794654 0.151127 0.654027 -0.030674
C39   C     C_1   0.768063 0.131515 0.614353 -0.012547
C40   C     C_3   0.354460 0.788076 0.270319 -0.211559
C41   C     C_3   0.236793 0.584535 0.270690 -0.214409
C42   C     C_3   0.228704 0.564797 0.218552 -0.211584
C43   C     C_1   0.308201 0.606168 0.111162 -0.021091
C44   C     C_3   0.349428 0.688281 0.289193 0.063608
C45   C     C_R   0.382301 0.784669 0.424836 0.543493
C46   C     C_3   0.346479 0.768324 0.218179 -0.214252
C47   C     C_3   0.335792 0.654751 0.200626 0.065607
C48   C     C_3   0.440661 0.651739 0.219736 -0.214544
C49   C     C_3   0.448721 0.671544 0.271980 -0.214010
C50   C     C_1   0.325519 0.633512 0.151268 -0.075532
C51   C     C_1   0.357362 0.709634 0.338532 -0.071393
C52   C     C_1   0.366416 0.736995 0.378604 -0.016980
C53   C     C_R   0.357828 0.132059 0.400546 -0.010171
C54   C     C_R   0.417529 0.234479 0.385817 -0.121379
C55   C     C_R   0.402612 0.244349 0.340769 0.257344
C56   C     C_R   0.396209 0.114460 0.442930 0.545198
C57   C     C_R   0.326800 0.150532 0.310919 0.079243
C58   C     C_R   0.260404 0.050825 0.326306 -0.177098
C59   C     C_R   0.275217 0.041650 0.371003 -0.147584
C60   C     C_R   0.238187 0.090900 0.147550 -0.120329
C61   C     C_R   0.231140 0.110615 0.103829 -0.124374
C62   C     C_R   0.411121 0.279056 0.119496 -0.130516
C63   C     C_R   0.417893 0.259087 0.163215 -0.110975
C64   C     C_R   0.329418 0.167265 0.177606 0.032969
C65   C     C_1   0.326649 0.157996 0.224231 -0.017937
C66   C     C_1   0.324808 0.153629 0.263709 0.030066
C67   C     C_R   0.367210 0.734021 0.591266 0.008564
C68   C     C_R   0.315052 0.207542 0.090099 0.020801
C69   C     C_R   0.779107 0.132447 0.402359 0.020418
C70   C     C_R   0.802053 0.061182 0.372215 -0.127738
C71   C     C_R   0.831274 0.084488 0.329074 -0.117305
C72   C     C_R   0.838644 0.179352 0.315982 0.037642
C73   C     C_R   0.825054 0.255052 0.346837 -0.111556
C74   C     C_R   0.795864 0.232023 0.389983 -0.123340
C75   C     C_R   0.894888 0.305124 0.168147 -0.120127
C76   C     C_R   0.916673 0.312595 0.123142 -0.132049
C77   C     C_R   0.855352 0.117132 0.108436 -0.125439
C78   C     C_R   0.464570 0.761246 0.618714 -0.166492
C79   C     C_R   0.833071 0.109821 0.153362 -0.114570
C80   C     C_R   0.856765 0.204491 0.183442 0.039990
C81   C     C_1   0.851312 0.199487 0.230461 -0.032188
C82   C     C_1   0.847474 0.192458 0.269726 -0.032010
C83   C     C_R   0.901777 0.219486 0.093376 0.021953
C84   C     C_R   0.283458 0.232543 0.922553 0.546387
C85   C     C_R   0.266183 0.547337 0.938170 0.539639
C86   C     C_R   0.945463 0.222120 0.923495 0.545130
C87   C     C_R   0.292504 0.243078 0.049250 0.542267
C88   C     C_R   0.274941 0.558176 0.065002 0.545689
C89   C     C_R   0.455906 0.737367 0.662268 -0.142191
C90   C     C_R   0.954396 0.233227 0.050368 0.542209
Cr1   Cr    Cr6+3 0.583400 0.162540 0.509180 1.027887
Cr2   Cr    Cr6+3 0.584070 0.916690 0.495550 1.021091
Cr3   Cr    Cr6+3 0.332550 0.920810 0.495240 1.034853
Cr4   Cr    Cr6+3 0.086700 0.177000 0.983690 1.018372
Cr5   Cr    Cr6+3 0.336880 0.419130 0.994740 1.018018
Cr6   Cr    Cr6+3 0.084850 0.422220 0.995960 1.018651
H1    H     H_    0.167348 0.643761 0.895839 0.130262
H2    H     H_    0.255862 0.973966 0.701386 0.127142
H3    H     H_    0.230729 0.231431 0.699485 0.124918
H4    H     H_    0.151435 0.084186 0.694397 0.120660
H5    H     H_    0.132737 0.099777 0.770576 0.109067
H6    H     H_    0.213215 0.246605 0.775635 0.112072
H7    H     H_    0.517196 0.254217 0.719671 0.160493
H8    H     H_    0.444934 0.331403 0.714970 0.120022
H9    H     H_    0.499583 0.266959 0.795605 0.121207
H10   H     H_    0.406578 0.045276 0.712838 0.114466
H11   H     H_    0.382885 0.054041 0.788627 0.115745
H12   H     H_    0.196877 0.690458 0.819797 0.105734
H13   H     H_    0.427827 0.344513 0.790898 0.117506
H14   H     H_    0.767378 0.286161 0.796103 0.158406
H15   H     H_    0.946863 0.338960 0.711307 0.142478
H16   H     H_    0.970215 0.356227 0.787654 0.093556
H17   H     H_    0.029714 0.266687 0.782120 0.119138
H18   H     H_    0.709878 0.990343 0.707109 0.095230
H19   H     H_    0.852761 0.028165 0.697398 0.132014
H20   H     H_    0.755598 0.002352 0.781910 0.131737
H21   H     H_    0.169577 0.607999 0.664355 0.133861
H22   H     H_    0.639939 0.120086 0.716016 0.144142
H23   H     H_    0.902493 0.061028 0.773174 0.107925
H24   H     H_    0.271923 0.772480 0.204961 0.115275
H25   H     H_    0.283858 0.802041 0.282072 0.114576
H26   H     H_    0.231299 0.511507 0.283494 0.129042
H27   H     H_    0.164012 0.594575 0.282541 0.114752
H28   H     H_    0.151797 0.565064 0.205434 0.111843
H29   H     H_    0.218900 0.482004 0.206356 0.127575
H30   H     H_    0.530853 0.745267 0.284900 0.115683
H31   H     H_    0.446885 0.600019 0.284803 0.135465
H32   H     H_    0.518905 0.715871 0.207623 0.112978
H33   H     H_    0.434861 0.864026 0.283166 0.124125
H34   H     H_    0.423086 0.834476 0.206029 0.119575
H35   H     H_    0.434882 0.570631 0.207524 0.124128
H36   H     H_    0.156418 0.053724 0.081852 0.126963
H37   H     H_    0.169641 0.019419 0.158586 0.104473
H38   H     H_    0.201574 0.978596 0.303190 0.105515
H39   H     H_    0.228036 0.961695 0.381417 0.143003
H40   H     H_    0.480551 0.304919 0.408514 0.115371
H41   H     H_    0.548530 0.807990 0.607761 0.145543
H42   H     H_    0.488946 0.318337 0.186474 0.124816
H43   H     H_    0.477112 0.354216 0.109866 0.130567
H44   H     H_    0.952970 0.392677 0.112576 0.130749
H45   H     H_    0.913227 0.378678 0.191390 0.103771
H46   H     H_    0.830942 0.328798 0.336824 0.113804
H47   H     H_    0.779329 0.288790 0.412555 0.130860
H48   H     H_    0.789962 0.984009 0.380789 0.131350
H49   H     H_    0.802975 0.031522 0.165104 0.104873
H50   H     H_    0.842841 0.044138 0.086220 0.126388
H51   H     H_    0.469172 0.613453 0.812290 0.106254
H52   H     H_    0.841933 0.025648 0.305198 0.106500
H53   H     H_    0.440930 0.566403 0.888283 0.130816
H54   H     H_    0.532196 0.763895 0.683555 0.115641
H55   H     H_    0.232733 0.987540 0.777102 0.117161
O1    O     O_R   0.494060 0.188820 0.559230 -0.508605
O2    O     O_R   0.480140 0.824500 0.445020 -0.494115
O3    O     O_R   0.308480 0.808690 0.440220 -0.514116
O4    O     O_R   0.340970 0.020670 0.455610 -0.501372
O5    O     O_3   0.500010 0.000010 0.499990 -0.248002
O6    O     O_R   0.969690 0.151000 0.934080 -0.508900
O7    O     O_R   0.187530 0.180840 0.938210 -0.495690
O8    O     O_R   0.358160 0.327300 0.941250 -0.511148
O9    O     O_R   0.323950 0.507710 0.953980 -0.503796
O10   O     O_R   0.170530 0.527770 0.952070 -0.517425
O11   O     O_R   0.987720 0.318450 0.945940 -0.494507
O12   O     O_R   0.678470 0.153390 0.554100 -0.493496
O13   O     O_R   0.976400 0.159230 0.032040 -0.518266
O14   O     O_R   0.193740 0.188470 0.029020 -0.503139
O15   O     O_R   0.364860 0.335530 0.039220 -0.516519
O16   O     O_R   0.330170 0.515340 0.044800 -0.494162
O17   O     O_R   0.177230 0.536000 0.050040 -0.513276
O18   O     O_R   0.993930 0.326080 0.036750 -0.502668
O19   O     O_3   0.169480 0.339450 0.991460 -0.243651
O20   O     O_R   0.697870 0.003940 0.549410 -0.511805
O21   O     O_R   0.480980 0.827230 0.535590 -0.507684
O22   O     O_R   0.309390 0.811640 0.537920 -0.492943
O23   O     O_R   0.341810 0.023400 0.546180 -0.488674
O24   O     O_R   0.493150 0.185870 0.461540 -0.517231
O25   O     O_R   0.677630 0.150660 0.463530 -0.501339
O26   O     O_R   0.696960 0.000990 0.451710 -0.515328
N1    N     N_3   0.724959 0.289235 0.716350 -0.692246
H56   H     H_    0.800836 0.360254 0.728019 0.224279
H57   H     H_    0.713445 0.283027 0.681508 0.244124
N2    N     N_3   0.022994 0.241348 0.697573 -0.640037
H58   H     H_    0.028824 0.178221 0.710055 0.227802
H59   H     H_    0.101309 0.312455 0.705801 0.222161
N3    N     N_3   0.643311 0.124875 0.799407 -0.644588
H60   H     H_    0.610243 0.045543 0.781295 0.224746
H61   H     H_    0.582301 0.149255 0.795986 0.223221
O27   O     O_3   0.159162 0.633676 0.581092 -0.692408
H62   H     H_    0.174383 0.626482 0.548994 0.335643
O28   O     O_3   0.464951 0.342573 0.324746 -0.711110
H63   H     H_    0.514306 0.399777 0.349989 0.314438

loop_
_geom_bond_atom_site_label_1
_geom_bond_atom_site_label_2
_ccdc_geom_bond_type
C44   C49   S    
C15   C18   S    
C40   H33   S    
Cr5   O15   S    
C85   O10   A    
C41   C42   S    
C14   C18   S    
C29   H16   S    
C35   H23   S    
C35   C36   S    
C27   N1    S    
C57   C66   S    
C74   H47   S    
C36   H18   S    
N1    H56   S    
C53   C59   A    
C42   H28   S    
C7    C8    A    
C12   O21   A    
C23   O23   A    
C21   H9    S    
C53   C54   A    
Cr6   O10   S    
C40   C46   S    
C49   H30   S    
C67   C78   A    
C32   H14   S    
Cr5   O8    S    
C43   C88   S    
C55   O28   S    
C4    O27   S    
C28   C29   S    
C5    C6    A    
C27   H22   S    
C87   O15   A    
C77   C83   A    
Cr2   O20   S    
C15   C16   S    
C29   C33   S    
Cr3   O23   S    
C22   H8    S    
N3    H60   S    
Cr4   O14   S    
C23   O1    A    
C73   C74   A    
C23   C26   S    
C59   H39   S    
C35   H20   S    
C75   H45   S    
C42   H29   S    
C7    H53   S    
C20   C24   S    
Cr6   O11   S    
C8    C9    A    
C88   O17   A    
C19   H55   S    
Cr6   O17   S    
C48   H35   S    
Cr2   O2    S    
C86   O11   A    
C85   O9    A    
C62   H43   S    
C30   C86   S    
C3    H21   S    
C75   C80   A    
C15   H4    S    
C61   H36   S    
N2    H59   S    
C71   H52   S    
C78   C89   A    
Cr6   O19   S    
C21   C22   S    
C63   C64   A    
Cr1   O12   S    
C69   C70   A    
C18   C25   S    
C56   O4    A    
C2    C11   S    
C76   C83   A    
C86   O6    A    
C84   O8    A    
C14   H2    S    
C47   C50   S    
C73   H46   S    
C76   H44   S    
C28   H15   S    
C38   C39   T    
C49   H31   S    
C12   C67   S    
C17   C24   T    
C56   O24   A    
C27   C31   S    
Cr5   O9    S    
C6    H1    S    
Cr3   O4    S    
C79   H49   S    
Cr2   O26   S    
C84   O7    A    
C80   C81   S    
C45   C52   S    
C58   C59   A    
N2    H58   S    
C1    O20   A    
C81   C82   T    
C22   H7    S    
C51   C52   T    
C30   C37   T    
C90   O13   A    
C60   C61   A    
C41   H26   S    
C2    C89   A    
C75   C76   A    
C28   C31   S    
C5    C9    A    
C62   C63   A    
C40   H25   S    
C48   H32   S    
C21   H13   S    
C47   C48   S    
C58   H38   S    
C7    C13   A    
C16   C20   S    
C88   O16   A    
C54   H40   S    
C41   C44   S    
C77   C79   A    
C46   H24   S    
C69   C74   A    
Cr2   O5    S    
C46   C47   S    
C34   C69   S    
C70   C71   A    
C44   C51   S    
C16   H6    S    
C89   H54   S    
Cr4   O6    S    
Cr6   O18   S    
C55   C57   A    
C72   C82   S    
C63   H42   S    
C8    H51   S    
C45   O2    A    
C3    C4    A    
C78   H41   S    
Cr4   O13   S    
Cr1   O1    S    
C9    C10   S    
C53   C56   S    
Cr1   O24   S    
C83   C90   S    
C29   H17   S    
C54   C55   A    
Cr3   O3    S    
C27   C32   S    
C18   C22   S    
C14   C19   S    
C32   N3    S    
Cr3   O5    S    
C15   H3    S    
C72   C73   A    
Cr5   O16   S    
C46   H34   S    
C4    C67   A    
N1    H57   S    
C43   C50   T    
C70   H48   S    
C31   C38   S    
C62   C68   A    
C60   C64   A    
C17   C84   S    
C64   C65   S    
C41   H27   S    
C19   C20   S    
C2    C3    A    
C25   C26   T    
C71   C72   A    
C32   C33   S    
C6    C13   A    
C61   C68   A    
C57   C58   A    
C87   O14   A    
Cr2   O21   S    
C28   N2    S    
C48   C49   S    
C77   H50   S    
C90   O18   A    
Cr3   O22   S    
C33   C35   S    
N3    H61   S    
Cr1   O25   S    
C42   C47   S    
O28   H63   S    
Cr5   O19   S    
C33   C37   S    
C34   O25   A    
C10   C11   T    
C1    C39   S    
C79   C80   A    
C16   H5    S    
C40   C44   S    
Cr1   O5    S    
C20   C21   S    
C1    O12   A    
Cr4   O7    S    
C65   C66   T    
C14   H10   S    
C13   C85   S    
C68   C87   S    
C31   C36   S    
C34   O26   A    
O27   H62   S    
C45   O3    A    
C36   H19   S    
C60   H37   S    
Cr4   O19   S    
C12   O22   A    
C5    H12   S    
C19   H11   S    
