data_mof_unit_59529.cif
_audit_creation_date              2013-03-05T15:58:46-0500
_audit_creation_method            fapswitch 2.2
_symmetry_space_group_name_H-M    P1
_symmetry_Int_Tables_number       1
_space_group_crystal_system       triclinic
_cell_length_a                    12.64073
_cell_length_b                    13.013989
_cell_length_c                    13.68252
_cell_angle_alpha                 91.270576
_cell_angle_beta                  96.334271
_cell_angle_gamma                 96.991599
_cell_volume                      2219.03804133

loop_
_atom_site_label
_atom_site_type_symbol
_atom_site_description
_atom_site_fract_x
_atom_site_fract_y
_atom_site_fract_z
_atom_type_partial_charge
O1    O     O_R   0.631100 0.627590 0.523760 -0.583812
O2    O     O_R   0.455900 0.662370 0.491970 -0.613858
C1    C     C_R   0.559664 0.691622 0.509063 0.899081
O3    O     O_R   0.600200 0.480080 0.377830 -0.624613
O4    O     O_R   0.425000 0.514870 0.346040 -0.580934
C2    C     C_R   0.516154 0.494229 0.318324 0.938725
Zn1   Zn    Zn3+2 0.616980 0.476780 0.521230 1.049357
Zn2   Zn    Zn3+2 0.383020 0.523220 0.478770 0.982051
O5    O     O_R   0.544100 0.337630 0.508030 -0.575388
O6    O     O_R   0.368900 0.372410 0.476240 -0.641596
O7    O     O_R   0.575000 0.485130 0.653960 -0.557078
O8    O     O_R   0.399800 0.519920 0.622170 -0.644545
C3    C     C_R   0.440803 0.308562 0.486655 0.947703
C4    C     C_R   0.483306 0.503959 0.681654 0.916597
C5    C     C_1   0.473796 0.510132 0.782701 -0.065352
C6    C     C_2   0.462847 0.519567 0.971853 0.415249
C7    C     C_2   0.533768 0.471865 0.028000 0.419139
C8    C     C_1   0.531232 0.477329 0.131586 0.005000
C9    C     C_1   0.466413 0.515609 0.868354 -0.008556
C10   C     C_1   0.524765 0.484959 0.217270 -0.035643
C11   C     C_R   0.373014 0.091288 0.304797 0.363631
H1    H     H_    0.338177 0.247972 0.311986 0.188328
C12   C     C_R   0.408164 0.202185 0.452253 -0.178829
C13   C     C_R   0.670219 0.837568 0.600491 -0.131789
C14   C     C_R   0.686132 0.942074 0.627831 -0.092840
C15   C     C_R   0.622511 0.009070 0.578937 -0.055824
C16   C     C_R   0.546285 0.973078 0.498179 0.083737
C17   C     C_R   0.547478 0.873051 0.458232 -0.058817
C18   C     C_R   0.472890 0.036087 0.453931 -0.083441
C19   C     C_R   0.428457 0.014879 0.354040 -0.162750
C20   C     C_R   0.444615 0.920504 0.307192 0.207068
C21   C     C_R   0.500976 0.848270 0.360035 0.180498
C22   C     C_R   0.445546 0.122054 0.506242 0.257737
C23   C     C_R   0.367694 0.185242 0.353558 -0.301777
C24   C     C_R   0.597328 0.801956 0.518506 -0.031292
H2    H     H_    0.711239 0.783992 0.645718 0.175365
H3    H     H_    0.634022 0.089150 0.603938 0.195754
H4    H     H_    0.743078 0.970109 0.690466 0.178680
C25   C     C_R   0.904344 0.369896 0.653507 -0.317991
H5    H     H_    0.106075 0.334666 0.674703 0.178562
H6    H     H_    0.923992 0.321282 0.714618 0.190840
N1    N     N_R   0.773270 0.445590 0.549770 -0.172973
C26   C     C_R   0.213848 0.629631 0.385887 -0.143012
C27   C     C_R   0.115462 0.668837 0.369320 0.355786
C28   C     C_R   0.029698 0.626412 0.418623 0.261550
C29   C     C_R   0.041854 0.539113 0.478393 -0.166409
C30   C     C_R   0.145865 0.508132 0.497105 0.176334
C31   C     C_R   0.957497 0.483433 0.523557 0.043902
C32   C     C_R   0.983035 0.414393 0.598987 0.116874
C33   C     C_R   0.086709 0.389675 0.619132 -0.206370
C34   C     C_R   0.165911 0.432680 0.565579 -0.119568
C35   C     C_R   0.848209 0.490140 0.495455 -0.041678
C36   C     C_R   0.799674 0.389720 0.630302 0.425226
N2    N     N_R   0.227520 0.553880 0.450750 -0.144615
H7    H     H_    0.820537 0.529594 0.431034 0.190397
H8    H     H_    0.281989 0.663604 0.351299 0.199251
H9    H     H_    0.243014 0.407185 0.580777 0.213758
O9    O     O_3   0.607696 0.419339 0.986627 -0.701387
H10   H     H_    0.652473 0.389909 0.040562 0.359387
N3    N     N_R   0.523873 0.757251 0.308723 0.202169
O10   O     O_R   0.450006 0.704086 0.247725 -0.338193
O11   O     O_R   0.622331 0.736586 0.311561 -0.340501
N4    N     N_R   0.721906 0.353457 0.693592 0.230622
O12   O     O_R   0.654524 0.271759 0.667087 -0.366533
O13   O     O_R   0.736578 0.384043 0.785797 -0.319225
N5    N     N_R   0.938734 0.682597 0.418891 0.219351
O14   O     O_R   0.890373 0.710474 0.336590 -0.261166
O15   O     O_R   0.911949 0.716336 0.501830 -0.366789
O16   O     O_3   0.103247 0.752723 0.310948 -0.646123
H11   H     H_    0.171772 0.774578 0.284137 0.372851
O17   O     O_3   0.388987 0.572152 0.013290 -0.708547
H12   H     H_    0.344548 0.602067 0.959431 0.361071
N6    N     N_R   0.408929 0.898559 0.204954 0.268016
O18   O     O_R   0.478919 0.898560 0.141992 -0.246976
O19   O     O_R   0.309278 0.862718 0.177346 -0.311254
N7    N     N_R   0.332970 0.081813 0.202706 0.237054
O20   O     O_R   0.398570 0.105402 0.137452 -0.308733
O21   O     O_R   0.230295 0.077773 0.177182 -0.294199
N8    N     N_R   0.441718 0.121652 0.611712 0.222459
O22   O     O_R   0.425515 0.033857 0.654858 -0.332626
O23   O     O_R   0.429852 0.205648 0.660635 -0.345561

loop_
_geom_bond_atom_site_label_1
_geom_bond_atom_site_label_2
_geom_bond_distance
_ccdc_geom_bond_type
N5    O15   1.301580 A    
N4    O13   1.300999 A    
C16   C18   1.408184 A    
N6    O18   1.301186 A    
C25   H6    1.084882 S    
C28   C29   1.427982 A    
Zn1   O7    1.951792 S    
C11   N7    1.429621 S    
C15   C16   1.414579 A    
C13   H2    1.083648 S    
N7    O21   1.300695 A    
N1    C36   1.366623 A    
O4    C2    1.308014 A    
O7    C4    1.307303 A    
C20   N6    1.433030 S    
C18   C22   1.413030 A    
C3    C12   1.448288 S    
N3    O11   1.301580 A    
Zn1   N1    2.062122 S    
O5    C3    1.313088 A    
C17   C24   1.412217 A    
C6    C7    1.335629 D    
C12   C22   1.390525 A    
C34   H9    1.067859 S    
C35   H7    1.076422 S    
C7    O9    1.384247 S    
N5    O14   1.301376 A    
N6    O19   1.300443 A    
C6    O17   1.384425 S    
O3    Zn1   1.952097 S    
C33   C34   1.377001 A    
H1    C23   1.084955 S    
C29   C31   1.421678 A    
C13   C24   1.402508 A    
C17   C21   1.419547 A    
N7    O20   1.300982 A    
O3    C2    1.299588 A    
Zn2   N2    2.049718 S    
N8    O23   1.301970 A    
C22   N8    1.449333 S    
C30   C34   1.398268 A    
C11   C23   1.392276 A    
C14   C15   1.390089 A    
N8    O22   1.302123 A    
N3    O10   1.300882 A    
O1    C1    1.304149 A    
C5    C9    1.187140 T    
C26   C27   1.398506 A    
C18   C19   1.426819 A    
C14   H4    1.082502 S    
C26   N2    1.354906 A    
C20   C21   1.411945 A    
C1    C24   1.454959 S    
C19   C20   1.419888 A    
Zn2   O8    1.952100 S    
C12   C23   1.393120 A    
C7    C8    1.421607 S    
C27   O16   1.380580 S    
C13   C14   1.387203 A    
C30   N2    1.354152 A    
C31   C32   1.419472 A    
C25   C32   1.387067 A    
O8    C4    1.300429 A    
C21   N3    1.439164 S    
C16   C17   1.403059 A    
C27   C28   1.402646 A    
Zn1   O5    1.924400 S    
C29   C30   1.419890 A    
O1    Zn1   1.948168 S    
O2    Zn2   1.924400 S    
O6    C3    1.302829 A    
O4    Zn2   1.951792 S    
C15   H3    1.077302 S    
C2    C10   1.402573 S    
C11   C19   1.424465 A    
O2    C1    1.314100 A    
O9    H10   0.992370 S    
O17   H12   0.992371 S    
C36   N4    1.425483 S    
C25   C36   1.382752 A    
C6    C9    1.421799 S    
H5    C33   1.084560 S    
C8    C10   1.186995 T    
O16   H11   0.990228 S    
N4    O12   1.296810 A    
C26   H8    1.080690 S    
C31   C35   1.406262 A    
Zn2   O6    1.948165 S    
C32   C33   1.386993 A    
C28   N5    1.436078 S    
C4    C5    1.402327 S    
N1    C35   1.351489 A    
