data_mof_unit_23818.cif
_audit_creation_date              2012-12-10T17:29:20-0500
_audit_creation_method            fapswitch 2.2
_symmetry_space_group_name_H-M    P1
_symmetry_Int_Tables_number       1
_space_group_crystal_system       triclinic
_cell_length_a                    12.090069
_cell_length_b                    12.84184
_cell_length_c                    13.205783
_cell_angle_alpha                 86.853421
_cell_angle_beta                  113.766503
_cell_angle_gamma                 93.436236
_cell_volume                      1872.00325548

loop_
_atom_site_label
_atom_site_type_symbol
_atom_type_description
_atom_site_fract_x
_atom_site_fract_y
_atom_site_fract_z
_atom_type_partial_charge
C1    C     C_R   0.474630 0.300378 0.490452 0.875711
C2    C     C_R   0.612056 0.494892 0.829750 -0.099308
C3    C     C_R   0.528090 0.812419 0.483698 -0.047827
C4    C     C_R   0.567579 0.499192 0.708696 0.892196
C5    C     C_R   0.453465 0.190184 0.472131 -0.062788
C6    C     C_R   0.357754 0.030247 0.504241 -0.192432
C7    C     C_R   0.367095 0.137452 0.503541 -0.252158
C8    C     C_R   0.523933 0.136044 0.430468 0.118811
C9    C     C_R   0.525891 0.027456 0.445786 0.165203
C10   C     C_R   0.440266 0.975494 0.480930 0.135023
C11   C     C_R   0.439570 0.868953 0.495470 -0.190941
C12   C     C_R   0.551656 0.478748 0.984861 0.068133
C13   C     C_R   0.615410 0.862338 0.451710 -0.205115
C14   C     C_R   0.613281 0.969479 0.430990 -0.201574
C15   C     C_R   0.006983 0.600509 0.400102 -0.346799
C16   C     C_R   0.520976 0.700622 0.497488 0.937451
C17   C     C_R   0.126206 0.592402 0.409303 0.279639
C18   C     C_R   0.157797 0.454526 0.545077 0.259177
C19   C     C_R   0.037039 0.462478 0.538225 0.087320
C20   C     C_R   0.961428 0.535941 0.464045 0.011096
C21   C     C_R   0.841481 0.543559 0.455943 -0.017347
C22   C     C_R   0.870112 0.409148 0.592741 0.005747
C23   C     C_R   0.537682 0.525166 0.881281 0.029064
C24   C     C_R   0.989042 0.398887 0.603469 -0.308696
C25   C     C_R   0.431807 0.496794 0.291500 0.876105
C26   C     C_R   0.256420 0.545239 0.986527 -0.188824
C27   C     C_R   0.388280 0.488024 0.170945 -0.078272
C28   C     C_R   0.716040 0.439454 0.891062 -0.187246
C29   C     C_R   0.738517 0.404093 0.998533 -0.136189
C30   C     C_R   0.654875 0.419243 0.043687 -0.166622
C31   C     C_3   0.158349 0.501555 0.116736 -0.855760
C32   C     C_3   0.592146 0.192027 0.367417 -0.889922
C33   C     C_3   0.233620 0.372580 0.625671 -0.850678
C34   C     C_R   0.460407 0.492952 0.023885 0.081171
C35   C     C_R   0.353275 0.543006 0.954663 0.076097
C36   C     C_R   0.348679 0.597886 0.859624 -0.255561
C37   C     C_R   0.446707 0.598007 0.830643 0.168743
C38   C     C_R   0.475807 0.466183 0.132023 -0.299245
C39   C     C_R   0.270673 0.512318 0.093489 0.207836
H1    H     H_    0.683378 0.818548 0.440671 0.160502
H2    H     H_    0.170558 0.574651 0.928968 0.150168
H3    H     H_    0.560899 0.438081 0.190496 0.165305
H4    H     H_    0.775593 0.417178 0.853537 0.151891
H5    H     H_    0.672042 0.381008 0.122975 0.130184
H6    H     H_    0.816984 0.358584 0.044322 0.144147
H7    H     H_    0.370302 0.830315 0.518217 0.193612
H8    H     H_    0.172235 0.461680 0.196985 0.263935
H9    H     H_    0.120743 0.579242 0.110899 0.267143
H10   H     H_    0.089076 0.452751 0.052658 0.219364
H11   H     H_    0.552907 0.267961 0.330406 0.246079
H12   H     H_    0.291685 0.990204 0.530440 0.161600
H13   H     H_    0.689039 0.204192 0.422989 0.249505
H14   H     H_    0.584332 0.145990 0.295908 0.229475
H15   H     H_    0.323010 0.364147 0.627790 0.289321
H16   H     H_    0.246625 0.390723 0.711130 0.221179
H17   H     H_    0.187132 0.294627 0.604432 0.200760
H18   H     H_    0.682558 0.006251 0.407275 0.156903
H19   H     H_    0.309730 0.178855 0.531554 0.172395
H20   H     H_    0.782621 0.600129 0.398800 0.127842
H21   H     H_    0.835025 0.360014 0.643154 0.131662
H22   H     H_    0.950041 0.658304 0.343048 0.179685
H23   H     H_    0.041542 0.341020 0.663298 0.159059
H24   H     H_    0.275244 0.649216 0.815121 0.173822
I1    I     I_    0.178224 0.700967 0.308686 -0.388269
I2    I     I_    0.475541 0.733880 0.745834 -0.404371
N1    N     N_R   0.798200 0.480260 0.519790 -0.099223
N2    N     N_R   0.201820 0.519740 0.480210 -0.112634
O1    O     O_R   0.579910 0.341070 0.505280 -0.613559
O2    O     O_R   0.388440 0.353740 0.492580 -0.641453
O3    O     O_R   0.643280 0.490550 0.663120 -0.614796
O4    O     O_R   0.451810 0.503220 0.650420 -0.603225
O5    O     O_R   0.611560 0.646260 0.507420 -0.623350
O6    O     O_R   0.420090 0.658930 0.494720 -0.578813
O7    O     O_R   0.548190 0.496780 0.349580 -0.631067
O8    O     O_R   0.356720 0.509450 0.336880 -0.591581
Zn1   Zn    Zn3+2 0.627850 0.491540 0.508480 0.942138
Zn2   Zn    Zn3+2 0.372150 0.508460 0.491520 0.973445

loop_
_geom_bond_atom_site_label_1
_geom_bond_atom_site_label_2
_ccdc_geom_bond_type
C33   H16   S    
C21   N1    A    
O2    Zn2   S    
C35   C36   A    
N2    Zn2   S    
O5    Zn1   S    
C16   O5    A    
C4    O3    A    
C12   C23   A    
O7    Zn1   S    
C1    C5    S    
C28   C29   A    
C21   H20   S    
C17   I1    S    
C22   H21   S    
C34   C35   A    
C26   C39   A    
C27   C38   A    
C1    O1    A    
C25   O7    A    
C32   H13   S    
C13   H1    S    
C22   N1    A    
C19   C20   A    
C27   C39   A    
C8    C9    A    
C37   I2    S    
C6    H12   S    
C36   H24   S    
C9    C10   A    
C7    H19   S    
C3    C13   A    
C33   H17   S    
C31   H8    S    
C13   C14   A    
C30   H5    S    
C31   H10   S    
C15   C20   A    
C17   N2    A    
C16   O6    A    
C8    C32   S    
C5    C7    A    
C18   C19   A    
C18   N2    A    
C23   C37   A    
C1    O2    A    
C29   H6    S    
C25   O8    A    
C2    C4    S    
C9    C14   A    
C29   C30   A    
N1    Zn1   S    
C15   H22   S    
O8    Zn2   S    
C32   H11   S    
C31   H9    S    
O3    Zn1   S    
C22   C24   A    
O1    Zn1   S    
C12   C34   A    
C32   H14   S    
O4    Zn2   S    
C33   H15   S    
C15   C17   A    
C14   H18   S    
C36   C37   A    
C24   H23   S    
C12   C30   A    
C34   C38   A    
C6    C10   A    
C5    C8    A    
C38   H3    S    
C6    C7    A    
C25   C27   S    
C28   H4    S    
C19   C24   A    
C31   C39   S    
C18   C33   S    
C3    C11   A    
C10   C11   A    
C26   C35   A    
C20   C21   A    
C2    C23   A    
O6    Zn2   S    
C11   H7    S    
C2    C28   A    
C4    O4    A    
C3    C16   S    
C26   H2    S    
