data_mof_unit_57680.cif
_audit_creation_date              2012-12-10T18:38:05-0500
_audit_creation_method            fapswitch 2.2
_symmetry_space_group_name_H-M    P1
_symmetry_Int_Tables_number       1
_space_group_crystal_system       triclinic
_cell_length_a                    14.97479
_cell_length_b                    15.486722
_cell_length_c                    27.745792
_cell_angle_alpha                 89.963723
_cell_angle_beta                  105.075583
_cell_angle_gamma                 82.432377
_cell_volume                      6154.87669158

loop_
_atom_site_label
_atom_site_type_symbol
_atom_type_description
_atom_site_fract_x
_atom_site_fract_y
_atom_site_fract_z
_atom_type_partial_charge
C1    C     C_R   0.441758 0.662189 0.491878 0.855213
C2    C     C_R   0.484493 0.566211 0.125457 -0.023230
C3    C     C_R   0.506572 0.495708 0.647420 -0.154543
C4    C     C_R   0.497522 0.496199 0.353187 -0.145642
C5    C     C_R   0.486110 0.568472 0.023830 0.044797
C6    C     C_R   0.544048 0.411119 0.980736 0.044409
C7    C     C_R   0.537860 0.409603 0.030843 0.044693
C8    C     C_R   0.483227 0.568247 0.972393 0.044964
C9    C     C_R   0.510818 0.488680 0.052388 0.072093
C10   C     C_R   0.514137 0.489935 0.951412 0.072150
C11   C     C_R   0.465431 0.646130 0.047975 -0.214367
C12   C     C_R   0.558078 0.337793 0.506184 0.859378
C13   C     C_R   0.579565 0.336354 0.958762 -0.213847
C14   C     C_R   0.464372 0.644782 0.097751 -0.139806
C15   C     C_R   0.581020 0.337877 0.909002 -0.138246
C16   C     C_R   0.501818 0.499190 0.594069 0.892219
C17   C     C_R   0.498747 0.499635 0.406023 0.892472
C18   C     C_R   0.449237 0.643705 0.940814 -0.213230
C19   C     C_R   0.556733 0.331294 0.060209 -0.213072
C20   C     C_R   0.406369 0.754386 0.480541 -0.060580
C21   C     C_R   0.591315 0.245930 0.501760 -0.057415
C22   C     C_R   0.280607 0.874254 0.458340 -0.203298
C23   C     C_R   0.514776 0.490375 0.900425 -0.052178
C24   C     C_R   0.708988 0.129653 0.491548 -0.194436
C25   C     C_R   0.310980 0.785896 0.469971 -0.198118
C26   C     C_R   0.683775 0.216494 0.501500 -0.210095
C27   C     C_R   0.470263 0.810815 0.477831 -0.256151
C28   C     C_R   0.525021 0.188614 0.491835 -0.256000
C29   C     C_R   0.441468 0.899077 0.465300 0.087170
C30   C     C_R   0.546982 0.103544 0.478261 0.093818
C31   C     C_R   0.345420 0.931384 0.457099 0.168790
C32   C     C_R   0.641282 0.072737 0.480323 0.176100
C33   C     C_R   0.507089 0.956903 0.464977 0.070042
C34   C     C_R   0.508274 0.487969 0.103089 -0.052048
C35   C     C_R   0.478042 0.047202 0.465696 0.071564
C36   C     C_R   0.381277 0.078006 0.454350 -0.222742
C37   C     C_R   0.600972 0.927738 0.465188 -0.224376
C38   C     C_R   0.315909 0.020511 0.449200 -0.230160
C39   C     C_R   0.666560 0.985428 0.471813 -0.230544
C40   C     C_R   0.482391 0.565962 0.819995 0.514266
C41   C     C_R   0.525979 0.409842 0.181471 0.513526
C42   C     C_R   0.844613 0.635915 0.575059 -0.312783
C43   C     C_R   0.156650 0.361109 0.426685 -0.316745
C44   C     C_R   0.754686 0.614304 0.562373 0.026941
C45   C     C_R   0.482091 0.567146 0.870346 -0.027150
C46   C     C_R   0.245874 0.384417 0.438383 0.042246
C47   C     C_R   0.793616 0.509850 0.505963 -0.080215
C48   C     C_R   0.206616 0.489426 0.494432 -0.064638
C49   C     C_R   0.886339 0.528647 0.517144 0.001128
C50   C     C_R   0.114748 0.468600 0.484443 -0.002897
C51   C     C_R   0.910762 0.593420 0.552490 0.173009
C52   C     C_R   0.090688 0.403038 0.449572 0.177622
C53   C     C_R   0.954761 0.486097 0.494609 0.083667
C54   C     C_R   0.046711 0.510209 0.507534 0.081536
C55   C     C_R   0.067619 0.574843 0.543155 -0.238128
C56   C     C_R   0.529419 0.409045 0.131534 -0.027524
C57   C     C_R   0.934345 0.420324 0.459673 -0.238618
C58   C     C_R   0.000814 0.615374 0.565111 -0.205906
C59   C     C_R   0.001209 0.379712 0.437770 -0.205929
C60   C     C_R   0.546629 0.415606 0.828753 0.510545
C61   C     C_R   0.482321 0.564111 0.175506 0.508938
C62   C     C_R   0.595111 0.483046 0.734370 -0.192975
C63   C     C_R   0.415349 0.504293 0.265346 -0.214587
C64   C     C_R   0.593444 0.483982 0.683914 0.438597
C65   C     C_R   0.413006 0.512038 0.315256 0.468049
C66   C     C_R   0.423277 0.502510 0.662298 -0.284586
C67   C     C_R   0.449034 0.643035 0.890849 -0.138354
C68   C     C_R   0.582728 0.477552 0.340484 -0.291396
C69   C     C_R   0.425913 0.499979 0.712652 -0.103820
C70   C     C_R   0.584236 0.473294 0.290763 -0.106577
C71   C     C_R   0.511664 0.490834 0.748652 0.255941
C72   C     C_R   0.500666 0.486683 0.253256 0.266969
C73   C     C_3   0.288429 0.618194 0.312145 0.077003
C74   C     C_3   0.332242 0.682442 0.350281 -0.360690
C75   C     C_3   0.286768 0.776010 0.335398 -0.912739
C76   C     C_3   0.706699 0.388092 0.664998 0.099920
C77   C     C_3   0.787512 0.381217 0.640434 -0.295258
C78   C     C_R   0.552733 0.331249 0.109586 -0.139063
C79   C     C_3   0.822085 0.286467 0.632584 -0.969940
C80   C     C_R   0.547755 0.413980 0.879342 -0.023308
H1    H     H_    0.355976 0.510830 0.635029 0.178787
H2    H     H_    0.625047 0.860845 0.459133 0.151544
H3    H     H_    0.231795 0.538421 0.519914 0.126914
H4    H     H_    0.767910 0.461969 0.479808 0.130054
H5    H     H_    0.297727 0.352405 0.421118 0.140436
H6    H     H_    0.702827 0.646362 0.579610 0.151689
H7    H     H_    0.135358 0.595836 0.555279 0.138326
H8    H     H_    0.867147 0.398049 0.448324 0.136305
H9    H     H_    0.361325 0.505796 0.723830 0.152046
H10   H     H_    0.650318 0.460076 0.281269 0.150871
H11   H     H_    0.422249 0.702524 0.868242 0.189660
H12   H     H_    0.648328 0.465826 0.369053 0.177321
H13   H     H_    0.567901 0.269579 0.130501 0.189254
H14   H     H_    0.351025 0.513469 0.235795 0.145340
H15   H     H_    0.661321 0.476255 0.762511 0.158534
H16   H     H_    0.447649 0.705985 0.114450 0.189367
H17   H     H_    0.608343 0.278748 0.893846 0.189411
H18   H     H_    0.419995 0.704290 0.953113 0.143188
H19   H     H_    0.572874 0.268182 0.045935 0.143164
H20   H     H_    0.242481 0.046213 0.441381 0.146122
H21   H     H_    0.737937 0.960963 0.472103 0.148289
H22   H     H_    0.019898 0.664631 0.592229 0.148422
H23   H     H_    0.456013 0.211115 0.495650 0.160561
H24   H     H_    0.982526 0.329549 0.411199 0.146082
H25   H     H_    0.862307 0.685350 0.602223 0.151328
H26   H     H_    0.139384 0.310758 0.400069 0.146401
H27   H     H_    0.212863 0.623592 0.310233 0.172101
H28   H     H_    0.292670 0.636653 0.274068 0.143619
H29   H     H_    0.323360 0.665090 0.387398 0.241630
H30   H     H_    0.408093 0.678258 0.353154 0.211805
H31   H     H_    0.292890 0.794044 0.297749 0.271575
H32   H     H_    0.322490 0.821077 0.362586 0.277870
H33   H     H_    0.211892 0.783494 0.335229 0.259547
H34   H     H_    0.543408 0.785417 0.487783 0.163322
H35   H     H_    0.649543 0.355943 0.640713 0.123654
H36   H     H_    0.730981 0.353381 0.702230 0.149728
H37   H     H_    0.763988 0.417004 0.603639 0.247880
H38   H     H_    0.846045 0.411615 0.664302 0.225060
H39   H     H_    0.849068 0.249967 0.669066 0.271759
H40   H     H_    0.879312 0.283907 0.613752 0.267140
H41   H     H_    0.764547 0.254894 0.608764 0.269539
H42   H     H_    0.451428 0.709748 0.029814 0.143327
H43   H     H_    0.608537 0.275584 0.979177 0.143233
H44   H     H_    0.735995 0.260418 0.508538 0.160595
H45   H     H_    0.260279 0.742619 0.471089 0.159479
H46   H     H_    0.206888 0.898196 0.451315 0.139902
H47   H     H_    0.781037 0.107110 0.492384 0.137781
H48   H     H_    0.354257 0.146436 0.448402 0.145348
N1    N     N_R   0.513877 0.490795 0.800334 -0.343632
N2    N     N_R   0.502690 0.486669 0.202197 -0.343643
N3    N     N_R   0.731710 0.552720 0.528410 -0.111739
N4    N     N_R   0.268290 0.447280 0.471590 -0.100884
O1    O     O_R   0.383110 0.605620 0.485680 -0.627599
O2    O     O_2   0.545264 0.334643 0.209093 -0.559694
O3    O     O_2   0.460658 0.638826 0.197552 -0.572763
O4    O     O_2   0.576982 0.342571 0.807909 -0.571237
O5    O     O_3   0.328436 0.531118 0.327259 -0.630877
O6    O     O_3   0.676933 0.476996 0.670740 -0.630592
O7    O     O_R   0.616890 0.394380 0.514320 -0.629054
O8    O     O_R   0.531900 0.639510 0.503910 -0.621037
O9    O     O_R   0.468100 0.360490 0.496090 -0.624905
O10   O     O_R   0.425620 0.483050 0.562130 -0.627179
O11   O     O_R   0.574380 0.516950 0.437870 -0.629388
O12   O     O_R   0.574410 0.516930 0.580360 -0.574514
O13   O     O_R   0.425590 0.483070 0.419640 -0.567716
O14   O     O_2   0.451926 0.639333 0.790864 -0.559689
Zn1   Zn    Zn3+2 0.400660 0.477380 0.487830 0.955799
Zn2   Zn    Zn3+2 0.599340 0.522620 0.512170 0.943210

loop_
_geom_bond_atom_site_label_1
_geom_bond_atom_site_label_2
_ccdc_geom_bond_type
C40   N1    A    
C63   C65   A    
C34   C56   A    
C23   C45   A    
C27   C29   A    
C73   C74   S    
C17   O13   A    
C35   C36   A    
O12   Zn2   S    
O8    Zn2   S    
C74   H29   S    
C47   C49   A    
C64   O6    S    
C3    C64   A    
C44   N3    A    
C79   H41   S    
C63   H14   S    
C75   H32   S    
C50   C54   A    
C26   H44   S    
C30   C35   A    
C59   H24   S    
C16   O12   A    
C24   C26   A    
C5    C11   A    
C77   H37   S    
C46   N4    A    
C4    C65   A    
C13   H43   S    
C11   C14   A    
C44   H6    S    
C43   C52   A    
C57   C59   A    
C66   C69   A    
C20   C25   A    
C78   H13   S    
C29   C33   A    
C76   H35   S    
C56   C78   A    
C12   O9    A    
C42   H25   S    
C32   C39   A    
C69   C71   A    
C25   H45   S    
C62   C64   A    
C33   C35   A    
C68   H12   S    
C49   C51   A    
C22   C25   A    
C79   H39   S    
C45   C67   A    
C24   H47   S    
C50   C52   A    
C58   H22   S    
C23   C80   A    
C40   C45   A    
C60   O4    S    
C2    C61   A    
C42   C51   A    
C46   H5    S    
C65   O5    S    
C2    C34   A    
C48   C50   A    
C2    C14   A    
C62   H15   S    
C73   H27   S    
C36   H48   S    
C42   C44   A    
C15   H17   S    
C48   H3    S    
C69   H9    S    
C14   H16   S    
C41   O2    S    
O13   Zn1   S    
C21   C26   A    
C39   H21   S    
C77   C79   S    
O11   Zn2   S    
C37   C39   A    
O7    Zn2   S    
C1    O1    A    
C22   C31   A    
C76   C77   S    
C38   H20   S    
C77   H38   S    
C74   C75   S    
C4    C68   A    
C19   H19   S    
C73   H28   S    
C18   C67   A    
C53   C54   A    
C12   C21   S    
C33   C37   A    
C47   N3    A    
C43   H26   S    
C19   C78   A    
C16   O10   A    
C24   C32   A    
C41   C56   A    
C5    C9    A    
C52   C59   A    
C71   N1    S    
C15   C80   A    
C79   H40   S    
C67   H11   S    
C12   O7    A    
N3    Zn2   S    
C51   C58   A    
C47   H4    S    
C1    O8    A    
C61   N2    A    
C75   H33   S    
C4    C17   S    
C8    C10   A    
C21   C28   A    
C7    C19   A    
C13   C15   A    
C9    C34   A    
C37   H2    S    
C11   H42   S    
C61   O3    S    
C7    C9    A    
C54   C55   A    
C60   C80   A    
C1    C20   S    
C53   C57   A    
N4    Zn1   S    
O10   Zn1   S    
C60   N1    A    
C74   H30   S    
C5    C8    A    
C31   C38   A    
C72   N2    S    
C6    C7    A    
C20   C27   A    
C76   O6    S    
C10   C23   A    
C75   H31   S    
C57   H8    S    
C40   O14   S    
C17   O11   A    
C28   C30   A    
C29   C31   A    
C6    C13   A    
C30   C32   A    
C28   H23   S    
C41   N2    A    
C73   O5    S    
C49   C53   A    
C70   H10   S    
C36   C38   A    
C76   H36   S    
C62   C71   A    
C55   H7    S    
O1    Zn1   S    
C43   C46   A    
C8    C18   A    
C22   H46   S    
C6    C10   A    
O9    Zn1   S    
C3    C66   A    
C27   H34   S    
C63   C72   A    
C68   C70   A    
C55   C58   A    
C48   N4    A    
C70   C72   A    
C18   H18   S    
C3    C16   S    
C66   H1    S    
