data_mof_unit_55485.cif
_audit_creation_date              2012-12-10T18:12:38-0500
_audit_creation_method            fapswitch 2.2
_symmetry_space_group_name_H-M    P1
_symmetry_Int_Tables_number       1
_space_group_crystal_system       triclinic
_cell_length_a                    12.619344
_cell_length_b                    13.082535
_cell_length_c                    15.71922
_cell_angle_alpha                 90.530659
_cell_angle_beta                  102.777979
_cell_angle_gamma                 82.220177
_cell_volume                      2506.99398729

loop_
_atom_site_label
_atom_site_type_symbol
_atom_type_description
_atom_site_fract_x
_atom_site_fract_y
_atom_site_fract_z
_atom_type_partial_charge
C1    C     C_R   0.438612 0.691313 0.486209 0.931808
C2    C     C_3   0.502080 0.501489 0.917535 0.136492
C3    C     C_3   0.476220 0.412904 0.021969 0.491568
C4    C     C_3   0.498240 0.502306 0.082638 0.165350
C5    C     C_3   0.577243 0.425108 0.985763 -0.236928
C6    C     C_3   0.599450 0.516968 0.047294 -0.218293
C7    C     C_1   0.503476 0.501433 0.826795 -0.051261
C8    C     C_1   0.496561 0.501018 0.173309 -0.005663
C9    C     C_R   0.696571 0.066574 0.429064 -0.099971
C10   C     C_R   0.596716 0.199484 0.499346 -0.043210
C11   C     C_R   0.300788 0.839094 0.498431 -0.215032
C12   C     C_R   0.501056 0.500325 0.661899 0.893349
C13   C     C_R   0.272343 0.944364 0.505673 -0.140848
C14   C     C_R   0.345042 0.011378 0.494766 -0.140958
C15   C     C_R   0.445217 0.973848 0.471103 0.008672
C16   C     C_R   0.463197 0.870067 0.447253 -0.007692
C17   C     C_R   0.528049 0.035982 0.470971 -0.008866
C18   C     C_R   0.616795 0.001528 0.431297 0.066961
C19   C     C_R   0.621199 0.905803 0.390466 0.295821
C20   C     C_R   0.545608 0.838229 0.400061 0.310589
C21   C     C_R   0.524877 0.131957 0.510219 -0.201878
C22   C     C_R   0.685442 0.165919 0.461628 -0.243036
C23   C     C_R   0.561143 0.308472 0.508624 0.851887
C24   C     C_R   0.398235 0.801107 0.472918 -0.054681
C25   C     C_R   0.089189 0.343683 0.381877 -0.303597
C26   C     C_R   0.798974 0.631639 0.601080 0.025081
C27   C     C_R   0.902954 0.661417 0.621591 -0.241238
C28   C     C_R   0.984612 0.611823 0.583130 -0.186019
C29   C     C_R   0.962311 0.531552 0.523714 0.019627
C30   C     C_R   0.854808 0.504140 0.505081 0.235287
C31   C     C_R   0.041800 0.477680 0.482169 -0.012864
C32   C     C_R   0.012180 0.397892 0.423229 0.191286
C33   C     C_R   0.906118 0.372700 0.406211 -0.287886
C34   C     C_R   0.498978 0.499664 0.338120 0.938275
C35   C     C_R   0.828764 0.425163 0.446620 -0.210014
C36   C     C_R   0.150309 0.499163 0.496705 -0.044412
C37   C     C_R   0.194940 0.368596 0.399254 0.016575
C38   C     C_3   0.423494 0.578399 0.014127 -0.214858
C39   C     C_3   0.524758 0.593247 0.977184 -0.133348
C40   C     C_1   0.503190 0.501065 0.751345 -0.185923
C41   C     C_1   0.496692 0.500100 0.248698 -0.148970
C42   C     C_3   0.400411 0.486840 0.952433 -0.238459
H1    H     H_    0.544969 0.667778 0.956417 0.144830
H2    H     H_    0.463411 0.158532 0.546445 0.142846
H3    H     H_    0.248525 0.787222 0.515788 0.152301
H4    H     H_    0.319746 0.092305 0.503141 0.131202
H5    H     H_    0.196488 0.973710 0.524328 0.143871
H6    H     H_    0.255931 0.327217 0.368287 0.143822
H7    H     H_    0.882719 0.311924 0.361440 0.156012
H8    H     H_    0.067880 0.282586 0.336893 0.150354
H9    H     H_    0.180610 0.557824 0.540287 0.123499
H10   H     H_    0.735013 0.670142 0.630501 0.135671
H11   H     H_    0.361281 0.641122 0.027760 0.157765
H12   H     H_    0.063751 0.638000 0.601123 0.133930
H13   H     H_    0.920192 0.722887 0.667018 0.149948
H14   H     H_    0.748954 0.402126 0.430923 0.207357
H15   H     H_    0.680248 0.529842 0.087944 0.156726
H16   H     H_    0.638840 0.361599 0.972433 0.148733
H17   H     H_    0.319733 0.472913 0.912234 0.148761
H18   H     H_    0.742107 0.217853 0.452692 0.149786
H19   H     H_    0.764847 0.042829 0.398718 0.190496
N1    N     N_R   0.222180 0.444680 0.455580 -0.103615
N2    N     N_R   0.776980 0.554790 0.543960 -0.131655
O1    O     O_R   0.366730 0.627160 0.478790 -0.627409
O2    O     O_R   0.544830 0.662520 0.507160 -0.596441
O3    O     O_R   0.410960 0.482330 0.609040 -0.615614
O4    O     O_R   0.589060 0.517690 0.637410 -0.615394
O5    O     O_R   0.455170 0.337480 0.492840 -0.617457
O6    O     O_R   0.633270 0.372840 0.521210 -0.636150
O7    O     O_R   0.410940 0.482310 0.362590 -0.607210
O8    O     O_R   0.589040 0.517670 0.390960 -0.623698
Zn1   Zn    Zn3+2 0.381080 0.476390 0.481050 0.949703
Zn2   Zn    Zn3+2 0.618920 0.523610 0.518950 0.941798
O9    O     O_3   0.545567 0.744645 0.358743 -0.770468
H20   H     H_    0.622337 0.715962 0.358671 0.354117
O10   O     O_3   0.450841 0.319221 0.048526 -0.763095
H21   H     H_    0.440961 0.276599 0.995622 0.325987
O11   O     O_3   0.698568 0.881202 0.340887 -0.782635
H22   H     H_    0.668098 0.838078 0.291845 0.348600

loop_
_geom_bond_atom_site_label_1
_geom_bond_atom_site_label_2
_ccdc_geom_bond_type
C3    C42   S    
C23   O6    A    
C19   C20   A    
C4    C8    S    
C37   N1    A    
C14   H4    S    
C10   C22   A    
C26   C27   A    
C5    H16   S    
C9    H19   S    
C28   C29   A    
C38   C42   S    
C31   C36   A    
C22   H18   S    
C5    C6    S    
C27   H13   S    
C9    C22   A    
C33   H7    S    
C15   C16   A    
C11   C24   A    
O2    Zn2   S    
C18   C19   A    
C25   H8    S    
C25   C37   A    
C2    C39   S    
O3    Zn1   S    
C2    C7    S    
C1    O2    A    
C7    C40   T    
O6    Zn2   S    
O4    Zn2   S    
C34   O7    A    
C16   C20   A    
C25   C32   A    
C16   C24   A    
C30   N2    A    
C6    H15   S    
C34   C41   S    
C36   N1    A    
C10   C21   A    
C12   O4    A    
O9    H20   S    
N1    Zn1   S    
C8    C41   T    
C4    C6    S    
C13   H5    S    
C28   H12   S    
O11   H22   S    
C39   H1    S    
N2    Zn2   S    
C12   O3    A    
C17   C21   A    
C23   O5    A    
C12   C40   S    
C19   O11   S    
C26   N2    A    
C29   C30   A    
C26   H10   S    
C21   H2    S    
C31   C32   A    
O5    Zn1   S    
C17   C18   A    
C20   O9    S    
O10   H21   S    
C37   H6    S    
C3    O10   S    
C36   H9    S    
C30   C35   A    
C4    C38   S    
C11   H3    S    
C2    C5    S    
C3    C4    S    
C1    O1    A    
O8    Zn2   S    
C15   C17   A    
C35   H14   S    
C6    C39   S    
C3    C5    S    
C42   H17   S    
C10   C23   S    
C32   C33   A    
C29   C31   A    
C11   C13   A    
C38   C39   S    
C38   H11   S    
C2    C42   S    
C33   C35   A    
O1    Zn1   S    
C9    C18   A    
C1    C24   S    
C27   C28   A    
C14   C15   A    
O7    Zn1   S    
C13   C14   A    
C34   O8    A    
