data_mof_unit_47649.cif
_audit_creation_date              2012-12-11T17:47:23-0500
_audit_creation_method            fapswitch 2.2
_symmetry_space_group_name_H-M    P1
_symmetry_Int_Tables_number       1
_space_group_crystal_system       triclinic
_cell_length_a                    7.328684
_cell_length_b                    23.437944
_cell_length_c                    25.070212
_cell_angle_alpha                 89.735903
_cell_angle_beta                  91.676319
_cell_angle_gamma                 88.479536
_cell_volume                      4302.87141178

loop_
_atom_site_label
_atom_site_type_symbol
_atom_type_description
_atom_site_fract_x
_atom_site_fract_y
_atom_site_fract_z
_atom_type_partial_charge
O1    O     O_R   0.690340 0.802800 0.195640 -0.514639
O2    O     O_R   0.309660 0.197200 0.804360 -0.530542
O3    O     O_R   0.309660 0.197200 0.695640 -0.513253
O4    O     O_R   0.690340 0.802800 0.304360 -0.543131
O5    O     O_R   0.190340 0.697200 0.304360 -0.505421
O6    O     O_R   0.809660 0.302800 0.695640 -0.526681
O7    O     O_R   0.809660 0.302800 0.804360 -0.511571
O8    O     O_R   0.190340 0.697200 0.195640 -0.528614
O9    O     O_R   0.360590 0.809740 0.303990 -0.527990
O10   O     O_R   0.639410 0.190260 0.696010 -0.521773
O11   O     O_R   0.639410 0.190260 0.803990 -0.528058
O12   O     O_R   0.360590 0.809740 0.196010 -0.527142
O13   O     O_R   0.860590 0.690260 0.196010 -0.523985
O14   O     O_R   0.139410 0.309740 0.803990 -0.526261
O15   O     O_R   0.139410 0.309740 0.696010 -0.525639
O16   O     O_R   0.860590 0.690260 0.303990 -0.521087
C1    C     C_R   0.528200 0.822902 0.321688 0.796119
C2    C     C_R   0.472102 0.176500 0.678608 0.817083
C3    C     C_R   0.474759 0.176851 0.821731 0.784737
C4    C     C_R   0.525324 0.822957 0.178124 0.799476
C5    C     C_R   0.027561 0.676828 0.178472 0.798100
C6    C     C_R   0.972379 0.322992 0.821686 0.810124
C7    C     C_R   0.967635 0.322194 0.677214 0.783793
C8    C     C_R   0.032504 0.677764 0.322726 0.773418
O17   O     O_3   0.523810 0.713070 0.250000 -0.372751
O18   O     O_3   0.476190 0.286930 0.750000 -0.380313
O19   O     O_3   0.023810 0.786930 0.250000 -0.392641
O20   O     O_3   0.976190 0.213070 0.750000 -0.385342
V1    V     V_3+5 0.248970 0.756850 0.250000 1.687754
V2    V     V_3+5 0.751030 0.243150 0.750000 1.695491
V3    V     V_3+5 0.748970 0.743150 0.250000 1.676549
V4    V     V_3+5 0.251030 0.256850 0.750000 1.683872
C9    C     C_R   0.046604 0.636987 0.369482 -0.166838
C10   C     C_R   0.949931 0.364202 0.631377 -0.179759
C11   C     C_R   0.973325 0.367846 0.864074 -0.199403
C12   C     C_R   0.025659 0.631489 0.136553 -0.197547
C13   C     C_R   0.521217 0.867541 0.135352 -0.195365
C14   C     C_R   0.479884 0.131735 0.864043 -0.190515
C15   C     C_R   0.475311 0.130719 0.636987 -0.200797
C16   C     C_R   0.527688 0.867059 0.364399 -0.188521
C17   C     C_R   0.921025 0.592682 0.371108 -0.238851
C18   C     C_R   0.079818 0.407050 0.628238 -0.220832
C19   C     C_R   0.109041 0.409250 0.862115 -0.220324
C20   C     C_R   0.889776 0.590170 0.139256 -0.213699
C21   C     C_R   0.383042 0.910286 0.136457 -0.225276
C22   C     C_R   0.618886 0.089255 0.862324 -0.217594
C23   C     C_R   0.620627 0.089986 0.640081 -0.224147
C24   C     C_R   0.385978 0.908888 0.362371 -0.230821
C25   C     C_R   0.917289 0.555347 0.414733 -0.164739
C26   C     C_R   0.071890 0.447580 0.587135 -0.076317
C27   C     C_R   0.122292 0.452128 0.900248 -0.071296
C28   C     C_R   0.874054 0.547199 0.101294 -0.100709
C29   C     C_R   0.372582 0.953999 0.098599 -0.072273
C30   C     C_R   0.631788 0.045347 0.899961 -0.095197
C31   C     C_R   0.639269 0.046941 0.602287 -0.074466
C32   C     C_R   0.372440 0.951044 0.401104 -0.101281
C33   C     C_R   0.024929 0.565063 0.461157 0.270157
C34   C     C_R   0.927882 0.448592 0.548702 0.275266
C35   C     C_R   0.997572 0.456924 0.940970 0.297363
C36   C     C_R   0.996213 0.542300 0.059949 0.289398
C37   C     C_R   0.502752 0.957951 0.059413 0.293530
C38   C     C_R   0.503899 0.041106 0.939711 0.284688
C39   C     C_R   0.510940 0.041199 0.560723 0.298336
C40   C     C_R   0.503443 0.954941 0.442221 0.299174
C41   C     C_R   0.136798 0.612976 0.462467 0.237739
C42   C     C_R   0.788230 0.408617 0.552900 0.244692
C43   C     C_R   0.850498 0.418471 0.941099 0.197611
C44   C     C_R   0.145014 0.580001 0.059623 0.249831
C45   C     C_R   0.651781 0.917922 0.060147 0.196760
C46   C     C_R   0.352780 0.080258 0.939100 0.248581
C47   C     C_R   0.354468 0.078596 0.559698 0.193809
C48   C     C_R   0.655266 0.915734 0.442570 0.253816
C49   C     C_R   0.169083 0.643569 0.414533 0.304530
C50   C     C_R   0.806809 0.363111 0.591169 0.219766
C51   C     C_R   0.847672 0.370630 0.906146 0.324627
C52   C     C_R   0.150386 0.627993 0.094332 0.211448
C53   C     C_R   0.651187 0.869375 0.094420 0.323288
C54   C     C_R   0.350343 0.128977 0.904999 0.214187
C55   C     C_R   0.344962 0.126735 0.594269 0.329468
C56   C     C_R   0.658640 0.868369 0.407137 0.231786
N1    N     N_2   0.028288 0.527696 0.506821 -0.190318
N2    N     N_2   0.922831 0.486772 0.503679 -0.189107
N3    N     N_2   0.013915 0.504678 0.976639 -0.116735
N4    N     N_2   0.977931 0.494612 0.024304 -0.179693
N5    N     N_2   0.486752 0.005448 0.023216 -0.122899
N6    N     N_2   0.522138 0.993669 0.975908 -0.187887
N7    N     N_2   0.532938 0.993236 0.525440 -0.110361
N8    N     N_2   0.487980 0.003023 0.477570 -0.182534
H1    H     H_    0.190268 0.409090 0.657761 0.149951
H2    H     H_    0.828224 0.585725 0.337473 0.173522
H3    H     H_    0.793524 0.590916 0.171235 0.151677
H4    H     H_    0.207128 0.408639 0.830613 0.174982
H5    H     H_    0.719041 0.089759 0.831407 0.148498
H6    H     H_    0.281585 0.910111 0.167024 0.171470
H7    H     H_    0.283342 0.909122 0.330377 0.146790
H8    H     H_    0.722548 0.091342 0.672196 0.171773
H9    H     H_    0.179705 0.478191 0.585531 0.200719
H10   H     H_    0.825193 0.520029 0.412580 0.218629
H11   H     H_    0.767046 0.516540 0.104831 0.200495
H12   H     H_    0.229582 0.482790 0.897361 0.220970
H13   H     H_    0.741748 0.013746 0.897674 0.200630
H14   H     H_    0.262819 0.985733 0.100318 0.220694
H15   H     H_    0.260496 0.982097 0.398156 0.198918
H16   H     H_    0.753734 0.016873 0.606132 0.218197
S1    S     S_3+6 0.206928 0.638947 0.526296 0.161977
O21   O     O_2   0.381907 0.609119 0.544440 -0.292496
O22   O     O_2   0.234055 0.702288 0.524637 -0.198503
O23   O     O_3   0.046871 0.625576 0.571125 -0.451548
H17   H     H_    0.935355 0.646250 0.557389 0.371475
S2    S     S_3+6 0.588378 0.419309 0.510961 0.118130
O24   O     O_2   0.614122 0.387491 0.459716 -0.229742
O25   O     O_2   0.420664 0.398600 0.537212 -0.291641
O26   O     O_3   0.552990 0.488894 0.496315 -0.476584
H18   H     H_    0.538168 0.507498 0.531350 0.356359
S3    S     S_3+6 0.653663 0.439864 0.974748 0.166634
O27   O     O_2   0.637936 0.503464 0.968688 -0.223890
O28   O     O_2   0.483260 0.414767 0.951271 -0.248888
O29   O     O_3   0.676062 0.422173 0.039851 -0.454053
H19   H     H_    0.772508 0.391794 0.042063 0.355213
S4    S     S_3+6 0.342406 0.555850 0.027948 0.164198
O30   O     O_2   0.327232 0.571120 0.969660 -0.229901
O31   O     O_2   0.514377 0.579583 0.051727 -0.275474
O32   O     O_3   0.350880 0.484695 0.036060 -0.415753
H20   H     H_    0.364066 0.478560 0.075128 0.337557
S5    S     S_3+6 0.851698 0.936775 0.027392 0.162847
O33   O     O_2   0.866540 0.000276 0.032127 -0.230240
O34   O     O_2   0.020549 0.909314 0.052535 -0.249571
O35   O     O_3   0.836369 0.918667 0.962512 -0.448604
H21   H     H_    0.734469 0.891864 0.959502 0.356353
S6    S     S_3+6 0.153123 0.058636 0.970205 0.153438
O36   O     O_2   0.162744 0.074546 0.028202 -0.232996
O37   O     O_2   0.982189 0.084454 0.944843 -0.285165
O38   O     O_3   0.146288 0.987416 0.963992 -0.415312
H22   H     H_    0.133750 0.980688 0.925087 0.338484
S7    S     S_3+6 0.158251 0.055681 0.525102 0.166746
O39   O     O_2   0.160360 0.991891 0.529954 -0.222518
O40   O     O_2   0.985213 0.078577 0.548511 -0.248046
O41   O     O_3   0.165036 0.074919 0.460380 -0.455438
H23   H     H_    0.257549 0.104854 0.458734 0.354878
S8    S     S_3+6 0.857570 0.938040 0.473796 0.169880
O42   O     O_2   0.853573 0.925783 0.532645 -0.221477
O43   O     O_2   0.026400 0.910945 0.451373 -0.272883
O44   O     O_3   0.860539 0.008612 0.462514 -0.416376
H24   H     H_    0.869105 0.012607 0.423309 0.332517
S9    S     S_3+6 0.371916 0.683537 0.409835 0.145695
O45   O     O_2   0.470987 0.666845 0.360382 -0.349290
O46   O     O_2   0.321108 0.745974 0.407027 -0.234273
O47   O     O_3   0.519660 0.672250 0.461630 -0.391300
H25   H     H_    0.579763 0.634767 0.454608 0.357819
S10   S     S_3+6 0.658233 0.303967 0.587239 0.153161
O48   O     O_2   0.581838 0.295092 0.531749 -0.205769
O49   O     O_2   0.759430 0.250047 0.603642 -0.287789
O50   O     O_3   0.486273 0.315798 0.629125 -0.444052
H26   H     H_    0.490660 0.356715 0.638551 0.304484
S11   S     S_3+6 0.694028 0.314070 0.916535 0.132174
O51   O     O_2   0.528334 0.324027 0.880632 -0.301265
O52   O     O_2   0.781836 0.257666 0.903330 -0.265078
O53   O     O_3   0.630777 0.310709 0.980402 -0.445343
H27   H     H_    0.537301 0.280972 0.980975 0.410807
S12   S     S_3+6 0.310173 0.682989 0.084360 0.165351
O54   O     O_2   0.366982 0.684766 0.027270 -0.208412
O55   O     O_2   0.228580 0.740344 0.097481 -0.282162
O56   O     O_3   0.495362 0.670424 0.124422 -0.430649
H28   H     H_    0.464547 0.638118 0.147794 0.298677
S13   S     S_3+6 0.804930 0.810486 0.084450 0.130336
O57   O     O_2   0.967478 0.817234 0.121562 -0.298449
O58   O     O_2   0.714979 0.755432 0.096774 -0.272220
O59   O     O_3   0.873450 0.807249 0.021072 -0.441068
H29   H     H_    0.959439 0.773966 0.020229 0.411904
S14   S     S_3+6 0.189125 0.186157 0.914110 0.162349
O60   O     O_2   0.123823 0.187573 0.970367 -0.209069
O61   O     O_2   0.273649 0.242368 0.902713 -0.287884
O62   O     O_3   0.010385 0.177356 0.871498 -0.433561
H30   H     H_    0.035316 0.141107 0.852591 0.300534
S15   S     S_3+6 0.173962 0.181452 0.583632 0.133311
O63   O     O_2   0.019880 0.169329 0.619887 -0.302554
O64   O     O_2   0.247638 0.238947 0.596591 -0.267695
O65   O     O_3   0.095917 0.183834 0.519877 -0.441207
H31   H     H_    0.990802 0.211275 0.519676 0.412303
S16   S     S_3+6 0.818061 0.810080 0.418343 0.187559
O66   O     O_2   0.876282 0.806631 0.476279 -0.189833
O67   O     O_2   0.733476 0.754629 0.403289 -0.267339
O68   O     O_3   0.003571 0.818612 0.381359 -0.440872
H32   H     H_    0.973281 0.851217 0.357154 0.299744

loop_
_geom_bond_atom_site_label_1
_geom_bond_atom_site_label_2
_ccdc_geom_bond_type
O17   V3    S    
S7    O41   S    
N7    N8    D    
O18   V4    S    
S13   O57   D    
C24   H7    S    
O12   V1    S    
S11   O52   D    
O16   C8    A    
C30   H13   S    
C45   C53   A    
O56   H28   S    
C10   C18   A    
S8    O44   S    
C54   S14   S    
O68   H32   S    
C19   C27   A    
O35   H21   S    
C47   C55   A    
O65   H31   S    
C25   C33   A    
O32   H20   S    
S15   O64   D    
C5    C12   S    
O62   H30   S    
S4    O30   D    
O16   V3    S    
C6    C11   S    
C38   N6    S    
O11   C3    A    
S5    O33   D    
O8    V1    S    
C56   S16   S    
C23   C31   A    
C35   N3    S    
C34   N2    S    
C47   S7    S    
C46   C54   A    
S14   O60   D    
C53   S13   S    
S3    O27   D    
C42   C50   A    
O1    V3    S    
C41   C49   A    
O23   H17   S    
C38   C46   A    
O3    C2    A    
O2    V4    S    
C41   S1    S    
C16   C24   A    
S2    O24   D    
C43   S3    S    
C12   C52   A    
C35   C43   A    
C25   H10   S    
O29   H19   S    
C29   C37   A    
C34   C42   A    
N3    N4    D    
O11   V2    S    
S4    O31   D    
S3    O28   D    
S10   O50   S    
C31   C39   A    
S5    O35   S    
C23   H8    S    
C16   C56   A    
C11   C19   A    
S4    O32   S    
O9    V1    S    
C7    C10   S    
O15   C7    A    
C17   H2    S    
C45   S5    S    
S13   O58   D    
O7    V2    S    
S7    O40   D    
S11   O53   S    
O12   C4    A    
C21   H6    S    
C17   C25   A    
S9    O46   D    
S16   O67   D    
S9    O45   D    
S15   O65   S    
O5    V1    S    
S1    O23   S    
C26   C34   A    
S12   O56   S    
C55   S15   S    
S7    O39   D    
S8    O42   D    
C22   H5    S    
O14   V4    S    
C14   C54   A    
N5    N6    D    
C13   C53   A    
C31   H16   S    
N1    N2    D    
C49   S9    S    
C1    C16   S    
C15   C55   A    
S6    O37   D    
C2    C15   S    
C3    C14   S    
S1    O22   D    
O10   V2    S    
S15   O63   D    
C29   H14   S    
S3    O29   S    
C11   C51   A    
C22   C30   A    
C32   C40   A    
O8    C5    A    
O13   C5    A    
C42   S2    S    
S2    O26   S    
C20   H3    S    
C37   N5    S    
C10   C50   A    
O4    C1    A    
C9    C49   A    
O59   H29   S    
O6    V2    S    
C39   C47   A    
S13   O59   S    
O53   H27   S    
C33   N1    S    
C12   C20   A    
S6    O38   S    
C43   C51   A    
C13   C21   A    
C46   S6    S    
S11   O51   D    
S9    O47   S    
S16   O66   D    
C15   C23   A    
O26   H18   S    
O9    C1    A    
C27   H12   S    
C24   C32   A    
C52   S12   S    
C26   H9    S    
C18   C26   A    
C39   N7    S    
O2    C3    A    
O13   V3    S    
C8    C9    S    
C32   H15   S    
C33   C41   A    
O1    C4    A    
O15   V4    S    
S16   O68   S    
S8    O43   D    
C44   C52   A    
O7    C6    A    
C30   C38   A    
S1    O21   D    
C28   H11   S    
C19   H4    S    
C18   H1    S    
C37   C45   A    
S12   O54   D    
O14   C6    A    
O20   V2    S    
S6    O36   D    
C9    C17   A    
C48   C56   A    
C44   S4    S    
C4    C13   S    
C36   N4    S    
C20   C28   A    
O38   H22   S    
O5    C8    A    
S14   O61   D    
O10   C2    A    
O6    C7    A    
S10   O49   D    
O47   H25   S    
C40   C48   A    
O3    V4    S    
S2    O25   D    
C14   C22   A    
O4    V3    S    
O41   H23   S    
C21   C29   A    
C51   S11   S    
C48   S8    S    
C27   C35   A    
C36   C44   A    
C28   C36   A    
O19   V1    S    
S5    O34   D    
S10   O48   D    
C50   S10   S    
O50   H26   S    
C40   N8    S    
O44   H24   S    
S12   O55   D    
S14   O62   S    
