data_mof_unit_49435.cif
_audit_creation_date              2013-03-05T15:56:56-0500
_audit_creation_method            fapswitch 2.2
_symmetry_space_group_name_H-M    P1
_symmetry_Int_Tables_number       1
_space_group_crystal_system       triclinic
_cell_length_a                    6.94319
_cell_length_b                    14.507517
_cell_length_c                    16.099454
_cell_angle_alpha                 90.011348
_cell_angle_beta                  89.894782
_cell_angle_gamma                 90.102505
_cell_volume                      1621.66763787

loop_
_atom_site_label
_atom_site_type_symbol
_atom_site_description
_atom_site_fract_x
_atom_site_fract_y
_atom_site_fract_z
_atom_type_partial_charge
O1    O     O_R   0.505680 0.583900 0.413320 -0.595223
O2    O     O_R   0.176010 0.594950 0.586080 -0.591235
O3    O     O_R   0.005680 0.416100 0.586680 -0.587213
C1    C     C_R   0.344924 0.616419 0.615346 1.117441
O4    O     O_R   0.175960 0.594930 0.413930 -0.577908
O5    O     O_R   0.005640 0.416080 0.413300 -0.573834
C2    C     C_R   0.345028 0.614987 0.383340 1.061421
O6    O     O_R   0.505720 0.583920 0.586700 -0.573548
O7    O     O_3   0.339190 0.441320 0.500000 -0.240364
V1    V     V_3+5 0.064350 0.510890 0.500000 1.330089
O8    O     O_R   0.675920 0.405050 0.413920 -0.567444
C3    C     C_R   0.844961 0.383442 0.384749 1.174432
O9    O     O_R   0.675960 0.405070 0.586070 -0.575336
C4    C     C_R   0.844926 0.382269 0.614197 1.058727
V2    V     V_3+5 0.564340 0.489110 0.500000 1.344637
O10   O     O_3   0.839370 0.558680 0.500000 -0.277149
C5    C     C_R   0.993308 0.322247 0.745624 0.067044
C6    C     C_R   0.854449 0.314634 0.683053 -0.205223
C7    C     C_R   0.731570 0.237911 0.685410 -0.125100
H1    H     H_    0.639052 0.224536 0.633129 0.242506
C8    C     C_R   0.740641 0.172885 0.750226 0.509672
C9    C     C_R   0.877814 0.182802 0.814834 -0.334530
C10   C     C_R   0.002220 0.259124 0.811484 0.042206
C11   C     C_3   0.217703 0.257773 0.808457 0.039330
C12   C     C_3   0.207249 0.323234 0.735001 0.157356
H2    H     H_    0.277802 0.188568 0.794181 0.184866
H3    H     H_    0.272178 0.392424 0.745120 0.150980
C13   C     C_R   0.990613 0.266596 0.181920 0.392414
C14   C     C_R   0.979910 0.330900 0.247333 0.448388
C15   C     C_R   0.856473 0.315079 0.315887 -0.532158
C16   C     C_R   0.742768 0.234130 0.317741 0.263103
C17   C     C_R   0.754776 0.169516 0.252412 0.384167
C18   C     C_R   0.878738 0.185206 0.183978 -0.503516
C19   C     C_R   0.248160 0.767283 0.680949 0.260986
C20   C     C_R   0.259883 0.831805 0.746426 0.412792
C21   C     C_R   0.378626 0.814693 0.816055 -0.511776
C22   C     C_R   0.484489 0.731735 0.819557 0.403307
C23   C     C_R   0.473411 0.667316 0.754182 0.422655
C24   C     C_R   0.356225 0.684810 0.684188 -0.536356
C25   C     C_R   0.209814 0.746390 0.301157 -0.008503
H4    H     H_    0.087261 0.748125 0.342854 0.172102
C26   C     C_R   0.219716 0.811316 0.236958 -0.054083
H5    H     H_    0.103845 0.860665 0.230379 0.144315
C27   C     C_R   0.378993 0.813944 0.183096 -0.180528
C28   C     C_R   0.526207 0.748924 0.193699 -0.170467
H6    H     H_    0.646958 0.748252 0.150969 0.185559
C29   C     C_R   0.514460 0.680884 0.255785 0.379350
C30   C     C_R   0.356638 0.680831 0.312238 -0.294993
O11   O     O_R   0.229200 0.915950 0.913350 -0.582905
O12   O     O_R   0.559090 0.905000 0.086080 -0.591856
O13   O     O_R   0.729280 0.083880 0.086680 -0.567004
C31   C     C_R   0.389959 0.882963 0.115036 1.010236
O14   O     O_R   0.558920 0.904980 0.913920 -0.561303
O15   O     O_R   0.729110 0.083860 0.913300 -0.564232
C32   C     C_R   0.389934 0.882990 0.885014 1.160122
O16   O     O_R   0.229360 0.915970 0.086730 -0.617605
O17   O     O_3   0.395680 0.058580 0.000030 -0.237869
V3    V     V_3+5 0.670570 0.989070 0.999990 1.326355
O18   O     O_R   0.058820 0.094950 0.913870 -0.590180
C33   C     C_R   0.890186 0.115514 0.883995 1.086355
O19   O     O_R   0.058990 0.094970 0.086020 -0.573768
C34   C     C_R   0.889992 0.116915 0.114985 1.119423
V4    V     V_3+5 0.170560 0.010930 0.999930 1.317224
O20   O     O_3   0.895590 0.941310 0.999960 -0.279549
Cl1   Cl    Cl    0.625732 0.064544 0.261314 -0.555745
N1    N     N_R   0.131365 0.787470 0.609712 0.277176
O21   O     O_R   0.948418 0.804207 0.618529 -0.292451
O22   O     O_R   0.207189 0.788330 0.535736 -0.383312
Cl2   Cl    Cl    0.136681 0.938078 0.736744 -0.474417
Cl3   Cl    Cl    0.624649 0.705139 0.908114 -0.499564
Cl4   Cl    Cl    0.599448 0.561718 0.763157 -0.549001
N2    N     N_R   0.657336 0.609442 0.256924 0.241550
O23   O     O_R   0.836337 0.629131 0.240578 -0.370564
O24   O     O_R   0.604023 0.523414 0.258045 -0.340119
Cl5   Cl    Cl    0.594487 0.073901 0.741638 -0.526240
N3    N     N_R   0.304115 0.300158 0.881996 0.268134
O25   O     O_R   0.245124 0.379840 0.909148 -0.264445
O26   O     O_R   0.444378 0.258624 0.920038 -0.324595
Cl6   Cl    Cl    0.276543 0.268541 0.639995 -0.553673
Cl7   Cl    Cl    0.139071 0.291470 0.095285 -0.426584
Cl8   Cl    Cl    0.115625 0.434116 0.240078 -0.447202
N4    N     N_R   0.620442 0.215230 0.387717 0.280580
O27   O     O_R   0.692451 0.211372 0.462181 -0.363847
O28   O     O_R   0.436686 0.202037 0.377197 -0.282487

loop_
_geom_bond_atom_site_label_1
_geom_bond_atom_site_label_2
_geom_bond_distance
_ccdc_geom_bond_type
N1    O22   1.301299 A    
O11   V4    2.001634 S    
C4    C6    1.482225 S    
C7    H1    1.077135 S    
C1    O6    1.296661 A    
C19   N1    1.436354 S    
O15   C33   1.296362 A    
C28   H6    1.083582 S    
C14   C15   1.414660 A    
C16   N4    1.435788 S    
C8    C9    1.418734 A    
C21   C22   1.412517 A    
C7    C8    1.408408 A    
C11   H2    1.111752 S    
C6    C7    1.401699 A    
C9    C33   1.483641 S    
C15   C16   1.414181 A    
V2    O10   2.158304 S    
C19   C20   1.411975 A    
C28   C29   1.407106 A    
O19   V4    2.001582 S    
O8    V2    2.001674 S    
C20   C21   1.414996 A    
C18   C34   1.490286 S    
O12   C31   1.302013 A    
C10   C11   1.497011 S    
O1    V2    2.002310 S    
O7    V1    2.160333 S    
C27   C31   1.486217 S    
C25   C26   1.400035 A    
N1    O21   1.301168 A    
O18   C33   1.301769 A    
C12   Cl6   1.788502 S    
C22   Cl3   1.770661 S    
O13   C34   1.297048 A    
C26   C27   1.404543 A    
O17   V4    1.707967 S    
O14   C32   1.302145 A    
V3    O20   1.710237 S    
C19   C24   1.414442 A    
O12   V3    2.000254 S    
N3    O25   1.302306 A    
N2    O24   1.301266 A    
O4    C2    1.304563 A    
C11   N3    1.463140 S    
O11   C32   1.296991 A    
O2    C1    1.301972 A    
C14   Cl8   1.771546 S    
C22   C23   1.409514 A    
C29   C30   1.422360 A    
C1    C24   1.489487 S    
O8    C3    1.302155 A    
C5    C6    1.399869 A    
O16   V4    2.005552 S    
O13   V3    2.001311 S    
C5    C10   1.402687 A    
C11   C12   1.518785 S    
O3    C4    1.295849 A    
C25   H4    1.083188 S    
C13   C18   1.412559 A    
O6    V2    2.001253 S    
N4    O28   1.301165 A    
O9    V2    2.003798 S    
C26   H5    1.083246 S    
O2    V1    2.002170 S    
C27   C28   1.402790 A    
O15   V3    2.000209 S    
C25   C30   1.407069 A    
C23   Cl4   1.771699 S    
C13   C14   1.408694 A    
C3    C15   1.489495 S    
O1    C2    1.297854 A    
C16   C17   1.411188 A    
N3    O26   1.300392 A    
N2    O23   1.301173 A    
O5    V1    2.001424 S    
O14   V3    2.002297 S    
C12   H3    1.111728 S    
C8    Cl5   1.762458 S    
O18   V4    2.003832 S    
C5    C12   1.494981 S    
C2    C30   1.493033 S    
O7    V2    1.708973 S    
O4    V1    2.000112 S    
O3    V1    2.000279 S    
V1    O10   1.710161 S    
C17   C18   1.415045 A    
O5    C3    1.296152 A    
O17   V3    2.160230 S    
C23   C24   1.414376 A    
O19   C34   1.301891 A    
C13   Cl7   1.769672 S    
C29   N2    1.436105 S    
V4    O20   2.158275 S    
C20   Cl2   1.771544 S    
N4    O27   1.301013 A    
C21   C32   1.489985 S    
C9    C10   1.404076 A    
O9    C4    1.301608 A    
C31   O16   1.297778 A    
C17   Cl1   1.771223 S    
