data_mof_unit_48911.cif
_audit_creation_date              2012-10-26T21:00:44-0400
_audit_creation_method            fapswitch 2.2
_symmetry_space_group_name_H-M    P1
_symmetry_Int_Tables_number       1
_space_group_crystal_system       triclinic
_cell_length_a                    10.785024
_cell_length_b                    9.524378
_cell_length_c                    10.898215
_cell_angle_alpha                 90.724448
_cell_angle_beta                  89.230555
_cell_angle_gamma                 89.612885
_cell_volume                      1119.25439958

loop_
_atom_site_label
_atom_site_type_symbol
_atom_type_description
_atom_site_fract_x
_atom_site_fract_y
_atom_site_fract_z
_atom_type_partial_charge
Br1   Br    Br    0.159685 0.330559 0.271720 -0.497417
Br2   Br    Br    0.852437 0.327935 0.273611 -0.520879
C1    C     C_R   0.262414 0.500387 0.498686 0.565719
C2    C     C_R   0.496623 0.501672 0.738564 0.555645
C3    C     C_R   0.379562 0.737935 0.128724 -0.073461
C4    C     C_R   0.481456 0.769569 0.895729 -0.092179
C5    C     C_R   0.376517 0.868569 0.073665 -0.121091
C6    C     C_R   0.434812 0.885564 0.960738 -0.138606
C7    C     C_R   0.470168 0.632311 0.943651 -0.027886
C8    C     C_R   0.437726 0.622226 0.068921 -0.022071
C9    C     C_R   0.464545 0.496522 0.130427 -0.015087
C10   C     C_R   0.483924 0.504889 0.873677 -0.051928
C11   C     C_R   0.476915 0.370725 0.061971 0.259587
C12   C     C_R   0.737855 0.499633 0.498240 0.581303
C13   C     C_R   0.468206 0.375581 0.934382 0.228631
C14   C     C_R   0.067508 0.424514 0.402495 0.172377
C15   C     C_R   0.937914 0.423491 0.403056 0.180154
C16   C     C_R   0.871944 0.499427 0.494571 0.006664
C17   C     C_R   0.128974 0.501213 0.494079 -0.000106
C18   C     C_3   0.602922 0.180283 0.091822 0.013723
C19   C     C_3   0.635037 0.073731 0.189615 -0.328109
C20   C     C_3   0.311000 0.236114 0.870226 0.006445
C21   C     C_3   0.273636 0.146322 0.760232 -0.364282
C22   C     C_R   0.934399 0.579599 0.582047 -0.175540
C23   C     C_R   0.062728 0.580360 0.581902 -0.176206
C24   C     C_R   0.412842 0.074127 0.436767 0.003281
C25   C     C_R   0.586646 0.074679 0.564081 0.024740
C26   C     C_R   0.412310 0.925564 0.437527 0.004593
C27   C     C_R   0.586909 0.925918 0.563732 0.006960
C28   C     C_R   0.487286 0.498914 0.263185 0.600005
Cu1   Cu    Cu3+1 0.500000 0.640660 0.500000 0.936391
Cu2   Cu    Cu3+1 0.500000 0.359340 0.500000 1.001181
H1    H     H_    0.334018 0.726899 0.216868 0.137134
H2    H     H_    0.656493 0.870268 0.614996 0.106275
H3    H     H_    0.678655 0.259128 0.088101 0.169357
H4    H     H_    0.600560 0.125206 0.001648 0.156009
H5    H     H_    0.725624 0.023060 0.166918 0.133708
H6    H     H_    0.641302 0.126708 0.280476 0.213518
H7    H     H_    0.563226 0.991538 0.195295 0.152851
H8    H     H_    0.259033 0.337674 0.864014 0.129574
H9    H     H_    0.281542 0.182660 0.955847 0.178511
H10   H     H_    0.324219 0.044633 0.757989 0.148266
H11   H     H_    0.172523 0.125501 0.764864 0.104426
H12   H     H_    0.528707 0.793076 0.811247 0.146307
H13   H     H_    0.294482 0.202448 0.674125 0.197673
H14   H     H_    0.334680 0.957823 0.121245 0.147034
H15   H     H_    0.442952 0.988563 0.922441 0.160408
H16   H     H_    0.883630 0.639751 0.651520 0.126536
H17   H     H_    0.110541 0.640716 0.651488 0.134167
H18   H     H_    0.343346 0.129609 0.385533 0.175793
H19   H     H_    0.655891 0.130842 0.615719 0.128277
H20   H     H_    0.341148 0.870007 0.388499 0.112414
N1    N     N_R   0.500000 0.852070 0.500000 -0.230690
N2    N     N_R   0.500000 0.147940 0.500000 -0.244479
O1    O     O_R   0.319640 0.618740 0.499990 -0.515761
O2    O     O_3   0.441430 0.253662 0.869805 -0.558511
O3    O     O_R   0.680360 0.618740 0.500010 -0.503930
O4    O     O_R   0.319620 0.381170 0.499990 -0.501447
O5    O     O_R   0.680380 0.381170 0.500010 -0.484527
O6    O     O_R   0.500000 0.618810 0.319650 -0.516582
O7    O     O_R   0.500000 0.618810 0.680350 -0.533505
O8    O     O_R   0.499970 0.381240 0.319640 -0.426529
O9    O     O_R   0.500030 0.381240 0.680360 -0.454817
O10   O     O_3   0.486158 0.242338 0.119980 -0.530009

loop_
_geom_bond_atom_site_label_1
_geom_bond_atom_site_label_2
_ccdc_geom_bond_type
Cu1   O6    S    
C18   O10   S    
C4    C6    A    
C26   N1    A    
C1    O4    A    
C1    C17   S    
C21   H13   S    
C25   C27   A    
C26   H20   S    
C7    C8    A    
Cu1   O7    S    
C24   C26   A    
Cu1   Cu2   S    
C19   H7    S    
C10   C13   A    
Cu2   O4    S    
C20   H8    S    
C13   O2    S    
Cu1   O3    S    
C4    C7    A    
C24   H18   S    
C15   C16   A    
C25   N2    A    
Cu2   O8    S    
C3    C8    A    
C2    O7    A    
Br1   C14   S    
C4    H12   S    
Cu1   N1    S    
Br2   C15   S    
C28   O6    A    
C12   O5    A    
C9    C11   A    
C2    O9    A    
C21   H10   S    
C27   N1    A    
C14   C17   A    
C16   C22   A    
C24   N2    A    
Cu2   N2    S    
C25   H19   S    
C11   C13   A    
C28   O8    A    
C17   C23   A    
C7    C10   A    
C23   H17   S    
C6    H15   S    
C20   H9    S    
C11   O10   S    
C8    C9    A    
C22   H16   S    
C5    H14   S    
C5    C6    A    
C19   H5    S    
C22   C23   A    
Cu2   O9    S    
C3    C5    A    
C12   O3    A    
C12   C16   S    
C20   C21   S    
C20   O2    S    
Cu2   O5    S    
Cu1   O1    S    
C18   C19   S    
C2    C10   S    
C21   H11   S    
C1    O1    A    
C27   H2    S    
C18   H3    S    
C19   H6    S    
C9    C28   S    
C3    H1    S    
C14   C15   A    
C18   H4    S    
