data_mof_unit_63804.cif
_audit_creation_date              2013-03-05T16:47:46-0500
_audit_creation_method            fapswitch 2.2
_symmetry_space_group_name_H-M    P1
_symmetry_Int_Tables_number       1
_space_group_crystal_system       triclinic
_cell_length_a                    22.261492
_cell_length_b                    22.329473
_cell_length_c                    22.242628
_cell_angle_alpha                 107.820041
_cell_angle_beta                  110.167232
_cell_angle_gamma                 110.371632
_cell_volume                      8513.18055163

loop_
_atom_site_label
_atom_site_type_symbol
_atom_site_description
_atom_site_fract_x
_atom_site_fract_y
_atom_site_fract_z
_atom_type_partial_charge
Zn1   Zn    Zn3+2 0.438420 0.731820 0.293400 1.016802
Zn2   Zn    Zn3+2 0.561580 0.268180 0.706600 1.016799
Zn3   Zn    Zn3+2 0.561600 0.855040 0.293450 1.038390
Zn4   Zn    Zn3+2 0.438400 0.144960 0.706550 1.038657
Zn5   Zn    Zn3+2 0.438510 0.706680 0.145100 0.987830
Zn6   Zn    Zn3+2 0.561490 0.293320 0.854900 0.987819
Zn7   Zn    Zn3+2 0.561670 0.706730 0.268320 1.030228
Zn8   Zn    Zn3+2 0.438330 0.293270 0.731680 1.030275
O1    O     O_3   0.500050 0.750060 0.250070 -0.505403
O2    O     O_3   0.499950 0.249940 0.749930 -0.505434
O3    O     O_R   0.664480 0.780430 0.323540 -0.625853
O4    O     O_R   0.335520 0.219570 0.676460 -0.625849
O5    O     O_R   0.335610 0.676590 0.219700 -0.626946
O6    O     O_R   0.664390 0.323410 0.780300 -0.627027
O7    O     O_R   0.543050 0.908950 0.365840 -0.636002
O8    O     O_R   0.456950 0.091050 0.634160 -0.635689
O9    O     O_R   0.457060 0.634290 0.091200 -0.649631
O10   O     O_R   0.542940 0.365710 0.908800 -0.649643
O11   O     O_R   0.543140 0.884190 0.219790 -0.607754
O12   O     O_R   0.456860 0.115810 0.780210 -0.607658
O13   O     O_R   0.543170 0.659080 0.323490 -0.632351
O14   O     O_R   0.456830 0.340920 0.676510 -0.632325
O15   O     O_R   0.456990 0.780350 0.115960 -0.652163
O16   O     O_R   0.543010 0.219650 0.884040 -0.652191
O17   O     O_R   0.456900 0.676640 0.341050 -0.606464
O18   O     O_R   0.543100 0.323360 0.658950 -0.606456
O19   O     O_R   0.456830 0.822700 0.365800 -0.651753
O20   O     O_R   0.543170 0.177300 0.634200 -0.651902
O21   O     O_R   0.543260 0.634320 0.177440 -0.636060
O22   O     O_R   0.456740 0.365680 0.822560 -0.636049
O23   O     O_R   0.664430 0.884240 0.341140 -0.619865
O24   O     O_R   0.335570 0.115760 0.658860 -0.619830
O25   O     O_R   0.335680 0.659000 0.115900 -0.640554
O26   O     O_R   0.664320 0.341000 0.884100 -0.640511
C1    C     C_R   0.699382 0.849788 0.349822 0.824091
C2    C     C_R   0.300618 0.150212 0.650178 0.824098
C3    C     C_R   0.300617 0.650270 0.150316 0.844973
C4    C     C_R   0.699384 0.349732 0.849686 0.844927
C5    C     C_R   0.500943 0.890025 0.391579 0.794208
C6    C     C_R   0.499080 0.109970 0.608445 0.794278
C7    C     C_R   0.498766 0.608675 0.109599 0.811600
C8    C     C_R   0.501233 0.391323 0.890400 0.811597
C9    C     C_R   0.500019 0.849736 0.150348 0.834206
C10   C     C_R   0.499982 0.150264 0.849652 0.834172
C11   C     C_R   0.499953 0.650420 0.349752 0.821893
C12   C     C_R   0.500046 0.349579 0.650247 0.821931
C13   C     C_3   0.453341 0.428558 0.453079 -0.121636
C14   C     C_3   0.546650 0.571432 0.546912 -0.121640
C15   C     C_3   0.431329 0.487893 0.463289 -0.122842
C16   C     C_3   0.568662 0.512098 0.536701 -0.122899
C17   C     C_1   0.499811 0.610966 0.389326 -0.011229
C18   C     C_1   0.500185 0.389030 0.610670 -0.011360
C19   C     C_3   0.521927 0.477962 0.452689 -0.128065
C20   C     C_3   0.478064 0.522029 0.547301 -0.128038
C21   C     C_3   0.499914 0.537185 0.463012 0.129656
C22   C     C_3   0.500077 0.462806 0.536979 0.129665
C23   C     C_1   0.499815 0.577699 0.422613 0.180669
C24   C     C_1   0.500178 0.422294 0.577380 0.180589
C25   C     C_3   0.974936 0.428661 0.979439 0.184081
C26   C     C_3   0.025068 0.571368 0.020608 0.183953
C27   C     C_3   0.024594 0.473989 0.957163 -0.157994
C28   C     C_3   0.975407 0.526039 0.042882 -0.157970
C29   C     C_1   0.221434 0.610548 0.110717 -0.094856
C30   C     C_1   0.778567 0.389464 0.889293 -0.094875
C31   C     C_3   0.024540 0.491995 0.059272 -0.159325
C32   C     C_3   0.975464 0.508036 0.940773 -0.159378
C33   C     C_3   0.073769 0.536706 0.036740 0.020158
C34   C     C_3   0.926233 0.463322 0.963304 0.020182
C35   C     C_1   0.154792 0.577146 0.077285 0.050034
C36   C     C_1   0.845210 0.422875 0.922742 0.050119
C37   C     C_R   0.317159 0.585538 0.907721 -0.090457
C38   C     C_R   0.682837 0.414457 0.092277 -0.090517
C39   C     C_R   0.353822 0.550037 0.931856 0.250476
C40   C     C_R   0.646171 0.449957 0.068142 0.250489
C41   C     C_R   0.430317 0.579608 0.956440 0.014879
C42   C     C_R   0.569677 0.420385 0.043558 0.014925
C43   C     C_R   0.470834 0.645220 0.958159 0.123722
C44   C     C_R   0.529161 0.354774 0.041841 0.123731
C45   C     C_R   0.434141 0.680037 0.932116 -0.035239
C46   C     C_R   0.565856 0.319960 0.067886 -0.035232
C47   C     C_R   0.356882 0.649909 0.906347 -0.161715
C48   C     C_R   0.643114 0.350086 0.093652 -0.161714
C49   C     C_R   0.474169 0.491773 0.928443 -0.069001
C50   C     C_R   0.525817 0.508215 0.071555 -0.069018
C51   C     C_R   0.503688 0.449196 0.947358 -0.144309
C52   C     C_R   0.496305 0.550798 0.052641 -0.144313
C53   C     C_R   0.532156 0.459580 0.019919 0.030334
C54   C     C_R   0.467835 0.540411 0.980080 0.030330
C55   C     C_3   0.024168 0.011710 0.568583 -0.047685
C56   C     C_3   0.975832 0.988290 0.431418 -0.047681
C57   C     C_3   0.975605 0.039129 0.531852 -0.049749
C58   C     C_3   0.024394 0.960871 0.468150 -0.049665
H1    H     H_    0.046933 0.117906 0.500706 0.175120
H2    H     H_    0.953067 0.882094 0.499296 0.175114
C59   C     C_1   0.778568 0.889367 0.389361 -0.055989
C60   C     C_1   0.221432 0.110633 0.610640 -0.056013
C61   C     C_3   0.974230 0.935221 0.499625 -0.313067
C62   C     C_3   0.025770 0.064779 0.500376 -0.313049
C63   C     C_3   0.926218 0.963572 0.463014 0.147945
C64   C     C_3   0.073782 0.036428 0.536988 0.147953
C65   C     C_1   0.845217 0.922798 0.422614 0.095672
C66   C     C_1   0.154783 0.077203 0.577387 0.095680
C67   C     C_3   0.449562 0.020919 0.995446 0.084385
C68   C     C_3   0.550441 0.979080 0.004552 0.084368
C69   C     C_3   0.432872 0.941350 0.965918 -0.144193
C70   C     C_3   0.567131 0.058649 0.034081 -0.144188
C71   C     C_1   0.499827 0.889557 0.110933 -0.100673
C72   C     C_1   0.500174 0.110443 0.889066 -0.100610
C73   C     C_3   0.517081 0.043564 0.067770 0.105662
C74   C     C_3   0.482923 0.956435 0.932228 0.105659
C75   C     C_3   0.499888 0.963919 0.037568 -0.013199
C76   C     C_3   0.500115 0.036081 0.962430 -0.013208
C77   C     C_1   0.499926 0.923365 0.078073 0.087434
C78   C     C_1   0.500076 0.076634 0.921926 0.087446
C79   C     C_R   0.254082 0.751877 0.319144 -0.068030
C80   C     C_R   0.745974 0.248131 0.681035 -0.068004
C81   C     C_R   0.313499 0.824334 0.355159 0.199701
C82   C     C_R   0.686551 0.175684 0.645052 0.200670
C83   C     C_R   0.377521 0.850215 0.421141 0.016346
C84   C     C_R   0.622580 0.149751 0.579004 0.017209
C85   C     C_R   0.383231 0.803679 0.451267 -0.023420
C86   C     C_R   0.616904 0.196236 0.548800 -0.023635
C87   C     C_R   0.326580 0.729115 0.411893 -0.034165
C88   C     C_R   0.673540 0.270805 0.588156 -0.034070
C89   C     C_R   0.261531 0.703419 0.346043 -0.134662
C90   C     C_R   0.738556 0.296544 0.654057 -0.134555
C91   C     C_R   0.436763 0.982242 0.508432 -0.073979
C92   C     C_R   0.563424 0.017692 0.491804 -0.074328
C93   C     C_R   0.498129 0.054482 0.550626 -0.166038
C94   C     C_R   0.501976 0.945490 0.449495 -0.166295
C95   C     C_R   0.560336 0.072594 0.540275 -0.026869
C96   C     C_R   0.439795 0.927370 0.459880 -0.026884
C97   C     C_2   0.353606 0.472801 0.423305 0.425656
H3    H     H_    0.310395 0.436739 0.428321 0.087063
O27   O     O_2   0.338527 0.500674 0.385258 -0.500863
C98   C     C_2   0.646384 0.527188 0.576683 0.425696
H4    H     H_    0.689598 0.563258 0.571677 0.087072
O28   O     O_2   0.661459 0.499301 0.614717 -0.500854
I1    I     I_    0.589019 0.693456 0.006464 -0.207982
I2    I     I_    0.410976 0.306537 0.993543 -0.207982
C99   C     C_2   0.476441 0.749175 0.933748 0.569354
H5    H     H_    0.465222 0.793180 0.950435 0.072171
O29   O     O_2   0.521357 0.756305 0.913032 -0.475831
C100  C     C_2   0.523556 0.250826 0.066259 0.569391
H6    H     H_    0.534753 0.206807 0.049549 0.072133
O30   O     O_2   0.478663 0.243712 0.087004 -0.475806
C101  C     C_2   0.455489 0.489939 0.856420 0.525034
H7    H     H_    0.493554 0.491398 0.836066 0.079669
O31   O     O_2   0.397109 0.484709 0.818593 -0.513940
C102  C     C_2   0.544490 0.510048 0.143577 0.525038
H8    H     H_    0.506438 0.508619 0.163943 0.079683
O32   O     O_2   0.602850 0.515238 0.181392 -0.513959
C103  C     C_2   0.950774 0.085094 0.569374 0.432052
H9    H     H_    0.991878 0.137700 0.617852 0.097573
O33   O     O_2   0.884842 0.063927 0.545973 -0.526709
C104  C     C_2   0.049225 0.914906 0.430627 0.431965
H10   H     H_    0.008121 0.862300 0.382149 0.097573
O34   O     O_2   0.115157 0.936073 0.454028 -0.526948
C105  C     C_2   0.048734 0.023429 0.645001 0.431317
H11   H     H_    0.007482 0.002914 0.659983 0.087459
O35   O     O_2   0.114616 0.055814 0.690489 -0.524079
C106  C     C_2   0.951266 0.976572 0.355000 0.431312
H12   H     H_    0.992518 0.997087 0.340018 0.087460
O36   O     O_2   0.885384 0.944187 0.309512 -0.524083
C107  C     C_2   0.356397 0.876566 0.926929 0.533706
H13   H     H_    0.315426 0.863194 0.873597 0.097688
O37   O     O_2   0.339565 0.839211 0.954975 -0.572033
C108  C     C_2   0.643607 0.123432 0.073070 0.533727
H14   H     H_    0.684579 0.136800 0.126400 0.097675
O38   O     O_2   0.660437 0.160791 0.045026 -0.572033
I3    I     I_    0.366990 0.051523 0.985265 -0.175104
I4    I     I_    0.633013 0.948477 0.014734 -0.175076
I5    I     I_    0.454806 0.887019 0.824222 -0.132167
I6    I     I_    0.545198 0.112981 0.175776 -0.132350
C109  C     C_2   0.200314 0.625858 0.304648 0.370860
H15   H     H_    0.142929 0.612633 0.278947 0.050482
O39   O     O_2   0.213277 0.576031 0.296689 -0.492534
C110  C     C_2   0.799770 0.374103 0.695423 0.370792
H16   H     H_    0.857155 0.387334 0.721168 0.050500
O40   O     O_2   0.786804 0.423924 0.703306 -0.492633
C111  C     C_2   0.400613 0.349166 0.398439 0.429114
H17   H     H_    0.371015 0.332583 0.340707 0.099779
O41   O     O_2   0.390741 0.303098 0.418267 -0.529799
C112  C     C_2   0.599378 0.650825 0.601552 0.429134
H18   H     H_    0.628977 0.667407 0.659283 0.099768
O42   O     O_2   0.609248 0.696893 0.581724 -0.529794
C113  C     C_2   0.184791 0.725304 0.251613 0.443038
H19   H     H_    0.156854 0.670714 0.206301 0.023847
O43   O     O_2   0.156252 0.762754 0.247257 -0.478705
C114  C     C_2   0.815248 0.274732 0.748595 0.442996
H20   H     H_    0.843193 0.329345 0.793869 0.023744
O44   O     O_2   0.843767 0.237273 0.753015 -0.478490
I7    I     I_    0.311081 0.894622 0.307791 -0.234039
I8    I     I_    0.688902 0.105484 0.692544 -0.233588
C115  C     C_2   0.448239 0.834901 0.524871 0.540635
H21   H     H_    0.502106 0.878445 0.541899 0.053978
O45   O     O_2   0.441582 0.814715 0.568568 -0.498486
C116  C     C_2   0.551952 0.164959 0.475140 0.539793
H22   H     H_    0.498074 0.121407 0.458079 0.054237
O46   O     O_2   0.558671 0.185108 0.431440 -0.498622
C117  C     C_2   0.334673 0.677678 0.439155 0.621278
H23   H     H_    0.287626 0.637546 0.436582 0.085789
O47   O     O_2   0.393236 0.678061 0.462327 -0.519809
C118  C     C_2   0.665469 0.322198 0.560816 0.621325
H24   H     H_    0.712539 0.362320 0.563407 0.085758
O48   O     O_2   0.606898 0.321791 0.537558 -0.519687
C119  C     C_2   0.366663 0.964970 0.510525 0.524152
H25   H     H_    0.344265 0.000865 0.508457 0.077310
O49   O     O_2   0.334784 0.912230 0.516619 -0.526369
C120  C     C_2   0.633628 0.034797 0.489929 0.524527
H26   H     H_    0.655482 0.998411 0.491363 0.077100
O50   O     O_2   0.666257 0.087982 0.484781 -0.526618
C121  C     C_2   0.453210 0.548551 0.599348 0.423606
H27   H     H_    0.439221 0.590693 0.600754 0.114895
O51   O     O_2   0.448569 0.523220 0.640063 -0.526667
C122  C     C_2   0.546781 0.451439 0.400642 0.423622
H28   H     H_    0.560770 0.409298 0.399235 0.114916
O52   O     O_2   0.551421 0.476771 0.359927 -0.526667
C123  C     C_2   0.052881 0.445034 0.909895 0.496748
H29   H     H_    0.034650 0.441717 0.856475 0.047200
O53   O     O_2   0.095795 0.424056 0.930915 -0.464383
C124  C     C_2   0.947133 0.555002 0.090158 0.496852
H30   H     H_    0.965540 0.558522 0.143668 0.047210
O54   O     O_2   0.904065 0.575800 0.069058 -0.464491
I9    I     I_    0.934377 0.315545 0.947881 -0.137139
I10   I     I_    0.065644 0.684495 0.052210 -0.137406
C125  C     C_2   0.947479 0.517780 0.874944 0.472570
H31   H     H_    0.966237 0.505784 0.836184 0.029523
O55   O     O_2   0.904586 0.540767 0.865492 -0.450608
C126  C     C_2   0.052524 0.482253 0.125103 0.472462
H32   H     H_    0.033732 0.494212 0.163840 0.029509
O56   O     O_2   0.095446 0.459301 0.134576 -0.450595
C127  C     C_2   0.315874 0.682592 0.873649 0.460519
H33   H     H_    0.269501 0.681497 0.880108 0.083887
O57   O     O_2   0.331717 0.708814 0.836741 -0.526033
C128  C     C_2   0.684121 0.317401 0.126347 0.460527
H34   H     H_    0.730490 0.318495 0.119883 0.083876
O58   O     O_2   0.668281 0.291180 0.163256 -0.526012
C129  C     C_2   0.236747 0.554686 0.882309 0.460809
H35   H     H_    0.216554 0.589646 0.902122 0.030131
O59   O     O_2   0.192053 0.490458 0.837321 -0.492359
C130  C     C_2   0.763250 0.445313 0.117694 0.460933
H36   H     H_    0.783449 0.410355 0.097895 0.030141
O60   O     O_2   0.807940 0.509546 0.162674 -0.492339
I11   I     I_    0.295814 0.453628 0.936681 -0.134978
I12   I     I_    0.704173 0.546363 0.063311 -0.134929

loop_
_geom_bond_atom_site_label_1
_geom_bond_atom_site_label_2
_geom_bond_distance
_ccdc_geom_bond_type
C14   C21   1.543909 S    
C32   C34   1.540216 S    
C6    C93   1.475546 S    
C51   C53   1.422536 A    
C107  H13   1.084338 S    
Zn7   O21   1.958404 S    
C48   C128  1.491918 S    
C20   C121  1.499063 S    
C84   C95   1.495620 S    
C39   C41   1.410291 A    
C117  H23   1.084935 S    
C63   C65   1.458393 S    
C94   C96   1.421579 A    
C129  H35   1.084452 S    
C69   C107  1.497525 S    
C50   C53   1.404797 A    
C13   C19   1.546141 S    
C13   C111  1.498846 S    
C119  O49   1.221093 D    
C81   C83   1.408649 A    
C76   C78   1.459783 S    
C110  H16   1.084626 S    
O21   C7    1.277348 A    
C109  O39   1.220940 D    
C70   C76   1.537901 S    
C121  H27   1.084498 S    
C128  H34   1.083376 S    
Zn2   O20   1.960882 S    
Zn7   O3    1.912403 S    
C7    C52   1.476146 S    
C114  H20   1.084654 S    
C40   C42   1.410289 A    
C31   C126  1.496588 S    
C88   C118  1.488066 S    
O24   C2    1.280069 A    
C104  H10   1.084392 S    
C101  O31   1.220982 D    
C69   C74   1.544440 S    
C42   C44   1.408323 A    
C57   C103  1.498128 S    
C60   C66   1.199987 T    
O10   C8    1.267905 A    
C105  H11   1.084346 S    
C40   I12   2.148232 S    
C44   C46   1.413751 A    
C108  O38   1.219584 D    
C87   C89   1.419913 A    
C39   I11   2.148250 S    
C11   C17   1.423232 S    
C15   C20   1.546246 S    
C12   C18   1.423232 S    
C37   C39   1.411229 A    
O15   C9    1.280348 A    
C112  H18   1.084391 S    
C26   C28   1.548434 S    
C72   C78   1.200751 T    
C91   C119  1.492732 S    
C91   C96   1.403591 A    
C71   C77   1.200751 T    
C80   C114  1.485681 S    
C101  H7    1.085545 S    
C92   C120  1.493068 S    
C3    C29   1.425644 S    
C43   I1    2.146208 S    
C27   C32   1.542949 S    
C67   C69   1.544059 S    
Zn2   O2    1.933909 S    
C75   C77   1.459786 S    
C29   C35   1.199867 T    
C26   C33   1.545696 S    
C128  O58   1.221152 D    
C46   C100  1.483699 S    
Zn5   O25   1.910589 S    
C32   C125  1.496592 S    
C130  O60   1.220589 D    
C105  O35   1.219930 D    
Zn3   O11   1.910907 S    
C116  H22   1.084686 S    
C17   C23   1.198572 T    
C30   C36   1.199876 T    
C22   C24   1.457196 S    
C103  O33   1.219944 D    
C127  H33   1.083391 S    
C10   C72   1.427035 S    
O5    C3    1.277163 A    
C49   C51   1.414865 A    
C68   I4    2.139939 S    
Zn1   O19   1.960884 S    
C44   I2    2.146204 S    
C111  O41   1.219860 D    
C49   C54   1.404775 A    
C69   C75   1.537900 S    
Zn2   O6    1.912297 S    
C26   C32   1.547976 S    
C107  O37   1.219589 D    
C80   C90   1.417392 A    
Zn1   O17   1.913704 S    
C117  O47   1.221307 D    
C124  H30   1.083848 S    
O13   C11   1.277222 A    
C82   I8    2.146677 S    
C68   C70   1.544059 S    
O12   C10   1.278771 A    
C84   C86   1.415739 A    
C58   C61   1.550634 S    
C55   C105  1.497950 S    
C106  O36   1.219930 D    
C19   C21   1.544201 S    
C74   C76   1.542142 S    
Zn6   O10   1.959763 S    
C20   C22   1.544204 S    
C25   C27   1.548432 S    
C16   C19   1.546247 S    
C85   C87   1.419043 A    
C87   C117  1.488076 S    
C55   C64   1.538376 S    
C119  H25   1.085416 S    
C38   C130  1.484560 S    
Zn1   O1    1.933910 S    
C122  H28   1.084498 S    
C38   C40   1.411245 A    
C61   C63   1.546859 S    
O19   C5    1.268651 A    
C123  H29   1.083831 S    
C14   C112  1.498846 S    
C73   I6    2.138737 S    
C98   H4    1.084375 S    
O11   C9    1.278772 A    
H2    C61   1.110181 S    
C79   C81   1.412494 A    
C111  H17   1.084391 S    
Zn8   O14   1.910516 S    
C129  O59   1.220578 D    
C16   C22   1.543792 S    
Zn6   O26   1.910591 S    
C55   C61   1.550651 S    
C67   C76   1.541801 S    
C33   C35   1.458776 S    
C70   C108  1.497524 S    
Zn4   O8    1.957148 S    
O9    C7    1.267911 A    
C14   C20   1.546142 S    
C115  O45   1.220952 D    
C91   C93   1.415718 A    
Zn5   O1    1.937212 S    
Zn3   O1    1.941981 S    
C102  O32   1.220986 D    
C25   C34   1.545705 S    
C123  O53   1.219953 D    
C79   C113  1.485704 S    
C2    C60   1.425706 S    
C56   C58   1.539165 S    
C125  H31   1.083586 S    
Zn5   O15   1.913293 S    
Zn8   O4    1.912401 S    
Zn6   O16   1.913294 S    
C64   C66   1.458395 S    
C130  H36   1.084444 S    
C43   C45   1.413754 A    
C58   C104  1.498128 S    
C8    C51   1.476141 S    
C9    C71   1.427038 S    
C56   C62   1.550651 S    
C86   C116  1.491945 S    
Zn5   O9    1.959763 S    
C126  O56   1.219940 D    
C14   C16   1.546492 S    
C41   C43   1.408328 A    
C42   C53   1.492613 S    
O7    C5    1.275653 A    
Zn4   O24   1.911477 S    
C83   C85   1.415745 A    
C18   C24   1.198576 T    
C80   C82   1.412464 A    
C49   C101  1.493184 S    
C26   I10   2.139586 S    
C100  O30   1.220337 D    
C108  H14   1.084341 S    
C125  O55   1.219940 D    
O8    C6    1.275598 A    
C120  H26   1.085455 S    
C19   C122  1.499065 S    
C120  O50   1.221095 D    
C21   C23   1.457198 S    
C4    C30   1.425660 S    
C97   H3    1.084375 S    
O16   C10   1.280348 A    
C47   C127  1.491913 S    
C68   C74   1.551938 S    
C56   C106  1.497948 S    
O4    C2    1.280195 A    
Zn4   O2    1.941979 S    
O6    C4    1.277186 A    
C89   C109  1.489970 S    
C92   C95   1.403856 A    
O17   C11   1.277088 A    
C56   C63   1.538376 S    
Zn3   O7    1.957147 S    
C58   C64   1.538294 S    
C98   O28   1.219912 D    
C88   C90   1.419907 A    
C106  H12   1.084349 S    
C74   I5    2.138736 S    
C83   C96   1.495785 S    
Zn7   O1    1.939865 S    
C15   C97   1.499259 S    
C124  O54   1.219950 D    
C114  O44   1.220384 D    
C28   C31   1.542941 S    
O14   C12   1.277220 A    
O26   C4    1.276958 A    
O22   C8    1.277346 A    
C27   C123  1.497946 S    
C118  O48   1.221311 D    
C100  H6    1.085015 S    
C15   C21   1.543794 S    
C92   C94   1.415766 A    
Zn2   O18   1.913704 S    
Zn6   O2    1.937212 S    
C68   C75   1.541803 S    
C110  O40   1.220944 D    
C5    C94   1.475532 S    
C1    C59   1.425706 S    
C13   C15   1.546491 S    
C45   C47   1.420518 A    
C31   C33   1.540184 S    
C28   C34   1.540123 S    
C67   C73   1.551937 S    
Zn8   O22   1.958402 S    
C99   O29   1.220334 D    
C103  H9    1.084394 S    
C121  O51   1.219878 D    
C113  H19   1.084665 S    
C109  H15   1.084632 S    
C16   C98   1.499259 S    
C99   H5    1.085004 S    
C25   C31   1.547968 S    
Zn3   O23   1.911476 S    
Zn7   O13   1.910515 S    
C67   I3    2.139944 S    
C45   C99   1.483713 S    
C79   C89   1.417394 A    
C73   C75   1.542143 S    
O23   C1    1.280066 A    
C104  O34   1.219943 D    
C46   C48   1.420512 A    
C112  O42   1.219860 D    
O25   C3    1.276974 A    
C90   C110  1.489960 S    
C52   C54   1.422529 A    
C28   C124  1.497920 S    
C57   C62   1.550634 S    
C27   C33   1.540117 S    
C126  H32   1.083577 S    
C25   I9    2.139583 S    
C62   C64   1.546862 S    
C82   C84   1.408614 A    
C113  O43   1.220384 D    
C81   I7    2.146656 S    
O18   C12   1.277091 A    
C115  H21   1.084676 S    
Zn4   O12   1.910910 S    
C59   C65   1.199987 T    
C41   C54   1.492609 S    
Zn1   O5    1.912298 S    
C118  H24   1.084953 S    
Zn8   O2    1.939867 S    
C55   C57   1.539166 S    
C127  O57   1.221160 D    
C97   O27   1.219912 D    
C34   C36   1.458790 S    
O20   C6    1.268727 A    
C102  H8    1.085548 S    
C50   C52   1.414868 A    
C116  O46   1.220936 D    
O3    C1    1.280194 A    
C37   C47   1.417593 A    
C57   C63   1.538295 S    
C86   C88   1.419039 A    
H1    C62   1.110181 S    
C85   C115  1.491959 S    
C38   C48   1.417589 A    
C122  O52   1.219878 D    
C37   C129  1.484548 S    
C13   C22   1.543910 S    
C93   C95   1.421686 A    
C70   C73   1.544440 S    
C50   C102  1.493211 S    
