data_mof_unit_46441.cif
_audit_creation_date              2013-03-05T15:49:11-0500
_audit_creation_method            fapswitch 2.2
_symmetry_space_group_name_H-M    P1
_symmetry_Int_Tables_number       1
_space_group_crystal_system       triclinic
_cell_length_a                    17.449294
_cell_length_b                    24.49527
_cell_length_c                    14.892625
_cell_angle_alpha                 90.06802
_cell_angle_beta                  125.505593
_cell_angle_gamma                 90.02834
_cell_volume                      5181.86828828

loop_
_atom_site_label
_atom_site_type_symbol
_atom_site_description
_atom_site_fract_x
_atom_site_fract_y
_atom_site_fract_z
_atom_type_partial_charge
C1    C     C_R   0.308079 0.121250 0.908142 -0.123971
C2    C     C_R   0.307783 0.879098 0.908046 -0.139675
C3    C     C_R   0.808367 0.621871 0.908095 -0.123268
C4    C     C_R   0.808374 0.377935 0.908054 -0.124954
H1    H     H_    0.251629 0.125821 0.822438 0.142081
H2    H     H_    0.251249 0.874525 0.822344 0.144354
H3    H     H_    0.751763 0.626771 0.822634 0.129086
H4    H     H_    0.752447 0.372406 0.822570 0.141031
N1    N     N_R   0.392450 0.103580 0.942190 -0.079128
N2    N     N_R   0.392450 0.896420 0.942190 -0.081879
N3    N     N_R   0.892450 0.603580 0.942190 -0.077948
N4    N     N_R   0.892450 0.396420 0.942190 -0.079064
C5    C     C_R   0.401425 0.876294 0.092775 0.321930
C6    C     C_R   0.402063 0.124384 0.093042 0.325402
C7    C     C_R   0.901876 0.375417 0.092766 0.325399
C8    C     C_R   0.901847 0.624613 0.092744 0.316197
N5    N     N_R   0.450490 0.896000 0.057360 -0.098194
N6    N     N_R   0.450490 0.104000 0.057360 -0.096216
N7    N     N_R   0.950490 0.396000 0.057360 -0.093479
N8    N     N_R   0.950490 0.604000 0.057360 -0.092327
C9    C     C_R   0.562043 0.044712 0.310235 -0.015529
C10   C     C_R   0.562258 0.955265 0.309971 -0.005220
C11   C     C_R   0.061919 0.544599 0.310276 -0.006681
C12   C     C_R   0.061701 0.455163 0.309760 -0.007804
H5    H     H_    0.585234 0.085754 0.339836 0.185269
H6    H     H_    0.586920 0.914408 0.339219 0.180250
H7    H     H_    0.085268 0.585584 0.340091 0.201449
H8    H     H_    0.085953 0.414251 0.338876 0.196479
N9    N     N_R   0.525490 0.028390 0.207550 -0.063975
N10   N     N_R   0.525490 0.971610 0.207550 -0.064648
N11   N     N_R   0.025490 0.528390 0.207550 -0.066452
N12   N     N_R   0.025490 0.471610 0.207550 -0.067979
C13   C     C_R   0.242530 0.954234 0.695577 -0.058936
C14   C     C_R   0.242661 0.045564 0.695473 -0.079386
C15   C     C_R   0.739941 0.454220 0.697874 -0.052618
C16   C     C_R   0.739974 0.545430 0.697585 -0.093837
H9    H     H_    0.228340 0.912459 0.666513 0.121014
H10   H     H_    0.228459 0.087288 0.666402 0.121772
H11   H     H_    0.722537 0.412277 0.670555 0.118200
H12   H     H_    0.722345 0.587284 0.670024 0.123591
N13   N     N_R   0.317450 0.971190 0.792000 -0.051799
N14   N     N_R   0.317450 0.028810 0.792000 -0.051929
N15   N     N_R   0.817450 0.471190 0.792000 -0.054691
N16   N     N_R   0.817450 0.528810 0.792000 -0.052702
C17   C     C_R   0.310767 0.136161 0.000329 0.069723
C18   C     C_R   0.310126 0.864496 0.000067 0.076018
C19   C     C_R   0.810797 0.636639 0.000084 0.089158
C20   C     C_R   0.810732 0.363325 0.000069 0.068804
C21   C     C_R   0.585066 0.999919 0.376285 -0.069045
C22   C     C_R   0.084795 0.499775 0.376198 -0.067671
C23   C     C_R   0.195514 0.999835 0.635693 0.122596
C24   C     C_R   0.690320 0.499706 0.639735 0.115438
C25   C     C_R   0.516301 0.045749 0.747275 -0.031728
C26   C     C_R   0.518192 0.953999 0.749861 0.015642
C27   C     C_R   0.016459 0.545735 0.747429 -0.032677
C28   C     C_R   0.018408 0.454031 0.750073 0.009624
H13   H     H_    0.520907 0.087984 0.730462 0.159847
H14   H     H_    0.524145 0.911581 0.735429 0.148211
H15   H     H_    0.020931 0.587945 0.730415 0.158090
H16   H     H_    0.024191 0.411662 0.735276 0.143626
N17   N     N_R   0.473900 0.028390 0.792280 -0.058283
N18   N     N_R   0.473900 0.971610 0.792280 -0.054151
N19   N     N_R   0.973900 0.528390 0.792280 -0.056761
N20   N     N_R   0.973900 0.471610 0.792280 -0.053228
C29   C     C_R   0.770898 0.954237 0.260623 0.415284
C30   C     C_R   0.770787 0.046079 0.261145 0.418826
C31   C     C_R   0.258795 0.454907 0.304227 0.383437
C32   C     C_R   0.258309 0.545876 0.303735 0.387409
N21   N     N_R   0.682310 0.971180 0.208170 -0.115278
N22   N     N_R   0.682310 0.028820 0.208170 -0.114622
N23   N     N_R   0.182310 0.471180 0.208170 -0.111266
N24   N     N_R   0.182310 0.528820 0.208170 -0.111685
C33   C     C_R   0.643266 0.153779 0.087026 -0.046622
C34   C     C_R   0.642191 0.846100 0.086600 -0.033948
C35   C     C_R   0.149148 0.652150 0.088173 -0.058580
C36   C     C_R   0.148606 0.347803 0.088062 -0.057880
H17   H     H_    0.679672 0.170059 0.169118 0.183321
H18   H     H_    0.677565 0.830096 0.168639 0.182830
H19   H     H_    0.194481 0.666371 0.171908 0.178814
H20   H     H_    0.193607 0.333660 0.171759 0.179744
N25   N     N_R   0.606470 0.103570 0.057210 -0.054564
N26   N     N_R   0.606470 0.896430 0.057210 -0.053274
N27   N     N_R   0.106470 0.603570 0.057210 -0.049409
N28   N     N_R   0.106470 0.396430 0.057210 -0.049652
C37   C     C_R   0.550428 0.847967 0.904739 0.002412
C38   C     C_R   0.551965 0.151655 0.904815 0.024887
C39   C     C_R   0.053715 0.348625 0.905180 0.017095
C40   C     C_R   0.054252 0.651154 0.905210 0.021262
H21   H     H_    0.500487 0.836649 0.819816 0.175120
H22   H     H_    0.503501 0.163106 0.819506 0.161073
H23   H     H_    0.005338 0.336647 0.820092 0.161932
H24   H     H_    0.006075 0.662946 0.820083 0.161305
N29   N     N_R   0.549740 0.896000 0.943240 -0.074348
N30   N     N_R   0.549740 0.104000 0.943240 -0.077007
N31   N     N_R   0.049740 0.396000 0.943240 -0.078853
N32   N     N_R   0.049740 0.604000 0.943240 -0.077453
Ni1   Ni    Ni4+2 0.433780 0.065390 0.868430 0.258477
Ni2   Ni    Ni4+2 0.433780 0.934610 0.868430 0.260102
Ni3   Ni    Ni4+2 0.933780 0.565390 0.868430 0.263020
Ni4   Ni    Ni4+2 0.933780 0.434610 0.868430 0.267634
Ni5   Ni    Ni4+2 0.565800 0.934190 0.131570 0.282322
Ni6   Ni    Ni4+2 0.565800 0.065810 0.131570 0.287720
Ni7   Ni    Ni4+2 0.065800 0.434190 0.131570 0.296719
Ni8   Ni    Ni4+2 0.065800 0.565810 0.131570 0.299312
C41   C     C_R   0.543851 0.999746 0.718232 0.001178
C42   C     C_R   0.044261 0.499748 0.718644 0.004273
C43   C     C_R   0.826432 0.000260 0.288387 -0.182930
C44   C     C_R   0.306912 0.500633 0.365243 -0.154604
C45   C     C_R   0.610832 0.184195 0.992797 0.137687
C46   C     C_R   0.609028 0.815291 0.992248 0.082265
C47   C     C_R   0.116488 0.682623 0.993720 0.143394
C48   C     C_R   0.115719 0.317189 0.993609 0.146010
C49   C     C_3   0.032327 0.954275 0.510937 -0.096183
C50   C     C_3   0.031811 0.043990 0.515435 -0.101944
C51   C     C_3   0.528391 0.452710 0.488773 -0.110528
C52   C     C_3   0.531536 0.505066 0.610417 -0.134295
C53   C     C_3   0.961390 0.998474 0.490284 -0.023308
C54   C     C_3   0.468093 0.458153 0.533638 -0.030103
H25   H     H_    0.915194 0.997208 0.519016 0.174808
H26   H     H_    0.442245 0.424443 0.559218 0.221140
H27   H     H_    0.048136 0.916680 0.560465 0.186648
H28   H     H_    0.047238 0.080076 0.568724 0.190002
H29   H     H_    0.554678 0.414223 0.476341 0.170918
H30   H     H_    0.561265 0.509230 0.699283 0.223674
C55   C     C_3   0.927076 0.000295 0.369693 0.155359
C56   C     C_3   0.407880 0.500907 0.444986 0.134424
C57   C     C_3   0.997271 0.956081 0.389035 -0.077648
C58   C     C_3   0.996855 0.045836 0.393618 -0.079601
C59   C     C_3   0.466902 0.495519 0.398949 -0.112932
C60   C     C_3   0.469963 0.547829 0.520684 -0.071545
C61   C     C_3   0.069408 0.001631 0.415737 -0.130402
C62   C     C_3   0.530203 0.542448 0.475807 -0.125923
C63   C     C_3   0.102198 0.999800 0.535708 0.031703
C64   C     C_3   0.589886 0.499674 0.563918 0.054770
H31   H     H_    0.981082 0.920429 0.334554 0.197053
H32   H     H_    0.980764 0.083017 0.343004 0.200026
H33   H     H_    0.437677 0.491601 0.310173 0.166763
H34   H     H_    0.447422 0.586479 0.537421 0.233255
H35   H     H_    0.116868 0.002879 0.388832 0.214405
H36   H     H_    0.558126 0.576362 0.453175 0.176550
C65   C     C_3   0.238551 0.820607 0.091350 0.421575
C66   C     C_3   0.239305 0.179931 0.091830 0.420269
C67   C     C_3   0.737633 0.321179 0.091260 0.421263
C68   C     C_3   0.734910 0.678133 0.088996 0.442441
H37   H     H_    0.305767 0.807863 0.167939 0.149516
H38   H     H_    0.306420 0.193216 0.168066 0.149463
H39   H     H_    0.804454 0.308018 0.167915 0.149966
H40   H     H_    0.803121 0.687551 0.167001 0.150553
C69   C     C_3   0.665370 0.277889 0.071656 -0.590320
C70   C     C_3   0.670354 0.724448 0.076762 -0.614874
C71   C     C_3   0.167884 0.776359 0.072071 -0.590312
C72   C     C_3   0.168139 0.223769 0.072397 -0.588725
H41   H     H_    0.099445 0.795081 0.043059 0.297841
H42   H     H_    0.099955 0.204671 0.043637 0.298155
H43   H     H_    0.597393 0.297384 0.042370 0.297995
H44   H     H_    0.604400 0.709053 0.061693 0.288346
H45   H     H_    0.690879 0.259298 0.152436 0.202346
H46   H     H_    0.706159 0.744723 0.158482 0.195197
H47   H     H_    0.194020 0.757468 0.152853 0.202594
H48   H     H_    0.194150 0.242828 0.153103 0.202550
H49   H     H_    0.876039 0.266072 0.072475 0.226314
H50   H     H_    0.874907 0.733887 0.076562 0.226130
H51   H     H_    0.378393 0.767626 0.071896 0.223763
H52   H     H_    0.378194 0.233374 0.071304 0.225324
H53   H     H_    0.799021 0.210317 0.115290 0.121043
H54   H     H_    0.797210 0.793615 0.108860 0.124664
H55   H     H_    0.303484 0.710460 0.115164 0.108013
H56   H     H_    0.302961 0.290326 0.114546 0.109248
C73   C     C_3   0.799798 0.265224 0.003979 -0.572610
C74   C     C_3   0.799715 0.734439 0.004844 -0.605525
C75   C     C_3   0.302132 0.766239 0.003663 -0.584139
C76   C     C_3   0.301863 0.234378 0.003230 -0.568533
C77   C     C_3   0.149707 0.817373 0.879823 0.056242
C78   C     C_3   0.149827 0.182440 0.880230 0.056244
C79   C     C_3   0.648771 0.317778 0.880035 0.062197
C80   C     C_3   0.649196 0.682421 0.877219 0.088721
C81   C     C_3   0.249643 0.819822 0.994239 -0.128529
C82   C     C_3   0.250013 0.180603 0.994440 -0.133514
C83   C     C_3   0.748909 0.319475 0.994342 -0.134077
C84   C     C_3   0.747887 0.680075 0.993426 -0.125825
H57   H     H_    0.160572 0.816148 0.813764 0.134040
H58   H     H_    0.160305 0.183549 0.813862 0.134095
H59   H     H_    0.659225 0.316271 0.813688 0.134424
H60   H     H_    0.664844 0.688058 0.815715 0.119313
C85   C     C_3   0.653737 0.234640 0.986977 -0.125666
C86   C     C_3   0.653108 0.765240 0.986475 -0.132919
C87   C     C_3   0.157502 0.733637 0.987341 -0.127971
C88   C     C_3   0.157093 0.266353 0.987273 -0.128295
C89   C     C_3   0.755438 0.217972 0.024685 0.389067
C90   C     C_3   0.752958 0.782608 0.019569 0.413540
C91   C     C_3   0.259415 0.718179 0.024574 0.394227
C92   C     C_3   0.258774 0.282289 0.024009 0.388381
C93   C     C_3   0.596547 0.262991 0.868110 0.500983
C94   C     C_3   0.593651 0.734949 0.869325 0.521009
C95   C     C_3   0.098999 0.762038 0.868392 0.504306
C96   C     C_3   0.098632 0.237567 0.868544 0.504739
H61   H     H_    0.795294 0.258222 0.927147 0.278425
H62   H     H_    0.799771 0.740528 0.930779 0.275982
H63   H     H_    0.297625 0.759726 0.926706 0.271470
H64   H     H_    0.297030 0.240738 0.926060 0.277726
C97   C     C_3   0.623425 0.047477 0.645514 -0.307498
C98   C     C_3   0.610785 0.946685 0.635305 -0.340489
C99   C     C_3   0.123070 0.547721 0.645145 -0.310709
C100  C     C_3   0.112094 0.446890 0.636379 -0.342986
H65   H     H_    0.599648 0.087811 0.653856 0.236188
H66   H     H_    0.573954 0.908751 0.630452 0.230258
H67   H     H_    0.098802 0.587966 0.653092 0.237306
H68   H     H_    0.076058 0.408755 0.632318 0.231129
H69   H     H_    0.694529 0.041843 0.723947 0.213015
H70   H     H_    0.681590 0.944889 0.715413 0.221566
H71   H     H_    0.194333 0.542473 0.723534 0.214314
H72   H     H_    0.182999 0.445569 0.716414 0.221909
C101  C     C_3   0.632573 0.049072 0.548927 -0.344126
C102  C     C_3   0.621467 0.946407 0.539961 -0.334509
C103  C     C_3   0.131934 0.549277 0.548351 -0.332687
C104  C     C_3   0.122581 0.446557 0.540831 -0.324576
H73   H     H_    0.708171 0.048205 0.580817 0.200569
H74   H     H_    0.697081 0.942510 0.572979 0.199462
H75   H     H_    0.207490 0.548843 0.580002 0.204648
H76   H     H_    0.198221 0.443099 0.573708 0.202230
H77   H     H_    0.602437 0.088205 0.504073 0.223341
H78   H     H_    0.584025 0.909919 0.488024 0.229500
H79   H     H_    0.101046 0.588220 0.503028 0.226082
H80   H     H_    0.085750 0.409825 0.489457 0.230334
H81   H     H_    0.444812 0.042154 0.374341 0.239157
H82   H     H_    0.433381 0.971403 0.359676 0.241076
H83   H     H_    0.944122 0.541148 0.374022 0.239454
H84   H     H_    0.933997 0.470331 0.360592 0.241306
C105  C     C_3   0.457315 0.002029 0.513832 0.502062
C106  C     C_3   0.957636 0.501355 0.514285 0.499289
C107  C     C_3   0.557734 0.999326 0.629701 0.010011
C108  C     C_3   0.058163 0.499260 0.630108 0.008359
C109  C     C_3   0.580009 0.999685 0.471430 0.196943
C110  C     C_3   0.080102 0.499553 0.471573 0.188210
C111  C     C_3   0.473755 0.003796 0.422545 -0.434445
C112  C     C_3   0.973852 0.503046 0.422863 -0.434701
Cl1   Cl    Cl    0.211606 0.886094 0.120637 -0.418021
Cl2   Cl    Cl    0.213521 0.114357 0.122084 -0.421093
Cl3   Cl    Cl    0.712635 0.387319 0.120365 -0.410158
Cl4   Cl    Cl    0.698448 0.613853 0.109593 -0.398487
N33   N     N_R   0.445889 0.854417 0.201175 0.193428
O1    O     O_R   0.425407 0.873710 0.266250 -0.378311
O2    O     O_R   0.519173 0.823099 0.241900 -0.403621
N34   N     N_R   0.447524 0.147289 0.200959 0.194640
O3    O     O_R   0.521667 0.177814 0.240474 -0.396530
O4    O     O_R   0.427523 0.129270 0.267204 -0.387873
N35   N     N_R   0.946740 0.353261 0.201012 0.194077
O5    O     O_R   0.926556 0.372207 0.266586 -0.380229
O6    O     O_R   0.020341 0.322275 0.241256 -0.380812
N36   N     N_R   0.946457 0.646178 0.201462 0.193808
O7    O     O_R   0.020287 0.677213 0.242962 -0.374678
O8    O     O_R   0.925576 0.626697 0.265985 -0.397386
N37   N     N_R   0.093025 0.866680 0.858677 0.287941
O9    O     O_R   0.082025 0.902454 0.787521 -0.353523
O10   O     O_R   0.046327 0.873185 0.901294 -0.250418
N38   N     N_R   0.093757 0.132879 0.859898 0.288178
O11   O     O_R   0.083243 0.096740 0.789380 -0.355101
O12   O     O_R   0.047364 0.126346 0.902883 -0.249784
N39   N     N_R   0.593647 0.367674 0.859851 0.287641
O13   O     O_R   0.585937 0.404163 0.791649 -0.392227
O14   O     O_R   0.545983 0.374462 0.901187 -0.250388
N40   N     N_R   0.593062 0.631664 0.841645 0.278431
O15   O     O_R   0.514994 0.629775 0.742843 -0.327184
O16   O     O_R   0.630931 0.585432 0.890283 -0.306040
N41   N     N_R   0.998606 0.771087 0.822228 0.257113
O17   O     O_R   0.942211 0.790064 0.722453 -0.258732
O18   O     O_R   0.963147 0.758400 0.875963 -0.390180
N42   N     N_R   0.998399 0.228086 0.822787 0.257583
O19   O     O_R   0.942021 0.208634 0.723257 -0.258354
O20   O     O_R   0.963024 0.240894 0.876583 -0.388227
N43   N     N_R   0.496245 0.272848 0.821276 0.258815
O21   O     O_R   0.440749 0.292208 0.721693 -0.259864
O22   O     O_R   0.459962 0.260463 0.874236 -0.386274
N44   N     N_R   0.496897 0.721980 0.834938 0.250878
O23   O     O_R   0.423900 0.743388 0.745934 -0.290739
O24   O     O_R   0.481666 0.685660 0.886608 -0.311711
Cl5   Cl    Cl    0.597325 0.221273 0.767499 -0.567804
Cl6   Cl    Cl    0.584000 0.776484 0.761314 -0.556089
Cl7   Cl    Cl    0.100024 0.720799 0.767436 -0.564235
Cl8   Cl    Cl    0.098947 0.278629 0.767079 -0.573383
Cl9   Cl    Cl    0.765956 0.155869 0.967562 -0.529276
Cl10  Cl    Cl    0.758185 0.842413 0.953011 -0.534524
Cl11  Cl    Cl    0.271071 0.656687 0.966825 -0.524336
Cl12  Cl    Cl    0.269614 0.343740 0.965670 -0.526318
N45   N     N_R   0.404491 0.052193 0.503275 0.226679
O25   O     O_R   0.316859 0.049617 0.468905 -0.309534
O26   O     O_R   0.438478 0.100274 0.508020 -0.358546
N46   N     N_R   0.400755 0.952629 0.498324 0.236613
O27   O     O_R   0.410183 0.907353 0.459663 -0.327154
O28   O     O_R   0.347923 0.951500 0.533824 -0.361389
N47   N     N_R   0.904089 0.551290 0.503104 0.225422
O29   O     O_R   0.816387 0.548338 0.468338 -0.286964
O30   O     O_R   0.937452 0.599509 0.507378 -0.360977
N48   N     N_R   0.901878 0.451676 0.499506 0.237623
O31   O     O_R   0.912468 0.406304 0.462131 -0.329025
O32   O     O_R   0.848472 0.450475 0.534221 -0.347124
Cl13  Cl    Cl    0.811494 0.889819 0.322275 -0.656203
Cl14  Cl    Cl    0.810659 0.110216 0.325034 -0.652056
Cl15  Cl    Cl    0.275484 0.388905 0.357984 -0.641037
Cl16  Cl    Cl    0.270285 0.611511 0.357554 -0.638229

loop_
_geom_bond_atom_site_label_1
_geom_bond_atom_site_label_2
_geom_bond_distance
_ccdc_geom_bond_type
C78   C96   1.572562 S    
C27   H15   1.078360 S    
C66   H38   1.104864 S    
N47   O29   1.301810 A    
C14   N14   1.326961 A    
C99   C103  1.537018 S    
C39   H23   1.077387 S    
C53   H25   1.111084 S    
N16   Ni3   1.879060 S    
N36   O8    1.300542 A    
N43   O21   1.302326 A    
N32   Ni3   1.899213 S    
N34   O3    1.301063 A    
N44   O23   1.302132 A    
C102  H78   1.111197 S    
C100  H68   1.107587 S    
C29   Cl13  1.756061 S    
C106  C112  1.543713 S    
C4    N4    1.322207 A    
C52   H30   1.110476 S    
C65   H37   1.105147 S    
C49   C63   1.530147 S    
C110  C112  1.552078 S    
C101  C109  1.550083 S    
C33   N25   1.337465 A    
C6    C17   1.404965 A    
C93   Cl5   1.819208 S    
N3    N8    1.396380 A    
C94   N44   1.486040 S    
C51   H29   1.109997 S    
C95   Cl7   1.819032 S    
C67   Cl3   1.794883 S    
C37   C46   1.356475 A    
C38   H22   1.077517 S    
N14   Ni1   1.879060 S    
C39   C48   1.358698 A    
N30   Ni1   1.899213 S    
C45   C85   1.472962 S    
C9    N9    1.330642 A    
C11   N11   1.330755 A    
C100  C108  1.561839 S    
C71   C87   1.565689 S    
N15   N16   1.411420 A    
C104  H80   1.111146 S    
C50   C58   1.542783 S    
C32   N24   1.328324 A    
C51   C54   1.545241 S    
C100  H72   1.113414 S    
C98   C102  1.535693 S    
C106  C108  1.593939 S    
C28   C42   1.386598 A    
C10   C21   1.367699 A    
C6    N34   1.429542 S    
C80   N40   1.476593 S    
N42   O20   1.302058 A    
C1    H1    1.073300 S    
C16   N16   1.328286 A    
C102  C109  1.553918 S    
C62   H36   1.110038 S    
C97   C107  1.563642 S    
C60   H34   1.107622 S    
C79   H59   1.104632 S    
C80   H60   1.106047 S    
C101  H73   1.112850 S    
C26   C41   1.387027 A    
C47   C87   1.470051 S    
N39   O14   1.301129 A    
C34   C46   1.389755 A    
N40   O16   1.300211 A    
C51   C64   1.525796 S    
N21   Ni5   1.886085 S    
H55   C91   1.114855 S    
H56   C92   1.114843 S    
C69   H43   1.106959 S    
N45   O26   1.301609 A    
C30   N22   1.329827 A    
C52   C54   1.542331 S    
N9    Ni6   1.881922 S    
C71   H41   1.106711 S    
N21   N22   1.411907 A    
C57   C61   1.550344 S    
C3    N3    1.321758 A    
C67   C69   1.539460 S    
C52   C60   1.540819 S    
C62   C64   1.523563 S    
C74   C84   1.561980 S    
C55   C57   1.532453 S    
C33   H17   1.074109 S    
N33   O2    1.301069 A    
C35   H19   1.074740 S    
C79   C93   1.572649 S    
C71   H47   1.110706 S    
C98   C107  1.561491 S    
C24   C64   1.430971 S    
C73   C89   1.520235 S    
C30   C43   1.382619 A    
C78   H58   1.105014 S    
C9    C21   1.369967 A    
C76   C92   1.519424 S    
C32   Cl16  1.752980 S    
C14   C23   1.367520 A    
C19   C84   1.490586 S    
N47   O30   1.301593 A    
C99   C108  1.563805 S    
C68   Cl4   1.790246 S    
N3    Ni3   1.876245 S    
N33   O1    1.300659 A    
N6    Ni6   1.888471 S    
C68   C70   1.533807 S    
C40   C47   1.358330 A    
C37   N29   1.311368 A    
C68   C84   1.566445 S    
N38   O12   1.301084 A    
C28   N20   1.323044 A    
C67   C83   1.566372 S    
C15   N15   1.327724 A    
C16   C24   1.370052 A    
H49   C73   1.111052 S    
C18   C81   1.486966 S    
C99   H71   1.113537 S    
C7    C20   1.403983 A    
C8    C19   1.403577 A    
C97   H69   1.113544 S    
C54   H26   1.109215 S    
C12   C22   1.367257 A    
C43   C55   1.442312 S    
C102  H74   1.112824 S    
C77   N37   1.475285 S    
C30   Cl14  1.756143 S    
C39   N31   1.310335 A    
N28   N31   1.381739 A    
N46   O28   1.302418 A    
N9    N10   1.390839 A    
N11   N12   1.390839 A    
C26   H14   1.078004 S    
C59   H33   1.110736 S    
N41   O18   1.302055 A    
C17   C82   1.486603 S    
C49   C53   1.535838 S    
C78   N38   1.475307 S    
C94   Cl6   1.827675 S    
C34   H18   1.073692 S    
C93   N43   1.480137 S    
C96   N42   1.480574 S    
C58   C61   1.549690 S    
C73   H61   1.113524 S    
C76   C82   1.559369 S    
H52   C76   1.110872 S    
C9    H5    1.077098 S    
C46   C86   1.476338 S    
C10   N10   1.327970 A    
C31   Cl15  1.752806 S    
C86   C94   1.601397 S    
C36   H20   1.074564 S    
C25   H13   1.078596 S    
C70   C86   1.558986 S    
C85   C89   1.573205 S    
N40   O15   1.301690 A    
C100  C104  1.536491 S    
C5    N5    1.329987 A    
C88   C92   1.571942 S    
C44   C56   1.443626 S    
N11   Ni8   1.881922 S    
N23   N24   1.411907 A    
N25   N30   1.381778 A    
C1    C17   1.394441 A    
C66   C82   1.566424 S    
N27   N32   1.381778 A    
C3    C19   1.393126 A    
N34   O4    1.300297 A    
C76   H64   1.113559 S    
N44   O24   1.301233 A    
N17   N18   1.390839 A    
C50   C53   1.535039 S    
C61   H35   1.110296 S    
N19   N20   1.390839 A    
C25   C41   1.388849 A    
N1    N6    1.396380 A    
C80   C84   1.581925 S    
C49   H27   1.110737 S    
C97   H65   1.106204 S    
C75   C81   1.560013 S    
C53   C55   1.528722 S    
C73   C83   1.558416 S    
C21   C109  1.469972 S    
C40   N32   1.309332 A    
C69   C85   1.566243 S    
C104  C110  1.553881 S    
N13   N14   1.411420 A    
C72   C88   1.565847 S    
C36   N28   1.334257 A    
C7    N7    1.331013 A    
H83   C112  1.110433 S    
C65   C81   1.566685 S    
C57   H31   1.110227 S    
C3    H3    1.072435 S    
C58   H32   1.110181 S    
C51   C59   1.541923 S    
N48   O31   1.302830 A    
C31   C44   1.376818 A    
C52   C64   1.533817 S    
C56   C60   1.530572 S    
C66   C72   1.537374 S    
C22   C110  1.469472 S    
N23   Ni7   1.886084 S    
C101  H77   1.111577 S    
C105  N46   1.491647 S    
C89   Cl9   1.802798 S    
H53   C89   1.114915 S    
H51   C75   1.110714 S    
C78   C82   1.580365 S    
C4    H4    1.071345 S    
C59   C62   1.542304 S    
C77   H57   1.105109 S    
N26   N29   1.381739 A    
C103  C110  1.550265 S    
C34   N26   1.336085 A    
N35   O6    1.301026 A    
C27   C42   1.388878 A    
C12   H8    1.076898 S    
C38   C45   1.356704 A    
C1    N1    1.321328 A    
N15   Ni4   1.881305 S    
C37   H21   1.074486 S    
N31   Ni4   1.901525 S    
C11   C22   1.369878 A    
C26   N18   1.322612 A    
N36   O7    1.301021 A    
C13   H9    1.081663 S    
C28   H16   1.077609 S    
C105  C111  1.544517 S    
C60   C62   1.544303 S    
N45   O25   1.301871 A    
C103  H75   1.112938 S    
C104  H76   1.112889 S    
H50   C74   1.111171 S    
N12   Ni7   1.880952 S    
C75   C91   1.519251 S    
C97   C101  1.537195 S    
N8    Ni8   1.888471 S    
C7    N35   1.429241 S    
C66   Cl2   1.794985 S    
N1    Ni1   1.876245 S    
C70   H46   1.110496 S    
N17   Ni1   1.875639 S    
C106  N47   1.489234 S    
N22   Ni6   1.888350 S    
C33   C45   1.387464 A    
C13   C23   1.367297 A    
N24   Ni8   1.888351 S    
C35   C47   1.390102 A    
C56   C59   1.538916 S    
C13   N13   1.327061 A    
C105  C107  1.593933 S    
C35   N27   1.334995 A    
N37   O9    1.301464 A    
C29   N21   1.330695 A    
N4    N7    1.396417 A    
N10   Ni5   1.880952 S    
C31   N23   1.330686 A    
C95   N41   1.480669 S    
N4    Ni4   1.877188 S    
N20   Ni4   1.876606 S    
N42   O19   1.302307 A    
C10   H6    1.077164 S    
C15   C24   1.368674 A    
C80   C94   1.574178 S    
C69   H45   1.110086 S    
C72   H48   1.110582 S    
C86   C90   1.568714 S    
C6    N6    1.329327 A    
C15   H11   1.080960 S    
C68   H40   1.101103 S    
C12   N12   1.327813 A    
C2    C18   1.394197 A    
C67   H39   1.105355 S    
C41   C107  1.472436 S    
C5    C18   1.404085 A    
N2    N5    1.396417 A    
N2    Ni2   1.877188 S    
N5    Ni5   1.886183 S    
C75   H63   1.113563 S    
C38   N30   1.311093 A    
N18   Ni2   1.876606 S    
N7    Ni7   1.886183 S    
N26   Ni5   1.869917 S    
C5    N33   1.429286 S    
C40   H24   1.077280 S    
C77   C95   1.572390 S    
C55   C58   1.532229 S    
N19   Ni3   1.875639 S    
C11   H7    1.076764 S    
N41   O17   1.302310 A    
C92   Cl12  1.802806 S    
C87   C91   1.571311 S    
C8    N8    1.331312 A    
C29   C43   1.383215 A    
C105  N45   1.489139 S    
C70   H44   1.102909 S    
C2    H2    1.073202 S    
C25   N17   1.324315 A    
C98   H70   1.113442 S    
N25   Ni6   1.870870 S    
N27   Ni8   1.870870 S    
H81   C111  1.110947 S    
C16   H12   1.081131 S    
N37   O10   1.301064 A    
C8    N36   1.428307 S    
C79   C83   1.580350 S    
C99   H67   1.106112 S    
H82   C111  1.110881 S    
C90   Cl10  1.801459 S    
C27   N19   1.324650 A    
H54   C90   1.115113 S    
C96   Cl8   1.818878 S    
C77   C81   1.579919 S    
C36   C48   1.389167 A    
N38   O11   1.301558 A    
C109  C111  1.552473 S    
C72   H42   1.106731 S    
N39   O13   1.300839 A    
C2    N2    1.321932 A    
C74   H62   1.113797 S    
C65   C71   1.537656 S    
C4    C20   1.394028 A    
N43   O22   1.302052 A    
C65   Cl1   1.794943 S    
C87   C95   1.602277 S    
C14   H10   1.081707 S    
C85   C93   1.601091 S    
C61   C63   1.527873 S    
C103  H79   1.111532 S    
C48   C88   1.469840 S    
N35   O5    1.300654 A    
C49   C57   1.543463 S    
C54   C56   1.528675 S    
C74   C90   1.521218 S    
N46   O27   1.302795 A    
C91   Cl11  1.802834 S    
C106  N48   1.491756 S    
N48   O32   1.302387 A    
C23   C63   1.432564 S    
C50   C63   1.530578 S    
C42   C108  1.472746 S    
H84   C112  1.111033 S    
C50   H28   1.110659 S    
C88   C96   1.601706 S    
C98   H66   1.107691 S    
N28   Ni7   1.869917 S    
N13   Ni2   1.881305 S    
C32   C44   1.373865 A    
N29   Ni2   1.901525 S    
C20   C83   1.488781 S    
C79   N39   1.474987 S    
