data_mof_unit_12850.cif
_audit_creation_date              2012-12-11T15:52:30-0500
_audit_creation_method            fapswitch 2.2
_symmetry_space_group_name_H-M    P1
_symmetry_Int_Tables_number       1
_space_group_crystal_system       triclinic
_cell_length_a                    6.941139
_cell_length_b                    14.660609
_cell_length_c                    15.987592
_cell_angle_alpha                 90.106294
_cell_angle_beta                  90.577295
_cell_angle_gamma                 89.550509
_cell_volume                      1626.78333393

loop_
_atom_site_label
_atom_site_type_symbol
_atom_type_description
_atom_site_fract_x
_atom_site_fract_y
_atom_site_fract_z
_atom_type_partial_charge
O1    O     O_R   0.494400 0.415640 0.412830 -0.548009
O2    O     O_R   0.823920 0.405510 0.586560 -0.516539
O3    O     O_R   0.994250 0.584360 0.587170 -0.555688
C1    C     C_R   0.656343 0.382737 0.614629 0.767498
O4    O     O_R   0.824110 0.404610 0.413450 -0.547740
O5    O     O_R   0.994440 0.583460 0.412820 -0.551700
C2    C     C_R   0.654923 0.382353 0.384176 0.634542
O6    O     O_R   0.494210 0.416540 0.587180 -0.517782
O7    O     O_3   0.660810 0.558680 0.500000 -0.381580
V1    V     V_3+5 0.935650 0.489110 0.500000 1.527031
O8    O     O_R   0.324150 0.594490 0.413440 -0.539613
C3    C     C_R   0.154415 0.614394 0.382881 0.674423
O9    O     O_R   0.323970 0.595390 0.586550 -0.532783
C4    C     C_R   0.154834 0.616607 0.615940 0.813859
V2    V     V_3+5 0.435660 0.510890 0.500000 1.528392
O10   O     O_3   0.160630 0.441320 0.500000 -0.356514
C5    C     C_3   0.043083 0.640266 0.769221 -0.171917
C6    C     C_3   0.031886 0.714923 0.841582 0.103909
H1    H     H_    0.878707 0.729513 0.856865 0.131811
C7    C     C_3   0.035967 0.774930 0.656055 0.482854
C8    C     C_3   0.348479 0.714523 0.715346 -0.400078
C9    C     C_3   0.141485 0.684664 0.688003 -0.145204
H2    H     H_    0.430573 0.739870 0.660850 0.204031
H3    H     H_    0.434933 0.654192 0.733927 0.212996
C10   C     C_3   0.123414 0.807196 0.812738 -0.201184
C11   C     C_3   0.001158 0.841592 0.733486 0.210945
C12   C     C_3   0.341596 0.787871 0.786633 0.214746
C13   C     C_R   0.003500 0.735724 0.179084 0.407799
C14   C     C_R   0.008127 0.670259 0.244970 -0.076135
C15   C     C_R   0.142461 0.680162 0.311807 -0.181193
C16   C     C_R   0.265292 0.755594 0.312652 -0.076227
H4    H     H_    0.365057 0.763641 0.364710 0.173971
C17   C     C_R   0.253847 0.823600 0.250821 -0.077449
C18   C     C_R   0.122496 0.813610 0.182851 -0.169939
C19   C     C_R   0.792062 0.304634 0.742829 0.389706
C20   C     C_R   0.773284 0.240534 0.807787 -0.217837
H5    H     H_    0.883408 0.236712 0.856096 0.169003
C21   C     C_R   0.611903 0.183849 0.813198 -0.167011
C22   C     C_R   0.463344 0.193567 0.751543 -0.021604
C23   C     C_R   0.488468 0.251950 0.682867 0.248193
C24   C     C_R   0.647903 0.311236 0.680238 -0.156278
C25   C     C_R   0.767332 0.234315 0.315661 -0.091468
C26   C     C_R   0.753747 0.168231 0.250174 0.391235
C27   C     C_R   0.622089 0.181180 0.183571 -0.131294
C28   C     C_R   0.499410 0.257258 0.184097 -0.174687
H6    H     H_    0.399211 0.266529 0.132302 0.172030
C29   C     C_R   0.509712 0.323620 0.247732 0.028203
C30   C     C_R   0.643685 0.312582 0.315161 -0.209935
O11   O     O_R   0.771300 0.080930 0.910090 -0.532866
O12   O     O_R   0.441270 0.092800 0.083770 -0.557654
O13   O     O_R   0.271080 0.913920 0.084380 -0.561473
C31   C     C_R   0.610403 0.114155 0.113435 0.728139
O14   O     O_R   0.441580 0.091910 0.910670 -0.517797
O15   O     O_R   0.271390 0.913020 0.910040 -0.541638
C32   C     C_R   0.608074 0.113995 0.881373 0.759786
O16   O     O_R   0.770990 0.081830 0.084440 -0.521473
O17   O     O_3   0.604750 0.938760 0.997250 -0.382664
V3    V     V_3+5 0.329850 0.008280 0.997210 1.537368
O18   O     O_R   0.941680 0.901940 0.910610 -0.530526
C33   C     C_R   0.111265 0.877761 0.883508 0.763722
O19   O     O_R   0.941370 0.902830 0.083720 -0.505791
C34   C     C_R   0.111110 0.881965 0.113618 0.748466
V4    V     V_3+5 0.829860 0.986420 0.997150 1.588600
O20   O     O_3   0.104830 0.056030 0.997180 -0.364279
C35   C     C_2   0.839572 0.606576 0.751311 0.303082
H7    H     H_    0.762566 0.624237 0.694617 0.115471
O21   O     O_2   0.755458 0.560062 0.802528 -0.496811
O22   O     O_3   0.425706 0.870192 0.759902 -0.654791
H8    H     H_    0.402862 0.879819 0.699324 0.325417
O23   O     O_3   0.157305 0.816612 0.596455 -0.681338
H9    H     H_    0.078737 0.858392 0.560920 0.329650
C36   C     C_2   0.046827 0.939383 0.711536 0.518782
H10   H     H_    0.155338 0.975710 0.746236 0.008677
O24   O     O_2   0.954611 0.979804 0.657463 -0.511927
O25   O     O_3   0.889247 0.724121 0.108546 -0.621381
H11   H     H_    0.873634 0.658126 0.097613 0.319452
C37   C     C_2   0.874529 0.591451 0.243748 0.382264
H12   H     H_    0.922880 0.525155 0.265977 0.070364
O26   O     O_2   0.707511 0.600522 0.220281 -0.526237
C38   C     C_2   0.373737 0.906645 0.261068 0.442849
H13   H     H_    0.339398 0.968576 0.226961 0.051529
O27   O     O_2   0.511862 0.907378 0.309006 -0.518960
O28   O     O_3   0.948432 0.362246 0.740321 -0.608237
H14   H     H_    0.036688 0.348046 0.787777 0.311773
C39   C     C_2   0.280478 0.142816 0.752465 0.420193
H15   H     H_    0.227538 0.112963 0.694667 0.108664
O29   O     O_2   0.177279 0.142611 0.813661 -0.538326
C40   C     C_2   0.153182 0.554968 0.799848 0.587690
H16   H     H_    0.122427 0.526816 0.860951 0.095741
O30   O     O_2   0.267108 0.513295 0.756035 -0.532570
O31   O     O_3   0.352236 0.250140 0.619133 -0.623973
H17   H     H_    0.419645 0.257437 0.565221 0.291663
C41   C     C_2   0.909869 0.221329 0.384738 0.419834
H18   H     H_    0.870902 0.237435 0.448688 0.047384
O32   O     O_2   0.073749 0.195104 0.370482 -0.513534
O33   O     O_3   0.861001 0.088322 0.250991 -0.631903
H19   H     H_    0.887290 0.070210 0.309603 0.321099
C42   C     C_2   0.386928 0.406822 0.238991 0.421380
H20   H     H_    0.422693 0.469160 0.271931 0.074028
O34   O     O_2   0.244578 0.407202 0.193443 -0.537627
O35   O     O_3   0.116283 0.685448 0.917455 -0.622458
H21   H     H_    0.020182 0.647512 0.946775 0.312801
O36   O     O_3   0.857141 0.754743 0.616953 -0.658913
H22   H     H_    0.878808 0.739682 0.557200 0.304786
O37   O     O_3   0.804665 0.845898 0.754627 -0.612165
H23   H     H_    0.745468 0.785328 0.747962 0.305994
C43   C     C_2   0.466914 0.755835 0.860373 0.526162
H24   H     H_    0.550262 0.805110 0.895616 0.093717
O38   O     O_2   0.479462 0.675834 0.881002 -0.499006

loop_
_geom_bond_atom_site_label_1
_geom_bond_atom_site_label_2
_ccdc_geom_bond_type
C41   H18   S    
O11   V4    S    
C5    C40   S    
C11   C36   S    
O14   C32   A    
C19   C20   A    
C1    O6    A    
C7    O36   S    
O15   C33   A    
C39   H15   S    
O13   C34   A    
O35   H21   S    
C29   C42   S    
C20   H5    S    
O5    C3    A    
C15   C16   A    
C1    C24   S    
V2    O10   S    
C25   C41   S    
C18   C34   S    
C6    H1    S    
O19   V4    S    
C12   O22   S    
O8    V2    S    
C21   C32   S    
C29   C30   A    
O22   H8    S    
C35   O21   D    
O12   C31   A    
C43   H24   S    
C16   C17   A    
O17   V4    S    
O23   H9    S    
O1    V2    S    
C10   C33   S    
O7    V1    S    
C37   H12   S    
C27   C31   S    
C37   O26   D    
C8    C12   S    
C13   C18   A    
O18   C33   A    
C41   O32   D    
O9    C4    A    
C43   O38   D    
C7    O23   S    
C6    C10   S    
C11   O37   S    
C17   C18   A    
C28   C29   A    
V3    O20   S    
C39   O29   D    
O12   V3    S    
C38   O27   D    
O31   H17   S    
O4    C2    A    
C19   O28   S    
C36   H10   S    
C10   C11   S    
O11   C32   A    
C6    O35   S    
O2    C1    A    
O25   H11   S    
C14   C15   A    
C26   O33   S    
O28   H14   S    
C12   C43   S    
O14   V3    S    
O33   H19   S    
C5    C6    S    
O16   V4    S    
O13   V3    S    
C25   C30   A    
O3    C4    A    
C36   O24   D    
C23   C24   A    
C40   O30   D    
C42   H20   S    
O6    V2    S    
C42   O34   D    
O9    V2    S    
C26   C27   A    
C25   C26   A    
C22   C39   S    
O2    V1    S    
C22   C23   A    
C27   C28   A    
O15   V3    S    
C13   C14   A    
C3    C15   S    
O1    C2    A    
C5    C35   S    
C16   H4    S    
C7    C9    S    
C38   H13   S    
O5    V1    S    
O8    C3    A    
C17   C38   S    
C10   C12   S    
O37   H23   S    
O18   V4    S    
C5    C9    S    
C2    C30   S    
C4    C9    S    
C8    H2    S    
O7    V2    S    
O4    V1    S    
O3    V1    S    
V1    O10   S    
O17   V3    S    
C21   C22   A    
C7    C11   S    
C20   C21   A    
C23   O31   S    
O19   C34   A    
C19   C24   A    
V4    O20   S    
C28   H6    S    
C14   C37   S    
C40   H16   S    
C35   H7    S    
C8    H3    S    
O36   H22   S    
C8    C9    S    
C13   O25   S    
C31   O16   A    
