data_mof_unit_56182.cif
_audit_creation_date              2012-12-11T14:21:06-0500
_audit_creation_method            fapswitch 2.2
_symmetry_space_group_name_H-M    P1
_symmetry_Int_Tables_number       1
_space_group_crystal_system       triclinic
_cell_length_a                    11.596121
_cell_length_b                    11.528263
_cell_length_c                    19.498208
_cell_angle_alpha                 90.022803
_cell_angle_beta                  89.96561
_cell_angle_gamma                 59.266712
_cell_volume                      2240.50035345

loop_
_atom_site_label
_atom_site_type_symbol
_atom_type_description
_atom_site_fract_x
_atom_site_fract_y
_atom_site_fract_z
_atom_type_partial_charge
C1    C     C_R   0.615749 0.085214 0.606507 0.560524
C2    C     C_1   0.652574 0.681849 0.663913 0.000547
C3    C     C_1   0.127226 0.198479 0.859454 0.001360
C4    C     C_1   0.171433 0.170214 0.727720 -0.031752
C5    C     C_1   0.150494 0.182052 0.799030 -0.031794
C6    C     C_1   0.194971 0.160996 0.667291 0.001750
C7    C     C_1   0.668207 0.182227 0.864649 -0.004681
C8    C     C_1   0.633882 0.137102 0.736823 -0.030844
C9    C     C_1   0.647963 0.161966 0.806412 -0.030665
C10   C     C_1   0.625659 0.114481 0.677153 0.000767
C11   C     C_R   0.637013 0.685900 0.190394 0.008040
C12   C     C_R   0.614082 0.743044 0.597806 0.540638
C13   C     C_R   0.546822 0.666548 0.231396 -0.051592
C14   C     C_R   0.574732 0.640017 0.300911 -0.004951
C15   C     C_R   0.713753 0.742049 0.291756 -0.155918
C16   C     C_R   0.707230 0.740063 0.220300 0.205490
C17   C     C_R   0.429460 0.674197 0.205224 -0.091249
C18   C     C_R   0.360613 0.624994 0.242820 0.245690
C19   C     C_R   0.402098 0.580151 0.309675 -0.094441
C20   C     C_R   0.510404 0.583762 0.338015 -0.113042
C21   C     C_R   0.651357 0.688287 0.332524 -0.030762
C22   C     C_R   0.142837 0.204001 0.193954 0.003781
C23   C     C_R   0.240619 0.145588 0.598065 0.551539
C24   C     C_R   0.122282 0.309812 0.238803 0.018806
C25   C     C_R   0.207004 0.279010 0.295083 0.034951
C26   C     C_R   0.290433 0.039088 0.276959 -0.170928
C27   C     C_R   0.233561 0.069731 0.211597 -0.171224
C28   C     C_R   0.021301 0.446556 0.228736 -0.093369
C29   C     C_R   0.027606 0.550276 0.261325 -0.104412
C30   C     C_R   0.125002 0.520922 0.309273 -0.095943
C31   C     C_R   0.215146 0.387749 0.325362 -0.093177
C32   C     C_R   0.271331 0.143172 0.320967 0.001570
C33   C     C_R   0.729149 0.216639 0.208287 -0.017626
C34   C     C_R   0.647706 0.116685 0.404664 0.531534
C35   C     C_R   0.838887 0.123732 0.251058 0.012399
C36   C     C_R   0.814421 0.112323 0.321339 0.030477
C37   C     C_R   0.577014 0.259227 0.301733 -0.169547
C38   C     C_R   0.600615 0.286342 0.236068 -0.156905
C39   C     C_R   0.970878 0.036390 0.226775 -0.103967
C40   C     C_R   0.073055 0.949022 0.270838 -0.099124
C41   C     C_R   0.051688 0.954368 0.340791 -0.103842
C42   C     C_R   0.923579 0.037652 0.366311 -0.085354
C43   C     C_R   0.681189 0.169624 0.344123 -0.008986
C44   C     C_R   0.082184 0.230751 0.928737 0.540444
C45   C     C_R   0.618408 0.737508 0.402601 0.533149
C46   C     C_R   0.709545 0.545679 0.922963 0.563215
C47   C     C_R   0.706673 0.205464 0.930873 0.548794
C48   C     C_R   0.079875 0.237958 0.126548 0.520341
C49   C     C_R   0.676911 0.618197 0.123641 0.561959
C50   C     C_R   0.744190 0.236343 0.134615 0.545018
C51   C     C_R   0.307042 0.115015 0.394171 0.558314
C52   C     C_1   0.699689 0.579484 0.851893 0.000342
C53   C     C_1   0.674326 0.642615 0.722192 -0.030038
C54   C     C_1   0.690395 0.606677 0.791898 -0.032754
Cr1   Cr    Cr6+3 0.404720 0.198220 0.499960 1.005452
Cr2   Cr    Cr6+3 0.698290 0.897110 0.500380 1.012515
Cr3   Cr    Cr6+3 0.396970 0.904720 0.499610 1.013148
Cr4   Cr    Cr6+3 0.926180 0.151990 0.028120 0.997019
Cr5   Cr    Cr6+3 0.921330 0.451820 0.027470 1.004765
Cr6   Cr    Cr6+3 0.626260 0.446870 0.028710 0.984454
H1    H     H_    0.762417 0.791360 0.314955 0.150732
H2    H     H_    0.960821 0.654035 0.248336 0.179236
H3    H     H_    0.129051 0.602140 0.334782 0.135216
H4    H     H_    0.288232 0.375161 0.362958 0.137922
H5    H     H_    0.475467 0.303177 0.317739 0.120017
H6    H     H_    0.999602 0.029087 0.174206 0.170313
H7    H     H_    0.515440 0.353748 0.205058 0.136328
H8    H     H_    0.171450 0.881372 0.250704 0.149174
H9    H     H_    0.133967 0.892415 0.375087 0.128326
H10   H     H_    0.910319 0.041064 0.421341 0.141603
H11   H     H_    0.389162 0.720660 0.155956 0.129102
H12   H     H_    0.349553 0.544632 0.340703 0.098703
H13   H     H_    0.539042 0.548957 0.390244 0.138818
H14   H     H_    0.347855 0.934927 0.293434 0.132946
H15   H     H_    0.937196 0.474468 0.195885 0.171089
H16   H     H_    0.254016 0.988817 0.176318 0.106365
O1    O     O_R   0.267740 0.231960 0.575440 -0.506750
O2    O     O_R   0.685970 0.784660 0.430010 -0.502718
O3    O     O_R   0.502530 0.767000 0.423990 -0.528214
O4    O     O_R   0.288330 0.026350 0.429250 -0.488224
O5    O     O_3   0.499990 0.000020 0.499980 -0.287714
O6    O     O_R   0.821500 0.119340 0.952830 -0.497317
O7    O     O_R   0.037130 0.162530 0.957360 -0.492010
O8    O     O_R   0.056440 0.344740 0.951340 -0.518184
O9    O     O_R   0.797900 0.560360 0.957470 -0.487438
O10   O     O_R   0.596130 0.579390 0.952730 -0.505542
O11   O     O_R   0.639060 0.321160 0.958670 -0.507324
O12   O     O_R   0.527280 0.186640 0.570530 -0.489561
O13   O     O_R   0.821240 0.124200 0.104370 -0.544041
O14   O     O_R   0.036890 0.167040 0.097840 -0.530665
O15   O     O_R   0.056180 0.349610 0.102880 -0.536192
O16   O     O_R   0.797660 0.564870 0.097950 -0.476395
O17   O     O_R   0.595880 0.584250 0.104270 -0.548512
O18   O     O_R   0.638830 0.325670 0.099150 -0.517289
O19   O     O_3   0.824590 0.350230 0.028100 -0.281218
O20   O     O_R   0.728090 0.003450 0.576380 -0.501591
O21   O     O_R   0.682970 0.789190 0.570490 -0.505607
O22   O     O_R   0.499290 0.771880 0.575530 -0.502582
O23   O     O_R   0.285330 0.030870 0.569730 -0.488284
O24   O     O_R   0.270980 0.227080 0.423890 -0.526678
O25   O     O_R   0.530280 0.182120 0.430050 -0.525948
O26   O     O_R   0.731330 0.998570 0.424830 -0.522103
O27   O     O_3   0.763664 0.796077 0.179460 -0.592056
C55   C     C_3   0.677499 0.938080 0.178038 0.010238
H17   H     H_    0.737985 0.981258 0.159909 0.195195
H18   H     H_    0.639547 0.981732 0.229981 0.127913
C56   C     C_3   0.560337 0.980737 0.127798 -0.262630
H19   H     H_    0.600481 0.939848 0.075964 0.183369
H20   H     H_    0.496954 0.939661 0.144738 0.154014
C57   C     C_3   0.471320 0.133877 0.123622 -0.475159
H21   H     H_    0.432695 0.177181 0.175263 0.149511
H22   H     H_    0.384523 0.160698 0.089544 0.154009
H23   H     H_    0.528527 0.178287 0.102027 0.182866
O28   O     O_3   0.244289 0.634341 0.217957 -0.594712
C58   C     C_3   0.268350 0.560059 0.156319 -0.008688
H24   H     H_    0.275377 0.462541 0.168781 0.152772
H25   H     H_    0.362606 0.536054 0.129084 0.139549
C59   C     C_3   0.150579 0.639510 0.107459 -0.257155
H26   H     H_    0.056576 0.655900 0.131555 0.206796
H27   H     H_    0.139073 0.739762 0.097206 0.160821
C60   C     C_3   0.172290 0.564874 0.039642 -0.443703
H28   H     H_    0.261313 0.554824 0.012604 0.140902
H29   H     H_    0.082828 0.622224 0.006430 0.160294
H30   H     H_    0.187841 0.462794 0.048728 0.178162

loop_
_geom_bond_atom_site_label_1
_geom_bond_atom_site_label_2
_ccdc_geom_bond_type
C25   C31   A    
C22   C48   S    
C26   C32   A    
C41   C42   A    
Cr3   O3    S    
C23   O23   A    
C35   C36   A    
C44   O7    A    
C2    C12   S    
C39   H6    S    
C18   O28   S    
C55   H18   S    
O28   C58   S    
Cr2   O5    S    
C53   C54   S    
C26   C27   A    
C29   C30   A    
C12   O21   A    
C14   C21   A    
C28   C29   A    
Cr4   O6    S    
C30   C31   A    
Cr1   O1    S    
Cr3   O22   S    
C15   C16   A    
Cr3   O23   S    
C46   C52   S    
C42   H10   S    
Cr2   O2    S    
C7    C9    T    
C18   C19   A    
C47   O6    A    
Cr1   O12   S    
C57   H21   S    
C60   H30   S    
C50   O13   A    
C57   H22   S    
C33   C35   A    
C51   O4    A    
C36   C42   A    
C19   C20   A    
C8    C9    S    
C58   H25   S    
C48   O15   A    
C37   H5    S    
Cr1   O24   S    
C56   H19   S    
C45   O2    A    
Cr1   O5    S    
C12   O22   A    
Cr5   O16   S    
C46   O9    A    
Cr6   O17   S    
C25   C32   A    
C48   O14   A    
C30   H3    S    
C59   H26   S    
C56   H20   S    
Cr3   O4    S    
C19   H12   S    
Cr5   O19   S    
Cr2   O21   S    
C55   H17   S    
Cr6   O11   S    
C52   C54   T    
C21   C45   S    
C3    C44   S    
C34   O25   A    
C34   C43   S    
C14   C20   A    
Cr5   O8    S    
C4    C6    T    
C39   C40   A    
Cr6   O10   S    
C50   O18   A    
C3    C5    T    
C33   C50   S    
C23   O1    A    
C59   C60   S    
C47   O11   A    
C37   C43   A    
C35   C39   A    
Cr4   O19   S    
Cr5   O9    S    
C32   C51   S    
C37   C38   A    
C11   C49   S    
C11   C16   A    
C16   O27   S    
C58   C59   S    
C17   C18   A    
C15   H1    S    
C45   O3    A    
Cr5   O15   S    
C24   C25   A    
Cr4   O14   S    
C57   H23   S    
C60   H28   S    
C40   C41   A    
C17   H11   S    
C22   C27   A    
C56   C57   S    
C22   C24   A    
C49   O16   A    
C27   H16   S    
C41   H9    S    
C51   O24   A    
Cr2   O20   S    
C29   H2    S    
C31   H4    S    
C1    C10   S    
C24   C28   A    
C4    C5    S    
C44   O8    A    
C2    C53   T    
Cr1   O25   S    
C33   C38   A    
C13   C17   A    
Cr2   O26   S    
Cr4   O7    S    
C11   C13   A    
C1    O12   A    
C1    O20   A    
C6    C23   S    
C26   H14   S    
C20   H13   S    
Cr3   O5    S    
C34   O26   A    
Cr4   O13   S    
C59   H27   S    
C60   H29   S    
Cr6   O19   S    
C15   C21   A    
C38   H7    S    
C8    C10   T    
C40   H8    S    
O27   C55   S    
C36   C43   A    
C49   O17   A    
C13   C14   A    
C28   H15   S    
C55   C56   S    
C58   H24   S    
C7    C47   S    
C46   O10   A    
Cr6   O18   S    
