data_mof_unit_50641.cif
_audit_creation_date              2012-12-10T17:11:04-0500
_audit_creation_method            fapswitch 2.2
_symmetry_space_group_name_H-M    P1
_symmetry_Int_Tables_number       1
_space_group_crystal_system       triclinic
_cell_length_a                    10.047526
_cell_length_b                    10.621538
_cell_length_c                    16.742835
_cell_angle_alpha                 89.652452
_cell_angle_beta                  84.632382
_cell_angle_gamma                 87.83358
_cell_volume                      1777.68595642

loop_
_atom_site_label
_atom_site_type_symbol
_atom_type_description
_atom_site_fract_x
_atom_site_fract_y
_atom_site_fract_z
_atom_type_partial_charge
C1    C     C_R   0.498783 0.737107 0.489817 0.844199
C2    C     C_R   0.528620 0.549071 0.265085 -0.143841
C3    C     C_2   0.599020 0.067983 0.446420 0.433054
C4    C     C_R   0.480741 0.496922 0.653416 0.897774
C5    C     C_2   0.514835 0.127349 0.503236 0.204872
C6    C     C_2   0.607167 0.930027 0.444356 0.433271
C7    C     C_2   0.493866 0.867223 0.461485 0.165762
C8    C     C_2   0.083634 0.470148 0.438848 0.010903
C9    C     C_2   0.935551 0.504380 0.434966 0.720321
C10   C     C_R   0.503016 0.262025 0.500791 0.843753
C11   C     C_R   0.518930 0.505093 0.347220 0.837294
C12   C     C_R   0.346458 0.470298 0.786986 0.447800
C13   C     C_R   0.467429 0.498765 0.741040 -0.244792
C14   C     C_R   0.576713 0.537232 0.779705 -0.318799
C15   C     C_R   0.566461 0.551492 0.862498 0.577468
C16   C     C_R   0.441365 0.537741 0.906600 -0.055934
C17   C     C_R   0.333622 0.494337 0.868888 -0.213766
C18   C     C_3   0.801844 0.145563 0.400359 -0.205845
C19   C     C_3   0.753683 0.827114 0.353991 -0.254047
C20   C     C_3   0.978539 0.548826 0.297407 -0.430654
C21   C     C_3   0.259099 0.473824 0.079399 -0.319052
C22   C     C_3   0.765234 0.478339 0.902496 -0.302562
C23   C     C_R   0.445933 0.700858 0.171451 -0.217211
C24   C     C_R   0.449775 0.656859 0.249179 -0.258514
C25   C     C_R   0.614917 0.491491 0.203263 0.445481
C26   C     C_R   0.609816 0.536996 0.125523 -0.083017
C27   C     C_R   0.519583 0.635923 0.109333 -0.018576
C28   C     C_2   0.427178 0.551922 0.993852 0.449556
C29   C     C_2   0.480980 0.650912 0.027717 0.351448
H1    H     H_    0.670752 0.557627 0.745895 0.212168
H2    H     H_    0.400580 0.123944 0.603661 0.337835
H3    H     H_    0.735432 0.903295 0.309856 0.165252
H4    H     H_    0.690188 0.746337 0.344064 0.184838
H5    H     H_    0.859809 0.794815 0.342243 0.211596
H6    H     H_    0.297062 0.874238 0.466700 0.371129
H7    H     H_    0.154617 0.611303 0.583528 0.387842
H8    H     H_    0.021793 0.454605 0.278610 0.182811
H9    H     H_    0.057561 0.614724 0.309869 0.162866
H10   H     H_    0.928134 0.588437 0.246148 0.221886
H11   H     H_    0.817207 0.405444 0.593502 0.372362
H12   H     H_    0.667682 0.487957 0.076610 0.160685
H13   H     H_    0.680804 0.354913 0.269590 0.364129
H14   H     H_    0.549406 0.818680 0.018854 0.349938
H15   H     H_    0.276000 0.358796 0.712102 0.343277
H16   H     H_    0.188188 0.520380 0.040194 0.144119
H17   H     H_    0.266502 0.532294 0.133295 0.177344
H18   H     H_    0.215783 0.383542 0.100281 0.210293
H19   H     H_    0.811026 0.452501 0.841471 0.190602
H20   H     H_    0.714221 0.396365 0.931690 0.163282
H21   H     H_    0.847531 0.502035 0.938911 0.199200
H22   H     H_    0.139649 0.423403 0.388316 0.064772
H23   H     H_    0.387248 0.704486 0.296899 0.174119
H24   H     H_    0.239844 0.475633 0.903368 0.185018
H25   H     H_    0.376680 0.777619 0.159079 0.165540
H26   H     H_    0.862492 0.062534 0.376360 0.191241
H27   H     H_    0.815441 0.157856 0.465161 0.169266
H28   H     H_    0.842036 0.229767 0.368352 0.185086
N1    N     N_2   0.147950 0.498670 0.499150 0.068765
N2    N     N_2   0.852290 0.498640 0.499130 0.051219
O1    O     O_R   0.386960 0.680940 0.500010 -0.637574
O2    O     O_3   0.453269 0.062615 0.567775 -0.764663
O3    O     O_3   0.732249 0.869885 0.433990 -0.616333
O4    O     O_3   0.372445 0.928374 0.449416 -0.766320
O5    O     O_3   0.085574 0.584807 0.549399 -0.626559
O6    O     O_3   0.881939 0.538193 0.363581 -0.625262
O7    O     O_3   0.897401 0.428254 0.558730 -0.677937
O8    O     O_3   0.697838 0.387292 0.214282 -0.759309
O9    O     O_3   0.506411 0.759885 0.984255 -0.737088
O10   O     O_3   0.239861 0.418108 0.754873 -0.726400
O11   O     O_3   0.386698 0.447435 0.038874 -0.616588
O12   O     O_R   0.613100 0.680900 0.499990 -0.550049
O13   O     O_3   0.677144 0.584567 0.899950 -0.581859
O14   O     O_R   0.373570 0.500040 0.615810 -0.603367
O15   O     O_R   0.599710 0.500000 0.615790 -0.630075
O16   O     O_R   0.386900 0.319100 0.500010 -0.605286
O17   O     O_R   0.613040 0.319060 0.499990 -0.628672
O18   O     O_R   0.400290 0.500000 0.384210 -0.628629
O19   O     O_R   0.626430 0.499960 0.384190 -0.567900
O20   O     O_3   0.666627 0.135775 0.385078 -0.653485
Zn1   Zn    Zn3+2 0.349000 0.500030 0.500020 0.998649
Zn2   Zn    Zn3+2 0.651000 0.499970 0.499980 1.039881

loop_
_geom_bond_atom_site_label_1
_geom_bond_atom_site_label_2
_ccdc_geom_bond_type
C16   C28   S    
C22   H19   S    
C12   O10   S    
C24   H23   S    
C27   C29   S    
H2    O2    S    
C25   O8    S    
C3    C6    S    
C3    O20   S    
C15   O13   S    
C26   C27   A    
C1    O12   A    
C28   C29   D    
N2    O7    S    
C19   H3    S    
C19   O3    S    
C15   C16   A    
C4    C13   S    
C11   O18   A    
C8    N1    D    
C10   O17   A    
C8    C9    S    
C12   C17   A    
C23   C24   A    
C23   C27   A    
O16   Zn1   S    
C4    O15   A    
N1    Zn1   S    
C22   H21   S    
H11   O7    S    
C13   C14   A    
C18   O20   S    
C14   H1    S    
C2    C11   S    
C22   O13   S    
C21   H16   S    
N1    O5    S    
C20   O6    S    
C19   H4    S    
C1    O1    A    
C20   H10   S    
H14   O9    S    
C25   C26   A    
C9    N2    D    
C11   O19   A    
C29   O9    S    
C20   H9    S    
C10   O16   A    
C18   H28   S    
C5    O2    S    
H15   O10   S    
C8    H22   S    
C7    O4    S    
C4    O14   A    
C18   H26   S    
C22   H20   S    
C2    C24   A    
H13   O8    S    
O15   Zn2   S    
C17   H24   S    
C23   H25   S    
C21   H17   S    
O18   Zn1   S    
O1    Zn1   S    
C1    C7    S    
C28   O11   S    
N2    Zn2   S    
C3    C5    D    
C19   H5    S    
O17   Zn2   S    
C6    C7    D    
C18   H27   S    
C21   O11   S    
C6    O3    S    
C5    C10   S    
C20   H8    S    
O19   Zn2   S    
C16   C17   A    
O14   Zn1   S    
C2    C25   A    
C9    O6    S    
C12   C13   A    
C14   C15   A    
H6    O4    S    
C21   H18   S    
H7    O5    S    
C26   H12   S    
O12   Zn2   S    
