data_mof_unit_33644.cif
_audit_creation_date              2012-10-26T21:10:25-0400
_audit_creation_method            fapswitch 2.2
_symmetry_space_group_name_H-M    P1
_symmetry_Int_Tables_number       1
_space_group_crystal_system       triclinic
_cell_length_a                    10.834474
_cell_length_b                    10.927063
_cell_length_c                    9.673041
_cell_angle_alpha                 90.107216
_cell_angle_beta                  90.25443
_cell_angle_gamma                 90.262011
_cell_volume                      1145.15614349

loop_
_atom_site_label
_atom_site_type_symbol
_atom_type_description
_atom_site_fract_x
_atom_site_fract_y
_atom_site_fract_z
_atom_type_partial_charge
Br1   Br    Br    0.162610 0.821526 0.448470 -0.553983
C1    C     C_R   0.501808 0.265311 0.499954 0.560795
C2    C     C_R   0.835056 0.384683 0.981216 -0.094268
C3    C     C_R   0.763464 0.278067 0.964295 0.046392
C4    C     C_R   0.262261 0.502340 0.499519 0.571177
C5    C     C_R   0.750635 0.226422 0.832016 -0.121490
C6    C     C_R   0.808803 0.280118 0.718354 -0.060426
C7    C     C_R   0.879643 0.387051 0.735242 0.045994
C8    C     C_2   0.501791 0.932888 0.386385 -0.139622
C9    C     C_2   0.493193 0.866747 0.502486 -0.076126
C10   C     C_2   0.495876 0.066808 0.386408 -0.125070
C11   C     C_2   0.509004 0.133437 0.501981 -0.096311
C12   C     C_R   0.235278 0.722486 0.039050 -0.121249
C13   C     C_2   0.432038 0.426061 0.921569 -0.027796
C14   C     C_2   0.435731 0.422860 0.077399 0.000271
C15   C     C_R   0.498874 0.734734 0.500171 0.580317
C16   C     C_R   0.737666 0.496583 0.500463 0.558541
C17   C     C_R   0.230106 0.784314 0.165484 -0.075343
C18   C     C_R   0.171936 0.730311 0.279223 0.199850
C19   C     C_R   0.119798 0.612266 0.266439 0.064191
C20   C     C_R   0.124434 0.551445 0.138545 -0.130244
C21   C     C_R   0.181756 0.606587 0.025353 -0.120474
C22   C     C_2   0.702091 0.219496 0.083353 0.220129
C23   C     C_R   0.932998 0.543916 0.387718 -0.123868
C24   C     C_R   0.871567 0.493405 0.501215 0.013356
C25   C     C_R   0.938958 0.446244 0.614582 -0.021701
C26   C     C_R   0.066921 0.452926 0.612120 -0.140474
C27   C     C_R   0.128270 0.503507 0.498583 0.027469
C28   C     C_R   0.060734 0.550828 0.385606 0.001509
C29   C     C_R   0.892861 0.438548 0.867488 -0.132573
Cu1   Cu    Cu3+1 0.500020 0.500020 0.638630 0.950476
Cu2   Cu    Cu3+1 0.499980 0.499980 0.361370 0.988199
H1    H     H_    0.280311 0.764656 0.951442 0.129487
H2    H     H_    0.380527 0.353502 0.128486 0.131869
H3    H     H_    0.270808 0.874627 0.174833 0.126856
H4    H     H_    0.547478 0.567516 0.106284 0.199792
H5    H     H_    0.084857 0.460782 0.127097 0.106522
H6    H     H_    0.185459 0.559062 0.927182 0.125125
H7    H     H_    0.881259 0.582111 0.301882 0.129676
H8    H     H_    0.118942 0.415162 0.697993 0.121258
H9    H     H_    0.946499 0.521446 0.882048 0.115140
H10   H     H_    0.845876 0.426647 0.082083 0.146099
H11   H     H_    0.643851 0.139541 0.067514 0.079750
H12   H     H_    0.695700 0.144400 0.816673 0.086283
H13   H     H_    0.797782 0.239095 0.616982 0.122551
H14   H     H_    0.511053 0.887990 0.286685 0.138873
H15   H     H_    0.478357 0.907949 0.602778 0.106845
H16   H     H_    0.481818 0.111262 0.287242 0.148836
H17   H     H_    0.527877 0.092742 0.601675 0.086166
H18   H     H_    0.369772 0.362839 0.869627 0.131025
H19   H     H_    0.561702 0.555142 0.894424 0.207774
N1    N     N_2   0.498640 0.498660 0.846910 -0.346397
N2    N     N_2   0.498610 0.498630 0.153040 -0.328965
O1    O     O_R   0.500020 0.321960 0.617040 -0.509094
O2    O     O_R   0.499980 0.321920 0.382900 -0.465258
O3    O     O_R   0.319660 0.500030 0.617070 -0.502729
O4    O     O_R   0.319620 0.499990 0.382930 -0.493664
O5    O     O_R   0.500020 0.678080 0.617100 -0.495180
O6    O     O_R   0.499980 0.678040 0.382960 -0.499770
O7    O     O_R   0.680380 0.500010 0.617070 -0.493434
O8    O     O_R   0.680340 0.499970 0.382930 -0.478721
O9    O     O_2   0.716166 0.259220 0.200459 -0.494361

loop_
_geom_bond_atom_site_label_1
_geom_bond_atom_site_label_2
_ccdc_geom_bond_type
Cu1   O7    S    
C12   C21   A    
C2    C29   A    
C10   C11   D    
C2    H10   S    
C12   H1    S    
C5    C6    A    
Cu1   O3    S    
C4    C27   S    
C7    C25   S    
C17   H3    S    
C26   H8    S    
C4    O3    A    
C18   C19   A    
C4    O4    A    
Cu1   N1    S    
C19   C28   S    
C7    C29   A    
C11   H17   S    
C25   C26   A    
C16   C24   S    
C8    H14   S    
C29   H9    S    
C15   O5    A    
C20   C21   A    
C23   C24   A    
C8    C10   S    
C10   H16   S    
C13   H18   S    
Cu2   O4    S    
C14   N2    D    
Cu1   O5    S    
C27   C28   A    
Cu2   O8    S    
C17   C18   A    
C1    O2    A    
Cu1   O1    S    
Cu1   Cu2   S    
Br1   C18   S    
C16   O7    A    
H19   N1    S    
C21   H6    S    
C8    C9    D    
C6    H13   S    
Cu2   N2    S    
C6    C7    A    
C23   H7    S    
C20   H5    S    
C19   C20   A    
C14   H2    S    
C3    C5    A    
C1    C11   S    
C1    O1    A    
C26   C27   A    
C9    C15   S    
C3    C22   S    
C23   C28   A    
C5    H12   S    
H4    N2    S    
Cu2   O2    S    
Cu2   O6    S    
C16   O8    A    
C24   C25   A    
C13   C14   S    
C22   H11   S    
C15   O6    A    
C22   O9    D    
C13   N1    D    
C2    C3    A    
C9    H15   S    
C12   C17   A    
