data_mof_unit_18259.cif
_audit_creation_date              2013-03-05T15:56:02-0500
_audit_creation_method            fapswitch 2.2
_symmetry_space_group_name_H-M    P1
_symmetry_Int_Tables_number       1
_space_group_crystal_system       triclinic
_cell_length_a                    12.327354
_cell_length_b                    13.155658
_cell_length_c                    17.258897
_cell_angle_alpha                 105.155397
_cell_angle_beta                  74.614732
_cell_angle_gamma                 116.620002
_cell_volume                      2379.35938522

loop_
_atom_site_label
_atom_site_type_symbol
_atom_site_description
_atom_site_fract_x
_atom_site_fract_y
_atom_site_fract_z
_atom_type_partial_charge
O1    O     O_R   0.025490 0.682370 0.523640 -0.532474
O2    O     O_R   0.194150 0.640180 0.491890 -0.623595
C1    C     C_R   0.144604 0.713289 0.503055 0.821931
O3    O     O_R   0.905900 0.523560 0.631310 -0.583451
O4    O     O_R   0.074570 0.481370 0.599560 -0.595556
C2    C     C_R   0.988037 0.504474 0.652395 0.789074
Cu1   Cu    Cu3+1 0.900140 0.524980 0.518800 0.951437
Cu2   Cu    Cu3+1 0.099860 0.475020 0.481200 0.967661
O5    O     O_R   0.805850 0.359820 0.508110 -0.585079
O6    O     O_R   0.974510 0.317630 0.476360 -0.570348
O7    O     O_R   0.925430 0.518630 0.400440 -0.598830
O8    O     O_R   0.094100 0.476440 0.368690 -0.564204
C3    C     C_R   0.855987 0.286046 0.488489 0.830383
C4    C     C_R   0.012600 0.496331 0.347703 0.837318
C5    C     C_R   0.985820 0.512421 0.738734 -0.044836
C6    C     C_R   0.057877 0.471598 0.761754 -0.184014
C7    C     C_R   0.060900 0.483438 0.843463 -0.130355
C8    C     C_R   0.993544 0.538433 0.903534 0.174826
C9    C     C_R   0.919114 0.576657 0.880640 -0.155501
C10   C     C_R   0.915268 0.563917 0.798646 -0.178469
C11   C     C_R   0.017412 0.603794 0.166343 -0.141308
C12   C     C_R   0.995354 0.585584 0.245703 -0.270147
C13   C     C_R   0.079628 0.439481 0.198401 0.343743
C14   C     C_R   0.104801 0.461334 0.119113 -0.215344
C15   C     C_R   0.071534 0.541172 0.102803 0.118582
C16   C     C_2   0.993761 0.551342 0.990621 -0.212339
C17   C     C_2   0.085434 0.550524 0.017911 -0.196780
C18   C     C_R   0.026297 0.504082 0.262544 -0.137686
H1    H     H_    0.111589 0.429893 0.716655 0.187541
H2    H     H_    0.956120 0.636959 0.294237 0.166265
H3    H     H_    0.166271 0.544224 0.976493 0.152533
H4    H     H_    0.864911 0.617394 0.926221 0.135012
H5    H     H_    0.992836 0.667114 0.154640 0.142663
H6    H     H_    0.858858 0.596015 0.782184 0.159583
H7    H     H_    0.913449 0.557225 0.033381 0.153864
H8    H     H_    0.114351 0.447377 0.858828 0.138266
H9    H     H_    0.143748 0.411103 0.069265 0.171460
C19   C     C_R   0.739382 0.971070 0.399694 -0.210506
H10   H     H_    0.918753 0.107911 0.402749 0.170570
H11   H     H_    0.566609 0.766353 0.354963 0.147013
H12   H     H_    0.775620 0.910649 0.360130 0.139798
C20   C     C_R   0.775292 0.163652 0.472865 -0.059570
C21   C     C_R   0.177637 0.920669 0.522339 0.346021
C22   C     C_R   0.256229 0.038220 0.537831 0.293229
C23   C     C_R   0.383471 0.070159 0.524173 -0.341873
C24   C     C_R   0.435289 0.988261 0.489893 0.024046
C25   C     C_R   0.355378 0.871487 0.469295 0.019780
C26   C     C_R   0.564650 0.019837 0.471502 0.120244
C27   C     C_R   0.611983 0.938819 0.422725 0.156369
C28   C     C_R   0.531772 0.827820 0.394858 -0.241824
C29   C     C_R   0.405629 0.794828 0.417142 -0.150804
C30   C     C_R   0.648750 0.130251 0.499148 -0.262255
C31   C     C_R   0.820860 0.083204 0.424222 -0.139110
C32   C     C_R   0.226853 0.836174 0.497499 -0.273595
H13   H     H_    0.618264 0.192690 0.541024 0.158732
H14   H     H_    0.440314 0.160960 0.536002 0.196016
H15   H     H_    0.348866 0.710570 0.388478 0.177010
C33   C     C_R   0.643395 0.677359 0.629938 0.374216
H16   H     H_    0.817322 0.692201 0.645799 0.158973
H17   H     H_    0.435214 0.707360 0.657298 0.183112
N1    N     N_R   0.749710 0.562810 0.547300 -0.222136
C34   C     C_R   0.250160 0.351187 0.389921 0.120893
C35   C     C_R   0.349049 0.319047 0.366032 -0.221313
C36   C     C_R   0.449166 0.375816 0.407087 -0.161397
C37   C     C_R   0.451417 0.465737 0.473364 0.058279
C38   C     C_R   0.347369 0.495243 0.495783 0.305262
C39   C     C_R   0.551939 0.526668 0.518537 -0.075051
C40   C     C_R   0.545989 0.615446 0.584927 0.046752
C41   C     C_R   0.442782 0.641228 0.606107 -0.249735
C42   C     C_R   0.346679 0.583157 0.562532 -0.185070
C43   C     C_R   0.658443 0.503180 0.501274 -0.019335
C44   C     C_R   0.743334 0.647150 0.610723 0.007064
N2    N     N_R   0.249640 0.437820 0.453210 -0.219959
H18   H     H_    0.670793 0.437705 0.451755 0.146211
H19   H     H_    0.172867 0.306279 0.357865 0.178452
H20   H     H_    0.522923 0.347128 0.385983 0.135051
H21   H     H_    0.348021 0.249717 0.315517 0.157792
H22   H     H_    0.273104 0.610362 0.584010 0.205808
O9    O     O_3   0.053184 0.888568 0.526863 -0.545022
C45   C     C_3   0.033130 0.881925 0.448324 0.125779
H23   H     H_    0.076483 0.829240 0.400411 0.111471
H24   H     H_    0.070613 0.969972 0.432970 0.156267
C46   C     C_3   0.895853 0.824773 0.446533 -0.799639
H25   H     H_    0.849047 0.877348 0.490134 0.249602
H26   H     H_    0.880701 0.815816 0.384125 0.182497
H27   H     H_    0.856089 0.737406 0.462505 0.262191
N3    N     N_R   0.208041 0.125819 0.567109 0.132468
O10   O     O_R   0.280183 0.233695 0.563576 -0.383692
O11   O     O_R   0.093440 0.099819 0.601386 -0.347416
O12   O     O_3   0.638349 0.762484 0.696047 -0.587844
C47   C     C_3   0.677114 0.868183 0.668914 -0.002912
H28   H     H_    0.616181 0.911295 0.706077 0.179674
H29   H     H_    0.670232 0.859007 0.603967 0.135042
C48   C     C_3   0.808452 0.946558 0.682297 -0.692459
H30   H     H_    0.871892 0.905910 0.646124 0.285205
H31   H     H_    0.837056 0.030294 0.662842 0.232135
H32   H     H_    0.814239 0.962329 0.747802 0.249037
N4    N     N_R   0.101963 0.347702 0.211857 0.114311
O13   O     O_R   0.018725 0.274201 0.257705 -0.395670
O14   O     O_R   0.195565 0.326357 0.168433 -0.376011

loop_
_geom_bond_atom_site_label_1
_geom_bond_atom_site_label_2
_geom_bond_distance
_ccdc_geom_bond_type
N3    O10   1.301582 A    
C42   H22   1.063598 S    
C9    C10   1.391898 A    
C8    C16   1.468406 S    
Cu1   Cu2   2.700737 S    
C19   C27   1.401532 A    
C38   C42   1.404216 A    
C23   C24   1.414859 A    
Cu1   O7    1.968053 S    
C16   C17   1.339783 D    
C45   C46   1.518353 S    
C20   C31   1.399418 A    
O4    C2    1.300499 A    
O7    C4    1.301196 A    
C11   H5    1.083094 S    
C21   O9    1.382464 S    
C5    C6    1.400594 A    
N4    O13   1.301583 A    
C8    C9    1.400213 A    
O5    C3    1.301262 A    
Cu1   N1    2.035558 S    
C43   H18   1.076615 S    
C2    C5    1.460009 S    
C23   H14   1.076066 S    
C40   C41   1.393711 A    
C37   C39   1.442778 A    
C13   C14   1.397132 A    
C34   N2    1.357944 A    
C29   H15   1.079326 S    
C7    H8    1.080833 S    
C22   N3    1.444300 S    
C30   H13   1.077224 S    
H16   C44   1.081929 S    
C10   H6    1.083195 S    
N1    C43   1.367361 A    
C12   C18   1.402831 A    
C11   C12   1.386685 A    
C41   C42   1.383484 A    
O3    Cu1   1.967051 S    
C9    H4    1.083536 S    
C3    C20   1.461109 S    
C28   C29   1.385443 A    
C5    C10   1.403246 A    
C24   C26   1.422335 A    
C17   H3    1.084405 S    
C39   C40   1.419428 A    
C14   C15   1.397295 A    
C19   H12   1.081757 S    
C45   H24   1.114145 S    
C47   H28   1.110502 S    
C6    C7    1.386409 A    
C25   C29   1.414333 A    
C48   H32   1.110468 S    
C6    H1    1.083545 S    
C38   N2    1.387746 A    
C35   C36   1.394400 A    
O1    C1    1.308158 A    
C21   C22   1.407216 A    
C34   C35   1.392434 A    
C47   H29   1.117460 S    
C21   C32   1.415864 A    
C46   H25   1.110265 S    
Cu2   O8    1.967051 S    
C13   N4    1.437375 S    
C7    C8    1.406090 A    
C36   H20   1.077823 S    
C13   C18   1.415133 A    
C48   H31   1.110439 S    
C33   O12   1.384359 S    
C25   C32   1.418597 A    
N1    C44   1.353855 A    
O3    C2    1.300689 A    
C26   C27   1.418694 A    
C46   H26   1.108851 S    
O8    C4    1.298957 A    
C27   C28   1.390166 A    
N4    O14   1.301314 A    
N3    O11   1.300796 A    
C34   H19   1.080432 S    
C22   C23   1.399098 A    
C35   H21   1.082541 S    
C33   C40   1.412931 A    
C14   H9    1.084081 S    
Cu1   O5    1.935729 S    
C11   C15   1.399415 A    
C24   C25   1.414538 A    
C12   H2    1.083661 S    
O1    Cu1   1.947514 S    
O2    Cu2   1.935728 S    
C45   H23   1.116947 S    
O6    C3    1.300135 A    
O4    Cu2   1.968053 S    
C15   C17   1.460575 S    
C36   C37   1.410145 A    
O2    C1    1.304724 A    
C47   C48   1.521749 S    
C33   C44   1.392398 A    
O12   C47   1.416864 S    
H10   C31   1.083260 S    
C19   C31   1.391228 A    
H17   C41   1.083175 S    
H11   C28   1.084255 S    
Cu2   N2    2.023582 S    
C1    C32   1.487046 S    
C39   C43   1.419809 A    
C48   H30   1.108362 S    
O9    C45   1.415154 S    
C16   H7    1.087146 S    
C26   C30   1.401073 A    
C46   H27   1.107431 S    
Cu2   O6    1.947515 S    
C37   C38   1.431740 A    
C4    C18   1.459564 S    
C20   C30   1.395247 A    
