data_mof_unit_55470.cif
_audit_creation_date              2012-12-10T20:39:08-0500
_audit_creation_method            fapswitch 2.2
_symmetry_space_group_name_H-M    P1
_symmetry_Int_Tables_number       1
_space_group_crystal_system       triclinic
_cell_length_a                    19.152605
_cell_length_b                    10.793091
_cell_length_c                    9.916098
_cell_angle_alpha                 90.733803
_cell_angle_beta                  92.042841
_cell_angle_gamma                 92.356572
_cell_volume                      2046.56989939

loop_
_atom_site_label
_atom_site_type_symbol
_atom_type_description
_atom_site_fract_x
_atom_site_fract_y
_atom_site_fract_z
_atom_type_partial_charge
C1    C     C_R   0.499274 0.260479 0.499453 0.883941
C2    C     C_R   0.289878 0.501042 0.495600 -0.144267
C3    C     C_R   0.928820 0.478407 0.509066 0.433336
C4    C     C_R   0.068919 0.488111 0.501716 0.409401
C5    C     C_R   0.814668 0.404609 0.594431 0.370487
C6    C     C_R   0.742309 0.411645 0.592354 -0.185069
C7    C     C_R   0.709110 0.491623 0.503913 -0.135267
C8    C     C_R   0.746956 0.559764 0.410755 -0.264755
C9    C     C_R   0.819018 0.552257 0.407907 0.424706
C10   C     C_R   0.853306 0.476975 0.502984 -0.206960
C11   C     C_R   0.474042 0.064067 0.611579 -0.090353
C12   C     C_R   0.365627 0.500134 0.498224 0.910909
C13   C     C_R   0.494285 0.128858 0.497615 -0.049445
C14   C     C_R   0.508220 0.063701 0.379002 -0.225996
C15   C     C_R   0.508051 0.935530 0.379366 -0.202645
C16   C     C_R   0.496575 0.871816 0.499705 -0.127155
C17   C     C_R   0.478007 0.937740 0.614038 -0.099606
C18   C     C_3   0.502288 0.941699 0.761211 0.787649
C19   C     C_3   0.489147 0.081233 0.760679 0.144227
C20   C     C_R   0.438752 0.489809 0.065613 0.116254
C21   C     C_R   0.558842 0.528281 0.079005 -0.198241
C22   C     C_R   0.558719 0.536578 0.936830 0.442701
C23   C     C_R   0.500211 0.739920 0.500647 0.896873
C24   C     C_R   0.439015 0.488288 0.924469 0.162484
C25   C     C_3   0.382419 0.390632 0.910243 -0.568771
C26   C     C_3   0.380486 0.392910 0.064513 0.275755
C27   C     C_R   0.634066 0.498287 0.501718 0.924652
C28   C     C_R   0.256246 0.544956 0.608211 -0.281604
C29   C     C_R   0.183510 0.544807 0.608511 0.474103
C30   C     C_R   0.144533 0.494521 0.496248 -0.155267
C31   C     C_R   0.178434 0.452772 0.380676 0.339473
C32   C     C_R   0.251072 0.455710 0.382678 -0.301439
H1    H     H_    0.286364 0.579146 0.696395 0.195200
H2    H     H_    0.520683 0.887435 0.287438 0.209236
H3    H     H_    0.440837 0.111063 0.808481 0.111580
H4    H     H_    0.605987 0.550458 0.139080 0.197594
H5    H     H_    0.334173 0.425694 0.861379 0.200537
H6    H     H_    0.400557 0.303621 0.865432 0.204174
H7    H     H_    0.332276 0.431894 0.103488 0.088924
H8    H     H_    0.277531 0.420071 0.297365 0.179859
H9    H     H_    0.711489 0.354361 0.658818 0.209285
H10   H     H_    0.719986 0.619035 0.340479 0.203300
H11   H     H_    0.521640 0.111393 0.287359 0.190736
N1    N     N_R   0.032237 0.380629 0.472120 -0.064168
N2    N     N_R   0.962964 0.375991 0.474831 -0.064158
N3    N     N_R   0.965496 0.585114 0.541403 -0.081359
N4    N     N_R   0.034668 0.589908 0.537879 -0.123133
N5    N     N_R   0.499530 0.499140 0.142800 -0.122668
N6    N     N_R   0.499530 0.499180 0.857150 -0.142041
O1    O     O_R   0.500010 0.316790 0.614690 -0.592996
O2    O     O_R   0.500000 0.316760 0.385350 -0.598493
O3    O     O_R   0.398140 0.500000 0.614710 -0.607536
O4    O     O_R   0.398130 0.499970 0.385370 -0.619456
O5    O     O_R   0.500000 0.683240 0.614650 -0.525628
O6    O     O_R   0.499990 0.683210 0.385310 -0.633413
O7    O     O_R   0.601870 0.500030 0.614630 -0.534084
O8    O     O_R   0.601860 0.500000 0.385290 -0.650655
Zn1   Zn    Zn3+2 0.500000 0.500020 0.653130 1.079366
Zn2   Zn    Zn3+2 0.500000 0.499980 0.346870 0.981593
S1    S     S_3+6 0.443813 0.857452 0.869883 -0.004320
O9    O     O_2   0.384682 0.935581 0.910534 -0.402862
O10   O     O_2   0.413001 0.742731 0.799918 -0.316223
O11   O     O_3   0.489284 0.816777 0.009427 -0.539480
H12   H     H_    0.454314 0.775565 0.066961 0.361390
O12   O     O_3   0.573942 0.914933 0.791763 -0.535202
C33   C     C_3   0.622471 0.947859 0.690839 0.123480
H13   H     H_    0.612177 0.036886 0.641101 0.161020
H14   H     H_    0.622081 0.874644 0.611432 0.147258
C34   C     C_3   0.696304 0.959316 0.753047 -0.557216
H15   H     H_    0.710967 0.871105 0.800246 0.299818
H16   H     H_    0.733940 0.982259 0.673522 0.214321
H17   H     H_    0.700184 0.034094 0.830495 0.259221
O13   O     O_3   0.549342 0.156583 0.796101 -0.595438
C35   C     C_3   0.550780 0.179671 0.937017 0.152056
H18   H     H_    0.541335 0.093189 0.995215 0.184910
H19   H     H_    0.510413 0.246374 0.961556 0.162596
C36   C     C_3   0.621613 0.236630 0.983174 -0.798474
H20   H     H_    0.638096 0.309891 0.912568 0.279482
H21   H     H_    0.618363 0.277601 0.085955 0.209171
H22   H     H_    0.661290 0.164919 0.987153 0.267448
S2    S     S_3+6 0.634287 0.615969 0.879083 0.070478
O14   O     O_2   0.618858 0.687542 0.754809 -0.240496
O15   O     O_2   0.662062 0.707054 0.986054 -0.271584
O16   O     O_3   0.696823 0.515763 0.849780 -0.581943
H23   H     H_    0.718857 0.500318 0.939555 0.363970
O17   O     O_3   0.149822 0.580746 0.723459 -0.578840
C37   C     C_3   0.166622 0.706695 0.757786 0.137059
H24   H     H_    0.117409 0.757714 0.754664 0.197906
H25   H     H_    0.202709 0.755725 0.688166 0.128115
C38   C     C_3   0.198148 0.715833 0.900918 -0.740619
H26   H     H_    0.246734 0.663299 0.908734 0.240567
H27   H     H_    0.210999 0.814461 0.928197 0.234246
H28   H     H_    0.160110 0.677522 0.973039 0.274893
O18   O     O_3   0.400688 0.281233 0.124448 -0.598086
C39   C     C_3   0.342974 0.195022 0.117304 0.114199
H29   H     H_    0.330184 0.166771 0.010656 0.185560
H30   H     H_    0.295909 0.233778 0.162170 0.177406
C40   C     C_3   0.360651 0.079837 0.195677 -0.722695
H31   H     H_    0.368561 0.103848 0.304466 0.243131
H32   H     H_    0.316970 0.009212 0.183770 0.228266
H33   H     H_    0.408763 0.040209 0.157109 0.276348
S3    S     S_3+6 0.132625 0.399912 0.230781 0.063543
O19   O     O_2   0.104679 0.269553 0.250583 -0.210739
O20   O     O_2   0.072601 0.481377 0.198818 -0.226004
O21   O     O_3   0.185966 0.400135 0.099652 -0.547572
H34   H     H_    0.201384 0.488081 0.089347 0.339580
S4    S     S_3+6 0.854836 0.305921 0.712967 0.076621
O22   O     O_2   0.882565 0.196873 0.639353 -0.221095
O23   O     O_2   0.914673 0.374660 0.787169 -0.230358
O24   O     O_3   0.797000 0.253096 0.824704 -0.548054
H35   H     H_    0.794250 0.321054 0.892081 0.376728
S5    S     S_3+6 0.864094 0.636207 0.282621 0.064082
O25   O     O_2   0.918826 0.557696 0.223916 -0.234513
O26   O     O_2   0.813929 0.672988 0.171543 -0.255649
O27   O     O_3   0.902757 0.764828 0.353785 -0.512064
H36   H     H_    0.931010 0.802314 0.281923 0.402950

loop_
_geom_bond_atom_site_label_1
_geom_bond_atom_site_label_2
_ccdc_geom_bond_type
C26   O18   S    
C33   H14   S    
C37   H24   S    
O6    Zn2   S    
O13   C35   S    
C39   H29   S    
C2    C12   S    
S5    O26   D    
S2    O14   D    
O4    Zn2   S    
C39   C40   S    
C7    C8    A    
C21   H4    S    
C36   H20   S    
C18   O12   S    
C11   C19   S    
C35   H19   S    
N5    Zn2   S    
S1    O11   S    
C2    C32   A    
C28   C29   A    
C8    H10   S    
C34   H15   S    
O5    Zn1   S    
C30   C31   A    
C26   H7    S    
O8    Zn2   S    
C33   C34   S    
O27   H36   S    
C7    C27   S    
S3    O21   S    
S1    O10   D    
C18   C19   S    
C34   H16   S    
O24   H35   S    
S2    O15   D    
C20   C24   A    
C8    C9    A    
C6    H9    S    
S4    O22   D    
C1    O1    A    
C15   H2    S    
C12   O4    A    
C21   N5    A    
C25   H5    S    
C9    S5    S    
C33   H13   S    
C21   C22   A    
S4    O23   D    
O18   C39   S    
S5    O25   D    
C12   O3    A    
C36   H21   S    
C35   H18   S    
O1    Zn1   S    
C31   S3    S    
C19   O13   S    
C24   C25   S    
C27   O8    A    
C27   O7    A    
C16   C17   A    
C4    N1    A    
C25   C26   S    
C3    N2    A    
N6    Zn1   S    
S1    O9    D    
C34   H17   S    
C22   S2    S    
C29   C30   A    
C25   H6    S    
C38   H27   S    
C31   C32   A    
C35   C36   S    
C17   C18   S    
O16   H23   S    
S3    O20   D    
C1    O2    A    
C5    S4    S    
C29   O17   S    
C20   N5    A    
O3    Zn1   S    
C22   N6    A    
C18   S1    S    
C28   H1    S    
C40   H31   S    
C16   C23   S    
C40   H32   S    
C37   H25   S    
S4    O24   S    
C1    C13   S    
S2    O16   S    
N1    N2    A    
C23   O5    A    
C9    C10   A    
C36   H22   S    
C24   N6    A    
N3    N4    A    
C11   C17   A    
O17   C37   S    
C39   H30   S    
C23   O6    A    
C6    C7    A    
C40   H33   S    
O21   H34   S    
C3    N3    A    
C38   H28   S    
C5    C10   A    
C3    C10   S    
C19   H3    S    
C11   C13   A    
C38   H26   S    
C5    C6    A    
C20   C26   S    
O7    Zn1   S    
C32   H8    S    
S3    O19   D    
O11   H12   S    
O2    Zn2   S    
O12   C33   S    
C37   C38   S    
C14   C15   A    
C2    C28   A    
C13   C14   A    
S5    O27   S    
C4    C30   S    
C15   C16   A    
C14   H11   S    
C4    N4    A    
