data_mof_unit_54447.cif
_audit_creation_date              2012-12-10T18:15:15-0500
_audit_creation_method            fapswitch 2.2
_symmetry_space_group_name_H-M    P1
_symmetry_Int_Tables_number       1
_space_group_crystal_system       triclinic
_cell_length_a                    22.395289
_cell_length_b                    22.506062
_cell_length_c                    14.669647
_cell_angle_alpha                 89.684051
_cell_angle_beta                  89.367291
_cell_angle_gamma                 90.006385
_cell_volume                      7393.37535553

loop_
_atom_site_label
_atom_site_type_symbol
_atom_type_description
_atom_site_fract_x
_atom_site_fract_y
_atom_site_fract_z
_atom_type_partial_charge
C1    C     C_R   0.080173 0.419911 0.499754 0.826681
C2    C     C_R   0.080141 0.580046 0.499520 0.825165
C3    C     C_R   0.580181 0.919919 0.499754 0.826744
C4    C     C_R   0.580135 0.080051 0.499521 0.825231
C5    C     C_1   0.159525 0.665367 0.500215 -0.107043
C6    C     C_1   0.159448 0.334262 0.499031 -0.115562
C7    C     C_1   0.659545 0.165347 0.500282 -0.107098
C8    C     C_1   0.659497 0.834310 0.499045 -0.115508
C9    C     C_1   0.835930 0.338535 0.503765 -0.105237
C10   C     C_1   0.836151 0.661332 0.500267 -0.109669
C11   C     C_1   0.335873 0.838590 0.503743 -0.105227
C12   C     C_1   0.336106 0.161286 0.500264 -0.109607
C13   C     C_1   0.874435 0.375577 0.502161 -0.188076
C14   C     C_1   0.874687 0.624428 0.500395 -0.183218
C15   C     C_1   0.374400 0.875612 0.502157 -0.188073
C16   C     C_1   0.374658 0.124399 0.500395 -0.183182
C17   C     C_3   0.934627 0.511229 0.053708 -0.169642
C18   C     C_3   0.936876 0.514948 0.945468 -0.155314
C19   C     C_3   0.018471 0.436481 0.948085 -0.168977
C20   C     C_3   0.022174 0.439562 0.056212 -0.152708
C21   C     C_3   0.434613 0.011120 0.053714 -0.169641
C22   C     C_3   0.436856 0.014846 0.945474 -0.155314
C23   C     C_3   0.518588 0.936516 0.948071 -0.168971
C24   C     C_3   0.522274 0.939592 0.056201 -0.152721
C25   C     C_3   0.999541 0.501558 0.092434 0.119722
C26   C     C_3   0.001364 0.499562 0.907611 0.117074
C27   C     C_3   0.499543 0.001551 0.092435 0.119670
C28   C     C_3   0.501370 0.999570 0.907612 0.117053
C29   C     C_3   0.045703 0.546390 0.945573 -0.379342
C30   C     C_3   0.041467 0.550416 0.051571 -0.384701
C31   C     C_3   0.545631 0.046469 0.945581 -0.379185
C32   C     C_3   0.541388 0.050479 0.051580 -0.384628
C33   C     C_1   0.000778 0.499754 0.804655 0.095234
C34   C     C_1   0.999829 0.500981 0.195377 0.092780
C35   C     C_1   0.500781 0.999760 0.804655 0.095172
C36   C     C_1   0.499831 0.000974 0.195377 0.092804
C37   C     C_R   0.919852 0.419825 0.500555 0.824556
C38   C     C_R   0.919976 0.580219 0.500145 0.826986
C39   C     C_R   0.419843 0.919833 0.500555 0.824556
C40   C     C_R   0.419969 0.080212 0.500145 0.826969
C41   C     C_3   0.816650 0.230799 0.498926 -0.400985
C42   C     C_3   0.747601 0.302613 0.421101 -0.374590
C43   C     C_3   0.800446 0.751956 0.423144 -0.396535
C44   C     C_3   0.786721 0.738949 0.592426 -0.386483
C45   C     C_3   0.316617 0.730817 0.500618 -0.400920
C46   C     C_3   0.248234 0.801990 0.420084 -0.374617
C47   C     C_3   0.300408 0.251919 0.423169 -0.396498
C48   C     C_3   0.286635 0.238867 0.592437 -0.386467
C49   C     C_3   0.200553 0.752108 0.415740 -0.399299
C50   C     C_3   0.266610 0.683611 0.498015 -0.401465
C51   C     C_3   0.239161 0.288930 0.590770 -0.396184
C52   C     C_3   0.251088 0.299949 0.424815 -0.405399
C53   C     C_3   0.699885 0.252768 0.416707 -0.399292
C54   C     C_3   0.766618 0.183617 0.496381 -0.401456
C55   C     C_3   0.739247 0.789012 0.590763 -0.396168
C56   C     C_3   0.751124 0.799986 0.424794 -0.405385
C57   C     C_1   0.123621 0.625940 0.498755 -0.185578
C58   C     C_1   0.123636 0.373872 0.499054 -0.190502
C59   C     C_1   0.623622 0.125939 0.498768 -0.185619
C60   C     C_1   0.623667 0.873903 0.499058 -0.190435
C61   C     C_3   0.788788 0.293533 0.504736 0.301291
C62   C     C_3   0.788724 0.705873 0.499905 0.304832
C63   C     C_3   0.288722 0.793595 0.504681 0.301331
C64   C     C_3   0.288669 0.205818 0.499897 0.304813
C65   C     C_3   0.203585 0.713213 0.503913 0.277634
C66   C     C_3   0.203383 0.286086 0.500233 0.281714
C67   C     C_3   0.703638 0.213159 0.504051 0.277593
C68   C     C_3   0.703440 0.786142 0.500255 0.281699
C69   C     C_3   0.193795 0.756203 0.590707 0.063158
C70   C     C_3   0.173784 0.220789 0.493113 0.064207
C71   C     C_3   0.694564 0.255438 0.591828 0.063203
C72   C     C_3   0.673837 0.720844 0.493204 0.064163
C73   C     C_3   0.752034 0.296306 0.595367 -0.412254
C74   C     C_3   0.727639 0.675788 0.481062 -0.406561
C75   C     C_3   0.251227 0.797114 0.594549 -0.412289
C76   C     C_3   0.227592 0.175733 0.481003 -0.406595
Cu1   Cu    Cu3+1 0.999990 0.500000 0.589920 0.969788
Cu2   Cu    Cu3+1 0.999990 0.500000 0.410080 0.969116
Cu3   Cu    Cu3+1 0.499990 0.000000 0.589920 0.969735
Cu4   Cu    Cu3+1 0.499990 1.000000 0.410080 0.969147
H1    H     H_    0.270978 0.659444 0.432162 0.166505
H2    H     H_    0.209047 0.724445 0.354226 0.163365
H3    H     H_    0.272695 0.343417 0.439494 0.166420
H4    H     H_    0.261820 0.332747 0.597163 0.159332
H5    H     H_    0.770442 0.159990 0.429998 0.166562
H6    H     H_    0.707879 0.225609 0.354517 0.163390
H7    H     H_    0.772736 0.843457 0.439434 0.166397
H8    H     H_    0.761907 0.832831 0.597110 0.159374
H9    H     H_    0.845098 0.227207 0.436454 0.166795
H10   H     H_    0.774829 0.302075 0.357158 0.162965
H11   H     H_    0.844804 0.773276 0.432614 0.164424
H12   H     H_    0.831220 0.758665 0.606702 0.159679
H13   H     H_    0.345577 0.726713 0.438769 0.166739
H14   H     H_    0.275979 0.800929 0.356676 0.162920
H15   H     H_    0.344763 0.273238 0.432676 0.164608
H16   H     H_    0.331129 0.258579 0.606765 0.159592
H17   H     H_    0.725644 0.346774 0.424118 0.164186
H18   H     H_    0.846017 0.222223 0.558251 0.156986
H19   H     H_    0.776665 0.707307 0.648735 0.156356
H20   H     H_    0.801722 0.729978 0.355455 0.152669
H21   H     H_    0.226265 0.846175 0.421825 0.164203
H22   H     H_    0.345486 0.722727 0.560669 0.156967
H23   H     H_    0.276558 0.207207 0.648714 0.156346
H24   H     H_    0.301703 0.229956 0.355467 0.152630
H25   H     H_    0.155529 0.771572 0.405500 0.181511
H26   H     H_    0.273032 0.647789 0.548729 0.156827
H27   H     H_    0.209434 0.285397 0.651465 0.178271
H28   H     H_    0.231398 0.307545 0.357135 0.149301
H29   H     H_    0.654774 0.272307 0.407699 0.181499
H30   H     H_    0.773456 0.147390 0.546272 0.156821
H31   H     H_    0.709539 0.785497 0.651483 0.178336
H32   H     H_    0.731419 0.807568 0.357120 0.149281
H33   H     H_    0.782284 0.281761 0.650745 0.152259
H34   H     H_    0.743100 0.342304 0.617102 0.140647
H35   H     H_    0.730147 0.658371 0.410372 0.156047
H36   H     H_    0.722051 0.633701 0.519024 0.138874
H37   H     H_    0.281012 0.783038 0.650791 0.152265
H38   H     H_    0.242113 0.843291 0.615205 0.140647
H39   H     H_    0.230124 0.158321 0.410312 0.156016
H40   H     H_    0.221995 0.133645 0.518956 0.138885
H41   H     H_    0.907666 0.477873 0.922747 0.087088
H42   H     H_    0.911176 0.468760 0.070457 0.101629
H43   H     H_    0.988806 0.406257 0.081015 0.086092
H44   H     H_    0.978800 0.408322 0.933275 0.100626
H45   H     H_    0.407708 0.977724 0.922746 0.087101
H46   H     H_    0.411230 0.968613 0.070457 0.101627
H47   H     H_    0.488951 0.906237 0.080985 0.086083
H48   H     H_    0.478971 0.908286 0.933242 0.100599
H49   H     H_    0.026101 0.595314 0.070521 0.146486
H50   H     H_    0.037598 0.590628 0.914443 0.164967
H51   H     H_    0.092151 0.535778 0.925538 0.148005
H52   H     H_    0.086663 0.547107 0.081291 0.164498
H53   H     H_    0.525950 0.095351 0.070538 0.146475
H54   H     H_    0.537448 0.090694 0.914459 0.164766
H55   H     H_    0.592098 0.035938 0.925550 0.148022
H56   H     H_    0.586589 0.047243 0.081299 0.164480
N1    N     N_1   0.000150 0.500000 0.724970 -0.149894
N2    N     N_1   0.000150 0.500000 0.275030 -0.150630
N3    N     N_1   0.500150 1.000000 0.724970 -0.149910
N4    N     N_1   0.500150 1.000000 0.275030 -0.150626
O1    O     O_R   0.060270 0.439640 0.575970 -0.568673
O2    O     O_R   0.060270 0.439640 0.424030 -0.569618
O3    O     O_R   0.060270 0.560360 0.424030 -0.572974
O4    O     O_R   0.060270 0.560360 0.575970 -0.569330
O5    O     O_R   0.560270 0.939640 0.575970 -0.568632
O6    O     O_R   0.560270 0.939640 0.424030 -0.569595
O7    O     O_R   0.560270 0.060360 0.424030 -0.572961
O8    O     O_R   0.560270 0.060360 0.575970 -0.569439
O9    O     O_R   0.939710 0.439640 0.575970 -0.575895
O10   O     O_R   0.939710 0.439640 0.424030 -0.571282
O11   O     O_R   0.939710 0.560360 0.424030 -0.569222
O12   O     O_R   0.939710 0.560360 0.575970 -0.568389
O13   O     O_R   0.439710 0.939640 0.575970 -0.575900
O14   O     O_R   0.439710 0.939640 0.424030 -0.571266
O15   O     O_R   0.439710 0.060360 0.424030 -0.569237
O16   O     O_R   0.439710 0.060360 0.575970 -0.568439
C77   C     C_R   0.188889 0.722107 0.684407 0.097247
C78   C     C_R   0.141093 0.731468 0.747474 -0.156431
C79   C     C_R   0.135646 0.697982 0.827698 -0.133943
C80   C     C_R   0.179200 0.656612 0.850390 -0.114863
C81   C     C_R   0.229541 0.650594 0.794843 -0.140065
C82   C     C_R   0.235018 0.683824 0.714382 -0.150551
H57   H     H_    0.107751 0.765360 0.737522 0.137093
H58   H     H_    0.097864 0.704871 0.873113 0.117686
H59   H     H_    0.175050 0.630921 0.912751 0.111007
H60   H     H_    0.265168 0.620978 0.815072 0.116443
H61   H     H_    0.277309 0.681483 0.679539 0.116233
C83   C     C_R   0.134848 0.793082 0.573813 0.095032
C84   C     C_R   0.133836 0.854856 0.552536 -0.152455
C85   C     C_R   0.080342 0.884399 0.534083 -0.143390
C86   C     C_R   0.026414 0.853714 0.535133 -0.115075
C87   C     C_R   0.025700 0.793196 0.554474 -0.144724
C88   C     C_R   0.078866 0.763308 0.572958 -0.178467
H62   H     H_    0.173302 0.881766 0.546420 0.116040
H63   H     H_    0.080882 0.931392 0.517880 0.123497
H64   H     H_    0.985176 0.876835 0.520699 0.114734
H65   H     H_    0.983748 0.769261 0.555683 0.125491
H66   H     H_    0.075410 0.716862 0.590700 0.145434
C89   C     C_R   0.132208 0.212317 0.408388 0.096955
C90   C     C_R   0.154253 0.220352 0.318114 -0.174137
C91   C     C_R   0.117583 0.213989 0.242333 -0.147061
C92   C     C_R   0.058293 0.196987 0.253633 -0.111303
C93   C     C_R   0.036433 0.183598 0.340417 -0.139746
C94   C     C_R   0.073106 0.189471 0.416335 -0.162931
H67   H     H_    0.200655 0.228127 0.303830 0.119236
H68   H     H_    0.135654 0.221329 0.174437 0.128111
H69   H     H_    0.029965 0.192003 0.194863 0.112091
H70   H     H_    0.991165 0.167444 0.348922 0.117611
H71   H     H_    0.054415 0.174051 0.480191 0.134883
C95   C     C_R   0.137298 0.209572 0.584385 0.094121
C96   C     C_R   0.085222 0.243755 0.602751 -0.170761
C97   C     C_R   0.052741 0.237546 0.683995 -0.116469
C98   C     C_R   0.071303 0.197525 0.750349 -0.114799
C99   C     C_R   0.122766 0.164131 0.735970 -0.156712
C100  C     C_R   0.155609 0.170030 0.654809 -0.153444
H72   H     H_    0.067601 0.273867 0.552288 0.135799
H73   H     H_    0.012807 0.263727 0.695185 0.127923
H74   H     H_    0.046109 0.192790 0.813358 0.112681
H75   H     H_    0.137787 0.133835 0.788513 0.121823
H76   H     H_    0.195910 0.144230 0.651637 0.112885
C101  C     C_R   0.690410 0.220588 0.684935 0.097276
C102  C     C_R   0.643126 0.229448 0.749071 -0.156451
C103  C     C_R   0.638324 0.195320 0.828741 -0.134209
C104  C     C_R   0.682056 0.153764 0.849810 -0.114647
C105  C     C_R   0.731945 0.148186 0.793203 -0.140089
C106  C     C_R   0.736775 0.182060 0.713292 -0.150670
H77   H     H_    0.609712 0.263417 0.740401 0.137128
H78   H     H_    0.600918 0.201851 0.874998 0.117556
H79   H     H_    0.678408 0.127576 0.911745 0.110740
H80   H     H_    0.767728 0.118407 0.812187 0.116544
H81   H     H_    0.778780 0.179995 0.677610 0.116291
C107  C     C_R   0.635487 0.292450 0.576765 0.095058
C108  C     C_R   0.634318 0.354388 0.556719 -0.152486
C109  C     C_R   0.580677 0.384082 0.539854 -0.143469
C110  C     C_R   0.526750 0.353397 0.541323 -0.115105
C111  C     C_R   0.526181 0.292727 0.559495 -0.144659
C112  C     C_R   0.579494 0.262688 0.576390 -0.178620
H82   H     H_    0.673739 0.381344 0.550383 0.116008
H83   H     H_    0.581096 0.431200 0.524559 0.123459
H84   H     H_    0.485400 0.376634 0.528117 0.114766
H85   H     H_    0.484235 0.268788 0.561030 0.125693
H86   H     H_    0.576171 0.216105 0.593299 0.145699
C113  C     C_R   0.632222 0.712356 0.408529 0.096979
C114  C     C_R   0.654224 0.720384 0.318231 -0.174024
C115  C     C_R   0.617513 0.714025 0.242494 -0.147118
C116  C     C_R   0.558226 0.697027 0.253867 -0.111285
C117  C     C_R   0.536410 0.683643 0.340678 -0.139656
C118  C     C_R   0.573122 0.689517 0.416551 -0.162919
H87   H     H_    0.700621 0.728150 0.303892 0.119217
H88   H     H_    0.635550 0.721360 0.174577 0.128042
H89   H     H_    0.529868 0.692045 0.195131 0.112059
H90   H     H_    0.491144 0.667494 0.349238 0.117567
H91   H     H_    0.554462 0.674104 0.480432 0.134854
C119  C     C_R   0.637394 0.709644 0.584522 0.094121
C120  C     C_R   0.585330 0.743834 0.602934 -0.170717
C121  C     C_R   0.552898 0.737654 0.684229 -0.116459
C122  C     C_R   0.571498 0.697653 0.750586 -0.114863
C123  C     C_R   0.622947 0.664247 0.736156 -0.156733
C124  C     C_R   0.655741 0.670117 0.654944 -0.153454
H92   H     H_    0.567680 0.773931 0.552475 0.135793
H93   H     H_    0.512974 0.763843 0.695457 0.127885
H94   H     H_    0.546343 0.692943 0.813637 0.112637
H95   H     H_    0.637996 0.633964 0.788698 0.121799
H96   H     H_    0.696036 0.644309 0.651732 0.112873
C125  C     C_R   0.081410 0.420402 0.099996 0.137711
C126  C     C_R   0.079636 0.382758 0.177230 -0.151386
C127  C     C_R   0.131913 0.367752 0.223035 -0.108479
C128  C     C_R   0.187016 0.388550 0.191235 -0.131268
C129  C     C_R   0.189825 0.425130 0.114281 -0.150976
C130  C     C_R   0.137542 0.441446 0.069472 -0.109079
H97   H     H_    0.037461 0.366266 0.203874 0.121005
H98   H     H_    0.129526 0.340483 0.283840 0.150774
H99   H     H_    0.227527 0.376706 0.226474 0.114417
H100  H     H_    0.232577 0.441429 0.089764 0.121550
H101  H     H_    0.141554 0.470334 0.011040 0.122564
C131  C     C_R   0.069168 0.400429 0.903636 0.125280
C132  C     C_R   0.073627 0.339779 0.927534 -0.151299
C133  C     C_R   0.120269 0.304698 0.894091 -0.113974
C134  C     C_R   0.162569 0.329001 0.834366 -0.096883
C135  C     C_R   0.158075 0.388378 0.807515 -0.140823
C136  C     C_R   0.111959 0.424051 0.841831 -0.131412
H102  H     H_    0.041451 0.319911 0.974202 0.108356
H103  H     H_    0.123725 0.258623 0.914876 0.118450
H104  H     H_    0.198955 0.301808 0.809336 0.114381
H105  H     H_    0.190818 0.407043 0.760677 0.122294
H106  H     H_    0.111216 0.469774 0.820005 0.121182
C137  C     C_R   0.909918 0.571110 0.901833 0.145367
C138  C     C_R   0.867983 0.564898 0.831382 -0.154805
C139  C     C_R   0.843072 0.614809 0.789257 -0.114628
C140  C     C_R   0.859322 0.671706 0.816938 -0.117853
C141  C     C_R   0.900548 0.678777 0.886591 -0.149835
C142  C     C_R   0.925750 0.629044 0.928657 -0.111113
H107  H     H_    0.854797 0.521274 0.808212 0.111684
H108  H     H_    0.811158 0.609313 0.735051 0.116721
H109  H     H_    0.839940 0.710380 0.784680 0.112372
H110  H     H_    0.912941 0.722939 0.908287 0.121497
H111  H     H_    0.956700 0.636430 0.983004 0.120216
C143  C     C_R   0.893214 0.557175 0.099157 0.126180
C144  C     C_R   0.831561 0.553321 0.081279 -0.140578
C145  C     C_R   0.791002 0.593023 0.120731 -0.124999
C146  C     C_R   0.811076 0.637085 0.179376 -0.117355
C147  C     C_R   0.871770 0.641590 0.198454 -0.132099
C148  C     C_R   0.912655 0.602187 0.158814 -0.125742
H112  H     H_    0.814860 0.519338 0.036185 0.110699
H113  H     H_    0.743895 0.589481 0.105953 0.121051
H114  H     H_    0.779585 0.667679 0.210095 0.109501
H115  H     H_    0.887250 0.675710 0.244256 0.122195
H116  H     H_    0.958860 0.607730 0.176149 0.114992
C149  C     C_R   0.581532 0.920511 0.099994 0.137744
C150  C     C_R   0.579805 0.882822 0.177178 -0.151383
C151  C     C_R   0.632099 0.867866 0.222977 -0.108626
C152  C     C_R   0.687174 0.888766 0.191224 -0.131229
C153  C     C_R   0.689937 0.925396 0.114321 -0.150927
C154  C     C_R   0.637635 0.941657 0.069515 -0.109072
H117  H     H_    0.537652 0.866250 0.203786 0.120996
H118  H     H_    0.629746 0.840554 0.283739 0.150689
H119  H     H_    0.727696 0.876961 0.226462 0.114422
H120  H     H_    0.732668 0.941774 0.089839 0.121516
H121  H     H_    0.641611 0.970578 0.011115 0.122472
C155  C     C_R   0.569361 0.900569 0.903620 0.125290
C156  C     C_R   0.573933 0.839922 0.927489 -0.151307
C157  C     C_R   0.620650 0.804937 0.894046 -0.113834
C158  C     C_R   0.662915 0.829335 0.834353 -0.097034
C159  C     C_R   0.658308 0.888707 0.807525 -0.140797
C160  C     C_R   0.612114 0.924283 0.841835 -0.131416
H122  H     H_    0.541789 0.819983 0.974134 0.108314
H123  H     H_    0.624193 0.758865 0.914809 0.118495
H124  H     H_    0.699362 0.802219 0.809328 0.114333
H125  H     H_    0.691021 0.907445 0.760709 0.122367
H126  H     H_    0.611282 0.970005 0.820016 0.121290
C161  C     C_R   0.409804 0.070967 0.901854 0.145302
C162  C     C_R   0.367878 0.064695 0.831402 -0.154796
C163  C     C_R   0.342874 0.114571 0.789306 -0.114652
C164  C     C_R   0.359020 0.171491 0.817019 -0.118040
C165  C     C_R   0.400237 0.178621 0.886670 -0.149721
C166  C     C_R   0.425533 0.128925 0.928703 -0.111082
H127  H     H_    0.354769 0.021052 0.808212 0.111719
H128  H     H_    0.310968 0.109030 0.735101 0.116741
H129  H     H_    0.339565 0.210137 0.784791 0.112349
H130  H     H_    0.412549 0.222800 0.908389 0.121604
H131  H     H_    0.456473 0.136354 0.983049 0.120247
C167  C     C_R   0.393126 0.056996 0.099176 0.126167
C168  C     C_R   0.331479 0.053043 0.081308 -0.140570
C169  C     C_R   0.290856 0.092674 0.120782 -0.125002
C170  C     C_R   0.310861 0.136761 0.179438 -0.117390
C171  C     C_R   0.371549 0.141364 0.198503 -0.132105
C172  C     C_R   0.412497 0.102034 0.158842 -0.125735
H132  H     H_    0.314830 0.019038 0.036207 0.110718
H133  H     H_    0.243754 0.089055 0.106012 0.121071
H134  H     H_    0.279323 0.167297 0.210179 0.109573
H135  H     H_    0.386976 0.175505 0.244312 0.122194
H136  H     H_    0.458693 0.107654 0.176168 0.114979

loop_
_geom_bond_atom_site_label_1
_geom_bond_atom_site_label_2
_ccdc_geom_bond_type
C87   H65   S    
Cu3   N3    S    
C125  C130  A    
C77   C78   A    
C6    C58   T    
C113  C114  A    
C75   H37   S    
C24   C27   S    
C41   C61   S    
C163  H128  S    
C127  H98   S    
C128  C129  A    
C147  C148  A    
C122  H94   S    
C32   H53   S    
C44   H19   S    
C141  C142  A    
C4    O8    A    
C25   C30   S    
C55   H8    S    
C9    C13   T    
C145  H113  S    
C20   H43   S    
C35   N3    T    
C11   C15   T    
C19   C20   S    
C33   N1    T    
C169  C170  A    
C24   H47   S    
C84   H62   S    
C171  C172  A    
C24   C149  S    
C44   H12   S    
C25   C34   S    
Cu4   O6    S    
C21   C22   S    
C152  H119  S    
C7    C59   T    
C55   C68   S    
C102  C103  A    
C39   O14   A    
C96   C97   A    
C42   H17   S    
C47   C64   S    
C71   C73   S    
C164  C165  A    
C156  C157  A    
C73   H34   S    
C51   C66   S    
C49   H2    S    
C93   C94   A    
C14   C38   S    
C137  C142  A    
C158  C159  A    
C68   C72   S    
C15   C39   S    
Cu3   O8    S    
C16   C40   S    
C83   C84   A    
C78   C79   A    
C155  C156  A    
C70   C95   S    
C53   H29   S    
C146  H114  S    
C47   H24   S    
C48   H16   S    
C55   H31   S    
C148  H116  S    
C113  C118  A    
C47   C52   S    
C30   H49   S    
C115  H88   S    
C17   C25   S    
C69   C83   S    
C136  H106  S    
C114  H87   S    
C44   C55   S    
C66   C70   S    
C45   C50   S    
Cu1   O1    S    
C45   H22   S    
C17   H42   S    
C107  C108  A    
C51   H27   S    
C98   C99   A    
C20   C25   S    
C21   H46   S    
C93   H70   S    
C77   C82   A    
C41   H18   S    
C23   C155  S    
C160  H126  S    
C50   H1    S    
C23   H48   S    
C155  C160  A    
C41   H9    S    
C95   C96   A    
C2    O4    A    
C120  H92   S    
C37   O10   A    
C45   H13   S    
C2    C57   S    
C165  H130  S    
C153  C154  A    
C139  H108  S    
C9    C61   S    
C11   C63   S    
C42   C53   S    
C12   C64   S    
C70   C89   S    
C85   C86   A    
C121  C122  A    
C54   H30   S    
C132  C133  A    
C153  H120  S    
C1    O2    A    
C96   H72   S    
C29   H50   S    
C28   C35   S    
C69   C77   S    
C23   C24   S    
C22   C161  S    
C147  H115  S    
C122  C123  A    
C31   H54   S    
Cu1   O12   S    
Cu2   O11   S    
C149  C150  A    
C126  H97   S    
C141  H110  S    
C46   H21   S    
C12   C16   T    
C145  C146  A    
C10   C14   T    
C128  H99   S    
C22   H45   S    
C169  H133  S    
C56   C68   S    
C48   H23   S    
C123  H95   S    
C34   N2    T    
C42   H10   S    
C121  H93   S    
C29   C30   S    
Cu3   O13   S    
C26   C33   S    
C31   C32   S    
C46   H14   S    
C79   H58   S    
C120  C121  A    
C17   C18   S    
C23   C28   S    
C118  H91   S    
C95   C100  A    
C78   H57   S    
C20   C125  S    
C3    O5    A    
C143  C148  A    
C38   O11   A    
Cu4   O15   S    
C89   C94   A    
C164  H129  S    
C126  C127  A    
C140  H109  S    
C17   C143  S    
C125  C126  A    
C135  C136  A    
C91   H68   S    
C158  H124  S    
C86   H64   S    
C46   C63   S    
C102  H77   S    
C133  C134  A    
C154  H121  S    
C29   H51   S    
C63   C75   S    
C105  H80   S    
C30   H52   S    
C74   H35   S    
C99   C100  A    
C53   C67   S    
C50   C65   S    
C7    C67   S    
C165  C166  A    
C104  C105  A    
C116  C117  A    
C143  C144  A    
C131  C136  A    
C18   C26   S    
C86   C87   A    
C114  C115  A    
C81   C82   A    
C91   C92   A    
C46   C49   S    
C39   O13   A    
Cu1   N1    S    
Cu2   O2    S    
C18   C137  S    
C48   C64   S    
C107  C112  A    
C98   H74   S    
C73   H33   S    
C150  C151  A    
C101  C102  A    
C19   C26   S    
C111  H85   S    
C104  H79   S    
C144  C145  A    
C40   O15   A    
C3    C60   S    
C167  C168  A    
C21   C27   S    
C129  H100  S    
C22   C28   S    
C139  C140  A    
C10   C62   S    
C75   H38   S    
C85   H63   S    
C159  H125  S    
C132  H102  S    
C43   H20   S    
C72   C74   S    
C134  H104  S    
Cu1   O9    S    
C32   H56   S    
C49   H25   S    
C61   C73   S    
Cu4   N4    S    
C4    O7    A    
C157  H123  S    
C168  C169  A    
C52   H3    S    
C79   C80   A    
C108  C109  A    
C108  H82   S    
C129  C130  A    
C170  H134  S    
C76   H40   S    
C97   H73   S    
C31   H55   S    
C166  H131  S    
C119  C120  A    
C52   C66   S    
C90   C91   A    
C103  H78   S    
C112  H86   S    
C123  C124  A    
C27   C32   S    
C28   C31   S    
C37   O9    A    
Cu4   O14   S    
C27   C36   S    
C149  C154  A    
C5    C57   T    
C137  C138  A    
C80   H59   S    
C151  H118  S    
C8    C60   T    
C72   C113  S    
C163  C164  A    
C156  H122  S    
C65   C69   S    
C69   C75   S    
C101  C106  A    
C67   C71   S    
C170  C171  A    
C1    O1    A    
C18   H41   S    
C89   C90   A    
C19   C131  S    
C138  C139  A    
C71   C107  S    
C50   H26   S    
C140  C141  A    
C62   C74   S    
C135  H105  S    
C1    C58   S    
C51   H4    S    
C92   C93   A    
C43   C62   S    
C161  C162  A    
C142  H111  S    
C84   C85   A    
C133  H103  S    
C110  C111  A    
Cu3   O5    S    
C105  C106  A    
C162  C163  A    
C49   C65   S    
C88   H66   S    
C152  C153  A    
C109  H83   S    
C172  H136  S    
C116  H89   S    
C168  H132  S    
Cu3   O16   S    
C106  H81   S    
Cu4   O7    S    
C117  C118  A    
C138  H107  S    
C124  H96   S    
C97   C98   A    
C13   C37   S    
C81   H60   S    
Cu1   Cu2   S    
C92   H69   S    
C151  C152  A    
C117  H90   S    
C161  C166  A    
C2    O3    A    
Cu2   N2    S    
C38   O12   A    
C48   C51   S    
C83   C88   A    
C19   H44   S    
C76   H39   S    
C150  H117  S    
C111  C112  A    
C5    C65   S    
C109  C110  A    
C56   H7    S    
C54   C67   S    
C44   C62   S    
C146  C147  A    
C144  H112  S    
C45   C63   S    
C43   H11   S    
C82   H61   S    
C21   C167  S    
C167  C172  A    
C74   H36   S    
C131  C132  A    
C115  C116  A    
C64   C76   S    
C36   N4    T    
C42   C61   S    
C53   H6    S    
C26   C29   S    
C159  C160  A    
C8    C68   S    
C110  H84   S    
C70   C76   S    
C134  C135  A    
C87   C88   A    
Cu2   O10   S    
C100  H76   S    
C130  H101  S    
C71   C101  S    
C157  C158  A    
C94   H71   S    
C54   H5    S    
C127  C128  A    
C80   C81   A    
Cu1   O4    S    
Cu2   O3    S    
C4    C59   S    
C72   C119  S    
C119  C124  A    
C41   C54   S    
C90   H67   S    
Cu3   Cu4   S    
C99   H75   S    
C43   C56   S    
C6    C66   S    
C52   H28   S    
C3    O6    A    
C171  H135  S    
C47   H15   S    
C162  H127  S    
C40   O16   A    
C103  C104  A    
C56   H32   S    
