data_mof_unit_38819.cif
_audit_creation_date              2012-12-10T19:01:21-0500
_audit_creation_method            fapswitch 2.2
_symmetry_space_group_name_H-M    P1
_symmetry_Int_Tables_number       1
_space_group_crystal_system       triclinic
_cell_length_a                    9.540424
_cell_length_b                    10.89806
_cell_length_c                    15.598388
_cell_angle_alpha                 89.491084
_cell_angle_beta                  74.002983
_cell_angle_gamma                 91.41078
_cell_volume                      1558.31524647

loop_
_atom_site_label
_atom_site_type_symbol
_atom_type_description
_atom_site_fract_x
_atom_site_fract_y
_atom_site_fract_z
_atom_type_partial_charge
C1    C     C_R   0.997058 0.263009 0.502536 0.799072
C2    C     C_R   0.660219 0.540796 0.900243 0.086656
C3    C     C_R   0.750126 0.612214 0.940812 0.124266
C4    C     C_R   0.507760 0.522460 0.945268 -0.089792
C5    C     C_R   0.459419 0.552326 0.037922 0.005648
C6    C     C_R   0.554065 0.621225 0.075924 -0.139269
C7    C     C_R   0.694996 0.653309 0.027286 -0.166939
C8    C     C_R   0.399019 0.480249 0.903488 0.376103
C9    C     C_R   0.259045 0.447689 0.955303 -0.245004
C10   C     C_R   0.217100 0.463463 0.046466 0.057886
C11   C     C_R   0.316012 0.515999 0.089368 0.092147
C12   C     C_R   0.917382 0.502091 0.672084 0.798019
C13   C     C_R   0.074577 0.428738 0.094798 -0.159908
C14   C     C_R   0.029591 0.442334 0.186487 -0.095453
C15   C     C_R   0.268657 0.526313 0.182949 -0.220265
C16   C     C_R   0.091572 0.067346 0.536710 0.020139
C17   C     C_R   0.991424 0.130969 0.505937 -0.060958
C18   C     C_R   0.890633 0.062534 0.473720 -0.216758
C19   C     C_R   0.896448 0.934105 0.471579 -0.151915
C20   C     C_R   0.005090 0.871541 0.499384 -0.127628
C21   C     C_R   0.106430 0.943805 0.528687 0.047194
C22   C     C_3   0.240727 0.954499 0.563697 0.491326
C23   C     C_R   0.002010 0.737880 0.500109 0.833159
C24   C     C_3   0.212126 0.092194 0.577173 -0.494314
C25   C     C_R   0.606029 0.552125 0.430286 0.196312
C26   C     C_R   0.546525 0.429169 0.558570 0.048723
C27   C     C_R   0.396574 0.431435 0.560290 0.001126
C28   C     C_R   0.458846 0.548638 0.429339 0.153019
C29   C     C_3   0.464690 0.675110 0.394487 -0.522793
C30   C     C_3   0.621597 0.683741 0.399303 0.278284
C31   C     C_R   0.082144 0.498071 0.328306 0.840356
C32   C     C_R   0.869942 0.525040 0.768552 -0.070513
C33   C     C_R   0.126520 0.490511 0.231030 -0.038448
C34   C     C_R   0.895267 0.642255 0.894309 -0.202113
C35   C     C_R   0.952463 0.603080 0.807336 -0.151128
C36   C     C_R   0.729386 0.486855 0.818206 -0.143447
Cu1   Cu    Cu3+1 0.140670 0.499980 0.500000 0.949640
Cu2   Cu    Cu3+1 0.859330 0.500020 0.500000 1.007022
H1    H     H_    0.762714 0.708437 0.058501 0.173515
H2    H     H_    0.998129 0.389752 0.061678 0.146144
H3    H     H_    0.809229 0.107684 0.449044 0.162937
H4    H     H_    0.817343 0.884584 0.446452 0.184955
H5    H     H_    0.170355 0.119491 0.647992 0.188135
H6    H     H_    0.298304 0.155311 0.536233 0.195843
H7    H     H_    0.581900 0.370983 0.604157 0.199733
H8    H     H_    0.316804 0.377919 0.610211 0.185787
H9    H     H_    0.450409 0.677701 0.326160 0.223511
H10   H     H_    0.341186 0.558206 0.220554 0.145389
H11   H     H_    0.388624 0.731282 0.443178 0.234253
H12   H     H_    0.636384 0.748000 0.451001 0.077418
H13   H     H_    0.920425 0.411616 0.222859 0.177136
H14   H     H_    0.179323 0.411102 0.923618 0.198487
H15   H     H_    0.962721 0.699996 0.924049 0.150181
H16   H     H_    0.058875 0.637011 0.769518 0.185915
H17   H     H_    0.676013 0.415632 0.790953 0.214437
H18   H     H_    0.520194 0.656793 0.142480 0.174884
N1    N     N_R   0.648210 0.500930 0.499430 -0.234793
N2    N     N_R   0.352300 0.500890 0.499430 -0.212937
O1    O     O_R   0.118810 0.319640 0.500000 -0.587362
O2    O     O_R   0.881230 0.319680 0.499990 -0.606032
O3    O     O_R   0.055580 0.499970 0.629840 -0.581172
O4    O     O_R   0.818000 0.500010 0.629830 -0.533811
O5    O     O_R   0.118770 0.680320 0.500010 -0.599202
O6    O     O_R   0.881190 0.680360 0.500000 -0.567444
O7    O     O_R   0.182000 0.499990 0.370170 -0.591221
O8    O     O_R   0.944420 0.500030 0.370160 -0.538876
N3    N     N_2   0.225261 0.890514 0.648573 -0.453112
H19   H     H_    0.122307 0.892092 0.692562 0.233956
C37   C     C_3   0.297072 0.775013 0.648866 -0.595795
H20   H     H_    0.288504 0.747454 0.718773 0.237790
H21   H     H_    0.414972 0.783491 0.613462 0.231176
H22   H     H_    0.244579 0.702468 0.618336 0.261282
N4    N     N_2   0.381246 0.936213 0.498195 -0.445627
H23   H     H_    0.469150 0.962172 0.521032 0.256438
C38   C     C_3   0.400197 0.974058 0.405972 -0.695302
H24   H     H_    0.511266 0.951130 0.365750 0.275481
H25   H     H_    0.388562 0.074515 0.400014 0.227249
H26   H     H_    0.320405 0.924691 0.377710 0.247806
S1    S     S_3+6 0.747873 0.708432 0.291448 -0.036294
O9    O     O_2   0.898897 0.730179 0.300959 -0.308062
O10   O     O_2   0.745620 0.598651 0.234207 -0.331591
O11   O     O_3   0.699622 0.832493 0.242637 -0.571863
H27   H     H_    0.780555 0.847779 0.187890 0.366880
S2    S     S_3+6 0.415673 0.478783 0.787740 -0.082234
O12   O     O_2   0.456401 0.351168 0.756721 -0.348783
O13   O     O_2   0.271442 0.504444 0.771107 -0.346173
O14   O     O_3   0.538828 0.583483 0.729908 -0.534684
H28   H     H_    0.511483 0.661707 0.761169 0.336203

loop_
_geom_bond_atom_site_label_1
_geom_bond_atom_site_label_2
_ccdc_geom_bond_type
C31   O8    A    
O14   H28   S    
C16   C21   A    
N4    H23   S    
C19   C20   A    
S2    O14   S    
C4    C8    A    
C14   C33   A    
C29   H11   S    
C25   C28   A    
C26   C27   A    
Cu1   Cu2   S    
C29   H9    S    
C32   C36   A    
C28   C29   S    
S2    O13   D    
C5    C11   A    
C3    C7    A    
C1    O1    A    
C5    C6    A    
C34   C35   A    
C37   H21   S    
C13   H2    S    
C26   H7    S    
C11   C15   A    
Cu2   O8    S    
C8    C9    A    
Cu1   O7    S    
C31   C33   S    
C9    C10   A    
Cu1   N2    S    
C19   H4    S    
C23   O5    A    
C30   H12   S    
C16   C24   S    
C21   C22   S    
C12   C32   S    
C35   H16   S    
N4    C38   S    
C9    H14   S    
C25   N1    A    
C15   H10   S    
Cu1   O5    S    
Cu2   O6    S    
N3    H19   S    
C32   C35   A    
S2    O12   D    
C18   H3    S    
S1    O10   D    
C18   C19   A    
C3    C34   A    
C10   C13   A    
N3    C37   S    
C26   N1    A    
C37   H22   S    
C2    C4    A    
C38   H24   S    
C29   C30   S    
Cu2   N1    S    
C12   O4    A    
C14   H13   S    
C20   C23   S    
C17   C18   A    
C38   H25   S    
Cu1   O1    S    
Cu2   O2    S    
C30   S1    S    
C27   H8    S    
C23   O6    A    
C24   H6    S    
C22   C24   S    
C1    O2    A    
C2    C36   A    
C25   C30   S    
C31   O7    A    
C8    S2    S    
C6    H18   S    
C4    C5    A    
C27   N2    A    
S1    O11   S    
Cu1   O3    S    
C6    C7    A    
C28   N2    A    
C1    C17   S    
C2    C3    A    
C36   H17   S    
C12   O3    A    
C16   C17   A    
C37   H20   S    
C38   H26   S    
C22   N3    S    
C10   C11   A    
S1    O9    D    
C20   C21   A    
C34   H15   S    
O11   H27   S    
C24   H5    S    
C7    H1    S    
C22   N4    S    
C13   C14   A    
C15   C33   A    
Cu2   O4    S    
