data_mof_unit_64601.cif
_audit_creation_date              2013-03-05T16:14:37-0500
_audit_creation_method            fapswitch 2.2
_symmetry_space_group_name_H-M    P1
_symmetry_Int_Tables_number       1
_space_group_crystal_system       triclinic
_cell_length_a                    10.920464
_cell_length_b                    14.252172
_cell_length_c                    13.334748
_cell_angle_alpha                 90.075519
_cell_angle_beta                  90.060238
_cell_angle_gamma                 89.840513
_cell_volume                      2075.41361353

loop_
_atom_site_label
_atom_site_type_symbol
_atom_site_description
_atom_site_fract_x
_atom_site_fract_y
_atom_site_fract_z
_atom_type_partial_charge
O1    O     O_R   0.500000 0.373720 0.576470 -0.588582
O2    O     O_R   0.500000 0.373720 0.423530 -0.585772
C1    C     C_R   0.499236 0.326522 0.499937 1.024736
O3    O     O_R   0.314810 0.499990 0.576450 -0.557463
O4    O     O_R   0.314810 0.499990 0.423550 -0.572283
O5    O     O_R   0.685190 0.499990 0.576450 -0.565110
O6    O     O_R   0.685190 0.499990 0.423550 -0.560564
C2    C     C_R   0.254769 0.501380 0.500013 1.147445
C3    C     C_R   0.745174 0.494615 0.500482 1.159287
Zn1   Zn    Zn3+2 0.500000 0.500010 0.602090 1.172352
Zn2   Zn    Zn3+2 0.500000 0.500010 0.397910 1.153069
O7    O     O_R   0.500000 0.626290 0.576440 -0.582569
O8    O     O_R   0.500000 0.626290 0.423560 -0.612668
C4    C     C_R   0.500334 0.673501 0.500031 1.010879
C5    C     C_3   0.072932 0.545379 0.607034 0.259560
C6    C     C_3   0.079008 0.388212 0.487262 0.230231
C7    C     C_3   0.926024 0.554287 0.600615 0.237163
C8    C     C_3   0.929452 0.382984 0.501093 0.266764
C9    C     C_3   0.069135 0.558485 0.406902 0.513950
C10   C     C_3   0.925914 0.545843 0.401493 0.511631
C11   C     C_3   0.120570 0.498298 0.501466 -0.587313
C12   C     C_3   0.879900 0.492606 0.502032 -0.586136
C13   C     C_1   0.499370 0.225914 0.499834 -0.037019
C14   C     C_1   0.499480 0.141355 0.499847 0.094195
C15   C     C_1   0.499633 0.042307 0.499930 0.103869
C16   C     C_1   0.499782 0.957735 0.500015 0.102428
C17   C     C_1   0.499972 0.858682 0.500092 0.089120
C18   C     C_1   0.500137 0.774117 0.500102 -0.051478
N1    N     N_1   0.500000 0.499980 0.261870 -0.026859
N2    N     N_1   0.500000 0.499980 0.738130 -0.021079
C19   C     C_1   0.500021 0.499975 0.169350 0.250631
C20   C     C_1   0.500063 0.499977 0.830651 0.270336
C21   C     C_1   0.500048 0.499975 0.049531 0.048141
C22   C     C_1   0.500066 0.499976 0.950465 0.048052
N3    N     N_R   0.126700 0.639647 0.630102 0.276632
O9    O     O_R   0.089349 0.683223 0.710508 -0.210475
O10   O     O_R   0.231095 0.667294 0.594010 -0.356568
N4    N     N_R   0.123385 0.357190 0.385736 0.248812
O11   O     O_R   0.236729 0.329826 0.376073 -0.333351
O12   O     O_R   0.054477 0.347868 0.306879 -0.212039
N5    N     N_R   0.879478 0.652770 0.587190 0.237535
O13   O     O_R   0.766337 0.671734 0.610635 -0.344191
O14   O     O_R   0.946450 0.723741 0.560640 -0.218137
N6    N     N_R   0.877186 0.322961 0.420285 0.265865
O15   O     O_R   0.920063 0.237814 0.412267 -0.225246
O16   O     O_R   0.765800 0.334838 0.388300 -0.340864
N7    N     N_R   0.112172 0.486086 0.694081 0.258857
O17   O     O_R   0.052101 0.412868 0.723528 -0.244701
O18   O     O_R   0.201980 0.513241 0.751654 -0.281794
N8    N     N_R   0.140226 0.319649 0.555575 0.255721
O19   O     O_R   0.229255 0.341634 0.615643 -0.336923
O20   O     O_R   0.128888 0.230625 0.534797 -0.235228
N9    N     N_R   0.876693 0.528315 0.701732 0.262795
O21   O     O_R   0.811702 0.454562 0.721066 -0.279332
O22   O     O_R   0.898118 0.584441 0.776861 -0.236284
N10   N     N_R   0.883844 0.334198 0.592905 0.262915
O23   O     O_R   0.949125 0.274940 0.644170 -0.193567
O24   O     O_R   0.766035 0.321428 0.599735 -0.346662
Cl1   Cl    Cl    0.115374 0.679561 0.411316 -0.362159
Cl2   Cl    Cl    0.139227 0.534429 0.285608 -0.349915
Cl3   Cl    Cl    0.847232 0.655955 0.376638 -0.383823
Cl4   Cl    Cl    0.878090 0.487280 0.287187 -0.336818

loop_
_geom_bond_atom_site_label_1
_geom_bond_atom_site_label_2
_geom_bond_distance
_ccdc_geom_bond_type
O5    Zn1   2.051412 S    
O4    C2    1.212935 A    
N8    O20   1.304535 A    
C13   C14   1.205144 T    
C19   C21   1.597753 S    
C14   C15   1.411649 S    
O4    Zn2   2.051415 S    
C6    C11   1.645151 S    
C7    C12   1.659105 S    
C8    N6    1.489196 S    
C9    Cl2   1.821862 S    
N5    O14   1.299595 A    
N5    O13   1.302356 A    
Zn1   N2    1.814060 S    
C1    C13   1.433877 S    
C9    C10   1.576445 S    
C8    N10   1.495275 S    
O3    C2    1.211521 A    
C4    C18   1.433996 S    
O6    C3    1.218963 A    
O5    C3    1.209163 A    
C2    C11   1.466438 S    
O7    C4    1.221767 A    
N7    O18   1.304145 A    
O1    C1    1.221590 A    
C8    C12   1.652023 S    
O8    C4    1.220983 A    
N6    O15   1.303822 A    
N2    C20   1.233740 T    
Zn2   O8    1.831533 S    
C16   C17   1.411715 S    
Zn1   O7    1.832419 S    
O2    Zn2   1.832487 S    
C5    N3    1.499131 S    
N4    O12   1.299300 A    
N10   O24   1.303141 A    
C21   C22   1.321022 T    
O2    C1    1.221686 A    
N9    O22   1.302571 A    
C10   Cl4   1.813864 S    
N4    O11   1.303174 A    
C6    N8    1.492999 S    
C7    N5    1.502323 S    
C3    C12   1.471597 S    
C10   C12   1.622277 S    
O3    Zn1   2.050706 S    
C10   Cl3   1.817757 S    
C7    N9    1.499767 S    
C5    C11   1.643068 S    
N10   O23   1.298453 A    
Zn2   N1    1.814059 S    
C6    C8    1.645698 S    
N3    O10   1.300290 A    
C17   C18   1.205234 T    
C5    C7    1.611161 S    
C5    N7    1.498207 S    
O6    Zn2   2.050703 S    
N8    O19   1.297840 A    
C9    Cl1   1.800188 S    
C15   C16   1.205328 T    
N1    C19   1.233732 T    
N6    O16   1.299275 A    
O1    Zn1   1.831602 S    
N7    O17   1.295714 A    
N9    O21   1.296264 A    
C6    N4    1.503926 S    
C9    C11   1.624832 S    
N3    O9    1.303615 A    
C20   C22   1.597693 S    
