data_mof_unit_21638.cif
_audit_creation_date              2012-12-10T18:43:10-0500
_audit_creation_method            fapswitch 2.2
_symmetry_space_group_name_H-M    P1
_symmetry_Int_Tables_number       1
_space_group_crystal_system       triclinic
_cell_length_a                    10.711949
_cell_length_b                    9.947107
_cell_length_c                    10.700343
_cell_angle_alpha                 90.974026
_cell_angle_beta                  91.747455
_cell_angle_gamma                 90.080129
_cell_volume                      1139.45560961

loop_
_atom_site_label
_atom_site_type_symbol
_atom_type_description
_atom_site_fract_x
_atom_site_fract_y
_atom_site_fract_z
_atom_type_partial_charge
C1    C     C_R   0.260213 0.499941 0.501028 0.851822
C2    C     C_R   0.935051 0.380274 0.476812 -0.212341
C3    C     C_R   0.872307 0.500523 0.500285 -0.003454
C4    C     C_R   0.127534 0.500012 0.502477 -0.007044
C5    C     C_R   0.936801 0.620801 0.524864 -0.196153
C6    C     C_R   0.064795 0.620666 0.525287 -0.192068
C7    C     C_R   0.570959 0.071036 0.587181 0.154794
C8    C     C_R   0.438260 0.066168 0.405813 0.139433
C9    C     C_R   0.566449 0.928300 0.588175 -0.087566
C10   C     C_R   0.433386 0.923955 0.412294 -0.119059
C11   C     C_3   0.663108 0.136440 0.679782 -0.400248
C12   C     C_R   0.739739 0.500107 0.500002 0.854477
C13   C     C_3   0.799491 0.091524 0.659776 -0.372973
C14   C     C_3   0.851727 0.005753 0.766377 -0.882712
C15   C     C_3   0.398957 0.118292 0.277706 -0.376709
C16   C     C_3   0.269663 0.183820 0.270849 -0.310942
C17   C     C_3   0.217415 0.187878 0.136498 -0.919616
C18   C     C_R   0.499124 0.498942 0.262766 0.928404
C19   C     C_R   0.505762 0.501029 0.737361 0.929881
C20   C     C_2   0.536538 0.390813 0.933041 -0.164816
C21   C     C_2   0.545439 0.395248 0.067617 -0.170712
C22   C     C_2   0.526232 0.504529 0.869298 -0.336824
C23   C     C_2   0.493552 0.496487 0.130442 -0.320802
C24   C     C_R   0.062834 0.379610 0.480064 -0.201406
H1    H     H_    0.536052 0.292782 0.887110 0.163507
H2    H     H_    0.382771 0.864905 0.341406 0.142390
H3    H     H_    0.849733 0.063080 0.856307 0.262233
H4    H     H_    0.797329 0.911633 0.774665 0.253198
H5    H     H_    0.950088 0.978637 0.747958 0.250142
H6    H     H_    0.808538 0.035775 0.569518 0.219842
H7    H     H_    0.860034 0.182017 0.655381 0.223517
H8    H     H_    0.663126 0.245501 0.672961 0.245285
H9    H     H_    0.633964 0.113440 0.775906 0.180729
H10   H     H_    0.282395 0.243008 0.076542 0.277078
H11   H     H_    0.203128 0.084312 0.098203 0.261585
H12   H     H_    0.591629 0.312559 0.114992 0.154160
H13   H     H_    0.125988 0.240436 0.134662 0.255142
H14   H     H_    0.203764 0.126736 0.328217 0.204559
H15   H     H_    0.275784 0.288644 0.304605 0.259148
H16   H     H_    0.472892 0.179126 0.238404 0.214094
H17   H     H_    0.395984 0.032742 0.209144 0.166991
H18   H     H_    0.536666 0.603026 0.913685 0.151908
H19   H     H_    0.444099 0.578555 0.085554 0.143729
H20   H     H_    0.110281 0.285359 0.464180 0.148319
H21   H     H_    0.885810 0.287064 0.455666 0.153406
H22   H     H_    0.888841 0.714434 0.544048 0.159119
H23   H     H_    0.114163 0.714327 0.544175 0.158153
H24   H     H_    0.619318 0.873185 0.657832 0.149872
N1    N     N_R   0.500000 0.857200 0.500000 -0.108519
N2    N     N_R   0.500000 0.142810 0.500000 -0.109803
O1    O     O_R   0.316770 0.614620 0.499990 -0.620319
O2    O     O_R   0.683230 0.614620 0.500010 -0.621694
O3    O     O_R   0.316800 0.385290 0.500000 -0.633012
O4    O     O_R   0.683200 0.385290 0.500000 -0.644437
O5    O     O_R   0.500000 0.614630 0.319080 -0.618482
O6    O     O_R   0.500000 0.614630 0.680920 -0.622163
O7    O     O_R   0.500030 0.385300 0.319080 -0.628546
O8    O     O_R   0.499970 0.385300 0.680920 -0.634348
Zn1   Zn    Zn3+2 0.500000 0.653120 0.500000 0.937114
Zn2   Zn    Zn3+2 0.500000 0.346880 0.500000 0.922735

loop_
_geom_bond_atom_site_label_1
_geom_bond_atom_site_label_2
_ccdc_geom_bond_type
C19   O6    A    
O2    Zn1   S    
O5    Zn1   S    
C14   H3    S    
C11   C13   S    
C5    H22   S    
C18   O7    A    
N1    Zn1   S    
O6    Zn1   S    
C1    C4    S    
N2    Zn2   S    
C10   H2    S    
C2    C3    A    
C23   H19   S    
C2    H21   S    
C21   H12   S    
O4    Zn2   S    
C13   C14   S    
C7    C11   S    
C1    O1    A    
C17   H10   S    
C22   H18   S    
C18   O5    A    
C4    C24   A    
C8    C10   A    
C12   O2    A    
O3    Zn2   S    
C20   C22   D    
C11   H8    S    
C8    C15   S    
C21   C23   D    
C19   O8    A    
C2    C24   A    
C5    C6    A    
C24   H20   S    
C15   H16   S    
C16   H15   S    
O1    Zn1   S    
C20   H1    S    
C14   H5    S    
O8    Zn2   S    
C18   C23   S    
C8    N2    A    
C13   H6    S    
C11   H9    S    
C19   C22   S    
C9    N1    A    
C20   C21   S    
C15   H17   S    
C9    H24   S    
C4    C6    A    
C6    H23   S    
C7    C9    A    
C1    O3    A    
O7    Zn2   S    
C17   H13   S    
C3    C12   S    
C17   H11   S    
C14   H4    S    
C10   N1    A    
C13   H7    S    
C12   O4    A    
C15   C16   S    
C7    N2    A    
C16   H14   S    
C16   C17   S    
C3    C5    A    
