data_mof_unit_40375.cif
_audit_creation_date              2013-03-05T15:48:00-0500
_audit_creation_method            fapswitch 2.2
_symmetry_space_group_name_H-M    P1
_symmetry_Int_Tables_number       1
_space_group_crystal_system       triclinic
_cell_length_a                    8.36326
_cell_length_b                    19.268234
_cell_length_c                    27.11942
_cell_angle_alpha                 96.656054
_cell_angle_beta                  92.719025
_cell_angle_gamma                 85.254357
_cell_volume                      4322.66587648

loop_
_atom_site_label
_atom_site_type_symbol
_atom_site_description
_atom_site_fract_x
_atom_site_fract_y
_atom_site_fract_z
_atom_type_partial_charge
P1    P     P_3+3 0.082480 0.557670 0.610090 0.441981
O1    O     O_2   0.913240 0.537010 0.617740 -0.393332
O2    O     O_3   0.145240 0.536960 0.557560 -0.390289
O3    O     O_3   0.669960 0.410470 0.588880 -0.392957
O4    O     O_2   0.830581 0.446817 0.673125 -0.398587
O5    O     O_3   0.056564 0.649553 0.615982 -0.611190
O6    O     O_3   0.629721 0.353388 0.678889 -0.536644
H1    H     H_    0.788793 0.300743 0.627574 0.159851
C1    C     C_3   0.691229 0.228480 0.669961 -0.424739
H2    H     H_    0.729079 0.184053 0.641911 0.176340
H3    H     H_    0.786675 0.233343 0.699872 0.204466
P2    P     P_3+3 0.635220 0.340300 0.462910 0.491280
P3    P     P_3+3 0.113179 0.284679 0.566897 0.441814
O7    O     O_2   0.812980 0.329910 0.477500 -0.303809
O8    O     O_3   0.078660 0.374870 0.564770 -0.403979
O9    O     O_2   0.974752 0.249564 0.536228 -0.371045
O10   O     O_3   0.618113 0.313284 0.398564 -0.667386
O11   O     O_3   0.090021 0.267591 0.628001 -0.538098
C2    C     C_3   0.171262 0.316944 0.659941 0.409376
H4    H     H_    0.120669 0.371083 0.655573 0.132464
H5    H     H_    0.301606 0.312011 0.652603 0.061469
C3    C     C_3   0.149922 0.304597 0.713508 -0.969799
H6    H     H_    0.219059 0.341646 0.738878 0.240157
H7    H     H_    0.021009 0.313343 0.722362 0.270943
C4    C     C_3   0.216770 0.318527 0.413488 0.949218
H8    H     H_    0.320671 0.348146 0.427552 -0.043235
C5    C     C_3   0.280280 0.244930 0.392121 -0.432136
H9    H     H_    0.361441 0.249534 0.361668 0.158020
H10   H     H_    0.353172 0.218971 0.421004 0.145177
Ba1   Ba    Ba6+2 0.854000 0.466860 0.523710 1.567758
C6    C     C_3   0.172588 0.678726 0.649651 0.173367
H11   H     H_    0.204780 0.727847 0.636195 0.113962
H12   H     H_    0.286255 0.645005 0.651879 0.120895
C7    C     C_3   0.102301 0.697290 0.700878 -0.017131
H13   H     H_    0.000890 0.738325 0.699187 0.113450
H14   H     H_    0.054149 0.650337 0.712792 0.207103
C8    C     C_3   0.662796 0.361314 0.366964 1.241236
C9    C     C_3   0.559499 0.352763 0.318485 -0.427356
H15   H     H_    0.595378 0.389047 0.292636 0.174085
H16   H     H_    0.432121 0.367553 0.327432 0.201452
P4    P     P_3+3 0.107220 0.442270 0.389900 0.497559
O12   O     O_2   0.276450 0.462960 0.382230 -0.350398
O13   O     O_3   0.044470 0.462980 0.442430 -0.445907
O14   O     O_3   0.519740 0.589470 0.411120 -0.314912
O15   O     O_3   0.131706 0.350860 0.375662 -0.570857
P5    P     P_3+3 0.079420 0.718499 0.437263 0.434014
O16   O     O_3   0.632420 0.583650 0.524140 -0.384698
O17   O     O_3   0.111040 0.625070 0.435230 -0.440941
O18   O     O_2   0.235513 0.749754 0.459412 -0.386994
O19   O     O_3   0.066513 0.739257 0.375887 -0.534483
Ba2   Ba    Ba6+2 0.335820 0.533080 0.476290 1.553155
P6    P     P_3+3 0.659782 0.430674 0.653397 0.468328
C10   C     C_3   0.672389 0.295344 0.644297 0.337914
H17   H     H_    0.577602 0.289838 0.614363 0.054417
O20   O     O_3   0.557280 0.416300 0.475860 -0.370633
C11   C     C_3   0.654948 0.653981 0.632147 0.331500
H18   H     H_    0.650294 0.596469 0.623941 0.140974
H19   H     H_    0.769396 0.671550 0.621137 0.118245
C12   C     C_3   0.643022 0.673482 0.687935 -0.990509
H20   H     H_    0.529351 0.657261 0.700902 0.271945
H21   H     H_    0.745110 0.646419 0.707619 0.240827
H22   H     H_    0.647263 0.731038 0.697179 0.265023
P7    P     P_3+3 0.554606 0.672104 0.543395 0.453651
O21   O     O_2   0.376710 0.670070 0.522470 -0.308168
O22   O     O_3   0.525826 0.687305 0.607350 -0.579739
H23   H     H_    0.193608 0.250068 0.719375 0.261062
C13   C     C_3   0.104622 0.677781 0.344075 0.473660
H24   H     H_    0.224562 0.654446 0.354126 0.164771
H25   H     H_    0.019125 0.637865 0.346986 0.073977
C14   C     C_3   0.101232 0.694461 0.290563 -0.951562
H26   H     H_    0.132654 0.645855 0.265594 0.260358
H27   H     H_    0.979572 0.716360 0.279514 0.261219
H28   H     H_    0.189113 0.733301 0.286464 0.260218
P8    P     P_3+3 0.535697 0.579174 0.345669 0.496704
C15   C     C_3   0.564879 0.715869 0.337789 1.129128
O23   O     O_2   0.394873 0.535379 0.325887 -0.343249
O24   O     O_3   0.477689 0.657581 0.319587 -0.629678
H29   H     H_    0.657121 0.802116 0.303734 0.254842
C16   C     C_3   0.574656 0.759857 0.294054 -1.032815
H30   H     H_    0.453911 0.783678 0.283850 0.233576
H31   H     H_    0.621416 0.726268 0.260982 0.276733
C17   C     C_R   0.123610 0.489135 0.185880 0.516611
O25   O     O_2   0.231818 0.489148 0.217694 -0.574659
N1    N     N_R   0.963620 0.496496 0.199466 -0.154420
C18   C     C_R   0.845540 0.495223 0.161306 0.631431
C19   C     C_2   0.777919 0.539634 0.267917 0.376722
C20   C     C_3   0.720581 0.528237 0.318947 0.124223
C21   C     C_1   0.987331 0.482569 0.340295 0.365646
C22   C     C_2   0.022245 0.469444 0.292127 -0.276796
C23   C     C_2   0.918268 0.503322 0.252283 0.045089
C24   C     C_R   0.043101 0.494626 0.098352 -0.062783
C25   C     C_R   0.163509 0.482200 0.134907 -0.077317
C26   C     C_R   0.320460 0.463058 0.119523 -0.048460
C27   C     C_R   0.882990 0.503764 0.112216 -0.074714
C28   C     C_2   0.860327 0.523034 0.355027 -0.486028
H32   H     H_    0.118035 0.429919 0.281369 0.190323
H33   H     H_    0.415362 0.450814 0.146386 0.203712
C29   C     C_2   0.357860 0.493177 0.639576 -0.390423
C30   C     C_R   0.272906 0.469219 0.980501 0.085414
C31   C     C_R   0.006061 0.528345 0.963867 -0.066706
C32   C     C_R   0.158552 0.499426 0.946989 0.020421
C33   C     C_R   0.417093 0.435900 0.960949 -0.226722
C34   C     C_R   0.448256 0.433213 0.910542 -0.079580
C35   C     C_R   0.340611 0.466375 0.877692 -0.025885
C36   C     C_R   0.197711 0.501170 0.896315 -0.069553
C37   C     C_R   0.094523 0.537992 0.864338 -0.086732
C38   C     C_R   0.138435 0.542239 0.814901 0.589547
N2    N     N_R   0.274455 0.504265 0.795363 -0.165849
C39   C     C_R   0.372548 0.464781 0.826542 0.494213
C40   C     C_2   0.466174 0.504538 0.727871 -0.141872
C41   C     C_3   0.504978 0.502784 0.673191 0.156515
C42   C     C_1   0.215575 0.515512 0.656054 0.245311
C43   C     C_2   0.180747 0.508991 0.702520 -0.299275
C44   C     C_2   0.311977 0.505545 0.742646 0.145042
O26   O     O_2   0.486569 0.427097 0.809848 -0.589588
C45   C     C_R   0.239243 0.473629 0.032148 0.041661
C46   C     C_R   0.082025 0.495905 0.047647 0.081407
C47   C     C_R   0.961919 0.517732 0.012717 0.067935
C48   C     C_R   0.356061 0.455899 0.069090 -0.228091
H34   H     H_    0.565600 0.507723 0.754976 0.171119
H35   H     H_    0.559556 0.405968 0.897531 0.162386
H36   H     H_    0.506349 0.409267 0.983550 0.125793
H37   H     H_    0.477730 0.438047 0.060183 0.129437
O27   O     O_2   0.708091 0.484328 0.169509 -0.589970
C49   C     C_R   0.762858 0.518413 0.076279 -0.145819
H38   H     H_    0.638536 0.526738 0.086170 0.170666
C50   C     C_R   0.906534 0.568609 0.931799 0.498386
C51   C     C_R   0.951593 0.572347 0.882808 -0.247009
O28   O     O_2   0.055915 0.580969 0.789672 -0.604843
C52   C     C_R   0.801072 0.525440 0.027654 -0.120957
H39   H     H_    0.873909 0.603109 0.859033 0.175705
H40   H     H_    0.057868 0.504537 0.711337 0.212311
H41   H     H_    0.701131 0.533086 0.001718 0.187098
H42   H     H_    0.839794 0.535191 0.393940 0.164655
H43   H     H_    0.370039 0.468411 0.601710 0.165961
C53   C     C_R   0.402480 0.301534 0.523930 -0.487478
C54   C     C_R   0.543094 0.279155 0.499205 0.300999
C55   C     C_R   0.600564 0.208089 0.496724 -0.276019
C56   C     C_R   0.513118 0.158751 0.516742 0.009234
C57   C     C_R   0.366360 0.182319 0.539007 -0.271114
C58   C     C_R   0.310607 0.253243 0.542027 0.287292
C59   C     C_R   0.565339 0.046452 0.555532 -0.189997
C60   C     C_R   0.616121 0.975112 0.554190 -0.176305
C61   C     C_R   0.677199 0.937705 0.510805 0.133709
C62   C     C_R   0.684590 0.973323 0.468589 -0.221343
C63   C     C_R   0.628925 0.044870 0.468688 0.186356
C64   C     C_R   0.570917 0.082452 0.513342 0.067115
C65   C     C_R   0.865345 0.833090 0.481930 -0.319091
C66   C     C_R   0.897585 0.760467 0.471282 0.267222
C67   C     C_R   0.660518 0.740940 0.516276 0.242764
C68   C     C_R   0.627901 0.813859 0.527018 -0.309119
C69   C     C_R   0.726131 0.860785 0.507869 0.058140
C70   C     C_R   0.787695 0.716880 0.485990 -0.141498
H44   H     H_    0.524667 0.833672 0.548469 0.149122
H45   H     H_    0.609085 0.949315 0.587345 0.125291
H46   H     H_    0.521235 0.073877 0.589918 0.138073
H47   H     H_    0.711292 0.191190 0.478227 0.177391
H48   H     H_    0.727659 0.943677 0.434921 0.151256
H49   H     H_    0.945294 0.867806 0.468835 0.158189
H50   H     H_    0.293742 0.145454 0.552983 0.150231
H51   H     H_    0.359222 0.356238 0.526289 0.152946
N3    N     N_2   0.149017 0.203453 0.372791 -0.065627
H52   H     H_    0.158954 0.182803 0.336134 0.184981
C71   C     C_3   0.100526 0.153943 0.404387 -0.768967
H53   H     H_    0.988999 0.131429 0.388391 0.229811
H54   H     H_    0.075842 0.180181 0.442188 0.291576
H55   H     H_    0.196273 0.110824 0.406993 0.214704
O29   O     O_3   0.221044 0.720226 0.735773 -0.705816
H56   H     H_    0.241069 0.768318 0.729178 0.329047
O30   O     O_3   0.824812 0.347095 0.355492 -0.794062
H57   H     H_    0.850744 0.295668 0.353830 0.322690
O31   O     O_3   0.634994 0.431075 0.387682 -0.729962
H58   H     H_    0.727409 0.441804 0.410732 0.330901
N4    N     N_2   0.575074 0.281342 0.294439 -0.106685
H59   H     H_    0.689627 0.264917 0.283368 0.196266
C72   C     C_3   0.454818 0.265400 0.255582 -0.876928
H60   H     H_    0.465891 0.297701 0.224690 0.262068
H61   H     H_    0.332437 0.275575 0.270404 0.253601
H62   H     H_    0.471774 0.209132 0.240979 0.244691
N5    N     N_2   0.541446 0.215548 0.690768 -0.080582
H63   H     H_    0.498470 0.255871 0.716265 0.246497
C73   C     C_3   0.540305 0.147939 0.708882 -0.866340
H64   H     H_    0.626890 0.144297 0.741026 0.252833
H65   H     H_    0.572139 0.105210 0.679062 0.247108
H66   H     H_    0.418188 0.141065 0.720992 0.244134
O32   O     O_3   0.720729 0.695783 0.355048 -0.787890
H67   H     H_    0.775456 0.670655 0.325896 0.301098
N6    N     N_2   0.477919 0.756895 0.377891 -0.082630
H68   H     H_    0.355888 0.761406 0.371009 0.197000
C74   C     C_3   0.535598 0.823885 0.397059 -0.909088
H69   H     H_    0.482551 0.841589 0.433499 0.274519
H70   H     H_    0.497562 0.863863 0.371578 0.234829
H71   H     H_    0.668181 0.819777 0.401361 0.276255
O33   O     O_3   0.693515 0.584520 0.238181 -0.728622
H72   H     H_    0.579355 0.587079 0.246434 0.372458
O34   O     O_3   0.773846 0.609497 0.949891 -0.765783
H73   H     H_    0.718524 0.634079 0.922966 0.322491
N7    N     N_2   0.622503 0.078787 0.424206 -0.115016
H74   H     H_    0.518201 0.109659 0.418446 0.173236
C75   C     C_3   0.689325 0.042892 0.379049 -0.936460
H75   H     H_    0.684838 0.079769 0.350345 0.256646
H76   H     H_    0.618295 0.998065 0.364768 0.254188
H77   H     H_    0.817039 0.024558 0.385858 0.257024
N8    N     N_2   0.816803 0.645202 0.474785 -0.119082
H78   H     H_    0.832598 0.630503 0.437800 0.182140
C76   C     C_3   0.933311 0.618094 0.509506 -0.496708
H79   H     H_    0.979278 0.566613 0.492993 0.284339
H80   H     H_    0.879102 0.616231 0.545109 0.224882
H81   H     H_    0.035201 0.651441 0.518699 0.224529
O35   O     O_3   0.114183 0.312264 0.451511 -0.715499
H82   H     H_    0.120201 0.355065 0.475121 0.338739

loop_
_geom_bond_atom_site_label_1
_geom_bond_atom_site_label_2
_geom_bond_distance
_ccdc_geom_bond_type
Ba1   Ba2   4.608924 S    
P7    O22   1.749907 S    
C74   H69   1.108244 S    
C43   H40   1.078568 S    
C4    O15   1.397200 S    
C5    H10   1.109261 S    
C31   C50   1.425476 A    
P4    O12   1.531608 D    
C36   C37   1.403753 A    
C2    H4    1.110014 S    
C76   H81   1.111056 S    
C31   C32   1.423062 A    
C38   O28   1.220516 D    
C8    O31   1.400772 S    
C62   C63   1.417846 A    
C10   H17   1.109761 S    
C11   H18   1.108246 S    
P5    O18   1.549037 D    
C56   C64   1.502898 S    
C8    C9    1.538682 S    
P8    O23   1.544840 D    
P3    O11   1.749115 S    
O3    P6    1.752393 S    
P1    Ba1   3.373263 S    
C71   H53   1.109639 S    
C2    H5    1.111758 S    
O6    P6    1.753812 S    
C7    H13   1.113703 S    
P1    C42   1.845565 S    
O16   P7    1.800953 S    
C35   C39   1.421432 A    
C76   H80   1.091488 S    
C9    N4    1.451341 S    
O30   H57   0.992954 S    
C54   C55   1.408325 A    
C11   O22   1.395383 S    
C37   C51   1.402494 A    
C17   C25   1.426059 A    
N2    C39   1.395275 Am   
C18   O27   1.220644 D    
N6    C74   1.446628 S    
P1    O1    1.531370 D    
C68   H44   1.082228 S    
N2    C44   1.481571 S    
C66   C70   1.396147 A    
N4    H59   1.031137 S    
C42   C43   1.328974 D    
C74   H71   1.106665 S    
C5    N3    1.453306 S    
C40   C41   1.528933 S    
C49   C52   1.395681 A    
C72   H62   1.110299 S    
C3    H23   1.110146 S    
C15   N6    1.455038 S    
C75   H75   1.110556 S    
C67   C70   1.390613 A    
C20   C28   1.492739 S    
P2    O10   1.764822 S    
C38   N2    1.392762 Am   
C6    H12   1.109481 S    
O4    P6    1.544624 D    
C14   H26   1.110794 S    
C8    O30   1.402374 S    
P3    C58   1.842150 S    
P8    C20   1.889348 S    
C1    H2    1.112974 S    
C40   C44   1.366404 D    
Ba2   O20   2.792855 S    
O12   Ba2   2.787599 S    
C70   N8    1.383163 S    
C21   C22   1.342751 D    
C72   H61   1.111362 S    
O33   H72   0.986917 S    
C21   C28   1.314063 D    
C50   O34   1.382117 S    
C12   H20   1.109720 S    
P4    O13   1.539021 S    
C33   C34   1.398031 A    
N1    C23   1.487432 S    
O7    Ba1   2.827322 S    
C7    O29   1.401268 S    
C3    H6    1.110861 S    
C35   C36   1.406774 A    
N5    C73   1.445457 S    
N3    C71   1.447486 S    
C53   H51   1.081414 S    
O17   Ba2   2.761020 S    
C32   C36   1.432550 A    
P5    O17   1.792583 S    
C12   H21   1.110606 S    
C29   C42   1.312273 D    
C63   C64   1.421479 A    
P1    O5    1.755320 S    
Ba1   O16   2.793601 S    
C2    C3    1.520051 S    
C57   C58   1.401391 A    
C19   C23   1.374627 D    
C40   H34   1.084213 S    
C24   C25   1.405200 A    
C16   H31   1.110416 S    
O2    Ba2   2.771099 S    
C76   H79   1.087434 S    
C53   C54   1.393701 A    
O16   Ba2   2.930511 S    
P6    C41   1.868215 S    
C4    H8    1.107421 S    
P7    O21   1.568909 D    
C29   H43   1.086688 S    
P8    O24   1.764064 S    
C28   H42   1.072957 S    
O3    Ba1   2.766439 S    
C13   H24   1.100222 S    
N6    H68   1.027113 S    
P1    O2    1.539047 S    
C65   H49   1.082711 S    
C63   N7    1.433869 S    
O2    Ba1   2.940173 S    
P7    C67   1.888642 S    
C53   C58   1.398931 A    
C47   C52   1.414362 A    
C1    H3    1.112329 S    
C18   C27   1.412940 A    
C60   H45   1.082800 S    
C6    H11   1.110407 S    
C68   C69   1.426306 A    
C30   C33   1.414601 A    
C14   H28   1.109349 S    
C24   C46   1.431461 A    
C6    C7    1.526756 S    
O10   C8    1.414902 S    
N1    C18   1.395693 Am   
O14   P8    1.773195 S    
C73   H64   1.111331 S    
C15   O24   1.417610 S    
N7    H74   1.030492 S    
C1    N5    1.449478 S    
O14   Ba2   2.765820 S    
O29   H56   0.992793 S    
C30   C32   1.423876 A    
P2    O7    1.523182 D    
O35   H82   0.986924 S    
C17   N1    1.396238 Am   
P3    O8    1.745085 S    
C49   H38   1.080573 S    
C3    H7    1.110645 S    
Ba1   O13   2.770759 S    
C15   O32   1.402989 S    
C31   C47   1.433475 A    
O6    C10   1.407404 S    
C50   C51   1.409447 A    
C34   H35   1.083468 S    
C51   H39   1.083630 S    
C26   H33   1.081832 S    
C30   C45   1.433205 A    
O31   H58   0.990698 S    
C19   C20   1.531068 S    
O8    Ba1   2.760408 S    
C43   C44   1.511450 S    
O19   C13   1.405582 S    
C27   C49   1.401023 A    
C13   H25   1.104287 S    
P4    C21   1.844805 S    
C72   H60   1.111567 S    
C12   H22   1.111401 S    
C74   H70   1.110883 S    
C29   C41   1.507095 S    
C73   H65   1.110197 S    
P2    Ba1   3.396064 S    
H29   C16   1.110751 S    
C59   C64   1.409557 A    
P2    C54   1.855126 S    
C71   H55   1.111142 S    
Ba2   O21   2.827551 S    
C65   C69   1.422330 A    
N8    C76   1.432358 S    
O34   H73   0.991675 S    
H1    C10   1.110771 S    
N7    C75   1.447426 S    
C56   C57   1.411303 A    
C11   C12   1.521976 S    
C48   H37   1.076200 S    
N3    H52   1.031591 S    
Ba1   O20   2.931297 S    
P5    O19   1.752789 S    
C45   C48   1.416389 A    
O1    Ba1   2.786945 S    
C61   C62   1.407622 A    
C13   C14   1.520803 S    
C22   H32   1.084726 S    
C71   H54   1.109847 S    
O32   H67   0.988863 S    
C61   C69   1.498623 S    
C46   C47   1.419634 A    
C19   O33   1.379606 S    
C24   C27   1.399589 A    
C9    H16   1.110495 S    
C62   H48   1.079796 S    
C55   H47   1.082375 S    
O13   Ba2   2.941013 S    
C9    H15   1.112895 S    
C75   H77   1.110724 S    
C73   H66   1.110278 S    
C25   C26   1.403305 A    
C11   H19   1.106376 S    
C45   C46   1.416675 A    
O5    C6    1.406581 S    
C7    H14   1.106994 S    
C65   C66   1.401960 A    
C4    O35   1.394226 S    
N4    C72   1.446308 S    
P2    O20   1.561158 S    
C55   C56   1.416208 A    
C39   O26   1.221345 D    
C16   H30   1.110501 S    
C52   H41   1.078386 S    
P5    C66   1.890602 S    
C1    C10   1.527402 S    
N8    H78   1.021863 S    
C75   H76   1.111046 S    
C17   O25   1.220359 D    
C37   C38   1.419901 A    
P3    O9    1.548422 D    
C34   C35   1.404671 A    
C59   C60   1.401597 A    
O11   C2    1.405825 S    
P4    O15   1.755958 S    
C67   C68   1.408051 A    
C14   H27   1.110151 S    
C26   C48   1.402285 A    
C59   H46   1.082142 S    
C22   C23   1.526540 S    
C33   H36   1.078125 S    
C15   C16   1.544540 S    
P4    Ba2   3.374007 S    
C57   H50   1.082911 S    
N5    H63   1.031389 S    
C60   C61   1.401532 A    
C5    H9    1.109396 S    
C4    C5    1.530680 S    
