data_mof_unit_54406.cif
_audit_creation_date              2012-12-10T16:52:59-0500
_audit_creation_method            fapswitch 2.2
_symmetry_space_group_name_H-M    P1
_symmetry_Int_Tables_number       1
_space_group_crystal_system       triclinic
_cell_length_a                    7.776521
_cell_length_b                    8.620155
_cell_length_c                    11.514835
_cell_angle_alpha                 90.840048
_cell_angle_beta                  85.594983
_cell_angle_gamma                 93.209038
_cell_volume                      768.366273958

loop_
_atom_site_label
_atom_site_type_symbol
_atom_type_description
_atom_site_fract_x
_atom_site_fract_y
_atom_site_fract_z
_atom_type_partial_charge
C1    C     C_R   0.544726 0.794092 0.498215 0.846648
C2    C     C_2   0.434661 0.044014 0.488989 0.172585
C3    C     C_3   0.729424 0.975632 0.674691 0.117900
C4    C     C_3   0.664586 0.104691 0.756760 -0.344869
C5    C     C_3   0.678183 0.063687 0.884098 -0.962821
C6    C     C_3   0.308265 0.973131 0.320276 0.101473
C7    C     C_3   0.205590 0.095021 0.264802 -0.337178
C8    C     C_3   0.224760 0.083949 0.132069 -0.963769
C9    C     C_R   0.455309 0.205882 0.502375 0.873704
C10   C     C_R   0.501532 0.500092 0.717950 0.869811
C11   C     C_R   0.498432 0.499806 0.282049 0.873771
C12   C     C_1   0.503738 0.499218 0.838259 -0.187471
C13   C     C_1   0.495875 0.499294 0.161741 -0.185468
C14   C     C_1   0.501714 0.498786 0.940587 -0.007259
C15   C     C_1   0.497618 0.498832 0.059414 -0.008520
C16   C     C_2   0.565373 0.956031 0.515115 0.158751
H1    H     H_    0.013486 0.381142 0.414346 0.196397
H2    H     H_    0.257866 0.855835 0.293639 0.182085
H3    H     H_    0.446460 0.984390 0.285096 0.091114
H4    H     H_    0.066720 0.078188 0.295253 0.243298
H5    H     H_    0.252565 0.212871 0.291920 0.224746
H6    H     H_    0.362391 0.104335 0.099803 0.268010
H7    H     H_    0.148557 0.173573 0.094717 0.273215
H8    H     H_    0.176463 0.967569 0.102122 0.267770
H9    H     H_    0.986481 0.618874 0.585642 0.197006
H10   H     H_    0.867729 0.961061 0.687519 0.176156
H11   H     H_    0.659557 0.862799 0.698946 0.103600
H12   H     H_    0.742882 0.214163 0.736949 0.253320
H13   H     H_    0.527464 0.123748 0.743162 0.199740
H14   H     H_    0.597293 0.956505 0.906813 0.266135
H15   H     H_    0.631926 0.160243 0.941001 0.271908
H16   H     H_    0.814534 0.045541 0.900409 0.267981
N1    N     N_2   0.950330 0.457960 0.469510 -0.158084
N2    N     N_2   0.049670 0.542040 0.530490 -0.159317
O1    O     O_R   0.389250 0.738570 0.507480 -0.586879
O2    O     O_3   0.283789 0.983998 0.443455 -0.619583
O3    O     O_R   0.610750 0.261430 0.492520 -0.582424
O4    O     O_R   0.678390 0.711630 0.487940 -0.607115
O5    O     O_R   0.321610 0.288370 0.512060 -0.608190
O6    O     O_R   0.355420 0.513450 0.675320 -0.608009
O7    O     O_R   0.644580 0.486550 0.324680 -0.607787
O8    O     O_R   0.644570 0.486510 0.655780 -0.633712
O9    O     O_R   0.355430 0.513490 0.344220 -0.634981
O10   O     O_3   0.718352 0.018170 0.557045 -0.620121
Zn1   Zn    Zn3+2 0.306940 0.517990 0.513050 0.962051
Zn2   Zn    Zn3+2 0.693060 0.482010 0.486950 0.964380

loop_
_geom_bond_atom_site_label_1
_geom_bond_atom_site_label_2
_ccdc_geom_bond_type
C8    H6    S    
O7    Zn2   S    
C11   O9    A    
C6    C7    S    
C6    H3    S    
C10   O8    A    
C11   C13   S    
C16   O10   S    
C4    H13   S    
H9    N2    S    
O5    Zn1   S    
C5    H16   S    
C3    H11   S    
N1    N2    D    
C7    C8    S    
C1    C16   S    
N1    Zn2   S    
O9    Zn1   S    
H1    N1    S    
C1    O4    A    
C10   C12   S    
C9    O3    A    
C8    H8    S    
C6    O2    S    
C11   O7    A    
C13   C15   T    
O6    Zn1   S    
C6    H2    S    
C3    O10   S    
O4    Zn2   S    
C3    C4    S    
O1    Zn1   S    
C9    O5    A    
C8    H7    S    
C2    C16   D    
C1    O1    A    
C10   O6    A    
C7    H4    S    
O8    Zn2   S    
C2    O2    S    
N2    Zn1   S    
C14   C15   S    
C4    H12   S    
O3    Zn2   S    
C7    H5    S    
C2    C9    S    
C3    H10   S    
C5    H14   S    
C12   C14   T    
C4    C5    S    
C5    H15   S    
