data_mof_unit_21789.cif
_audit_creation_date              2012-12-10T18:11:03-0500
_audit_creation_method            fapswitch 2.2
_symmetry_space_group_name_H-M    P1
_symmetry_Int_Tables_number       1
_space_group_crystal_system       triclinic
_cell_length_a                    10.743305
_cell_length_b                    9.550736
_cell_length_c                    10.664711
_cell_angle_alpha                 90.581693
_cell_angle_beta                  88.838095
_cell_angle_gamma                 92.102931
_cell_volume                      1093.25805993

loop_
_atom_site_label
_atom_site_type_symbol
_atom_type_description
_atom_site_fract_x
_atom_site_fract_y
_atom_site_fract_z
_atom_type_partial_charge
C1    C     C_R   0.260279 0.498022 0.504348 0.725241
C2    C     C_3   0.496648 0.502163 0.122207 -0.208315
C3    C     C_3   0.073445 0.589114 0.616673 -0.362122
C4    C     C_3   0.066359 0.345225 0.525374 -0.395317
C5    C     C_3   0.929346 0.588536 0.618107 -0.400349
C6    C     C_3   0.923622 0.346936 0.521293 -0.358655
C7    C     C_3   0.077437 0.552761 0.381761 -0.398969
C8    C     C_3   0.122468 0.495521 0.507372 0.189462
C9    C     C_3   0.878694 0.499666 0.506791 0.160133
C10   C     C_3   0.935257 0.559211 0.383665 -0.395584
C11   C     C_3   0.596275 0.087648 0.586401 -0.210426
C12   C     C_3   0.591007 0.921936 0.592066 -0.252252
C13   C     C_3   0.378578 0.078977 0.546570 -0.329285
C14   C     C_3   0.377777 0.912509 0.545071 -0.320645
C15   C     C_3   0.525283 0.086768 0.374170 0.387253
C16   C     C_3   0.525360 0.919029 0.375080 0.407824
C17   C     C_R   0.499999 0.500176 0.259566 0.849140
C18   C     C_R   0.739943 0.501114 0.503091 0.756397
C19   C     C_R   0.498850 0.500521 0.739735 0.825986
C20   C     C_3   0.449112 0.619449 0.039755 0.456673
C21   C     C_3   0.426760 0.394559 0.039136 0.392336
C22   C     C_3   0.377758 0.511550 0.956834 -0.315594
C23   C     C_3   0.497055 0.501610 0.875430 -0.143707
C24   C     C_3   0.566405 0.614061 0.955051 -0.293558
C25   C     C_3   0.544668 0.380945 0.954485 -0.275080
C26   C     C_3   0.612171 0.494206 0.035467 0.414895
Cu1   Cu    Cu3+1 0.499860 0.642410 0.500060 0.940781
Cu2   Cu    Cu3+1 0.499860 0.357590 0.500060 0.939276
H1    H     H_    0.282572 0.520569 0.919738 0.123838
H2    H     H_    0.914012 0.669917 0.377534 0.173130
H3    H     H_    0.895768 0.502441 0.301261 0.190683
H4    H     H_    0.583693 0.130667 0.682872 0.146424
H5    H     H_    0.565113 0.890117 0.689587 0.149384
H6    H     H_    0.691133 0.123631 0.554791 0.162846
H7    H     H_    0.685028 0.881627 0.577985 0.121657
H8    H     H_    0.356216 0.117048 0.643081 0.181139
H9    H     H_    0.351830 0.872356 0.640056 0.170213
H10   H     H_    0.446658 0.118027 0.314492 0.046452
H11   H     H_    0.441292 0.889839 0.319686 0.097196
H12   H     H_    0.302513 0.113836 0.486372 0.147908
H13   H     H_    0.302300 0.873705 0.482424 0.152124
H14   H     H_    0.621820 0.705286 0.917654 0.119909
H15   H     H_    0.583747 0.282431 0.917370 0.130687
H16   H     H_    0.110514 0.698794 0.605962 0.160997
H17   H     H_    0.101156 0.273755 0.450645 0.167262
H18   H     H_    0.106264 0.550455 0.707941 0.138460
H19   H     H_    0.095051 0.303198 0.616974 0.160459
H20   H     H_    0.892256 0.544399 0.707957 0.139804
H21   H     H_    0.883406 0.299833 0.608902 0.147166
H22   H     H_    0.897997 0.698033 0.612367 0.150519
H23   H     H_    0.891296 0.280322 0.441119 0.186723
H24   H     H_    0.119682 0.659134 0.363792 0.171470
H25   H     H_    0.106163 0.484655 0.302916 0.148839
N1    N     N_3   0.500250 0.143650 0.502780 -0.143839
N2    N     N_3   0.500250 0.856350 0.502780 -0.158852
O1    O     O_R   0.317570 0.620260 0.500070 -0.603385
O2    O     O_R   0.317570 0.379740 0.500070 -0.605236
O3    O     O_R   0.499850 0.620240 0.316900 -0.501075
O4    O     O_R   0.499850 0.379760 0.316900 -0.564697
O5    O     O_R   0.682190 0.620260 0.500030 -0.592552
O6    O     O_R   0.682190 0.379740 0.500030 -0.556881
O7    O     O_R   0.499910 0.620280 0.683200 -0.601139
O8    O     O_R   0.499910 0.379720 0.683200 -0.591392
O9    O     O_3   0.637393 0.150313 0.326843 -0.572715
C27   C     C_3   0.644691 0.147415 0.194458 0.072994
H26   H     H_    0.578568 0.219755 0.155621 0.197038
H27   H     H_    0.622571 0.042454 0.153624 0.163298
C28   C     C_3   0.775935 0.194934 0.154230 -0.801442
H28   H     H_    0.845731 0.120780 0.184312 0.226832
H29   H     H_    0.782202 0.204891 0.050732 0.210628
H30   H     H_    0.800266 0.296056 0.200691 0.292239
O10   O     O_3   0.619184 0.852411 0.301972 -0.543553
C29   C     C_3   0.745334 0.878925 0.332079 0.124239
H31   H     H_    0.771886 0.813539 0.409092 0.150285
H32   H     H_    0.770953 0.985764 0.363164 0.162561
C30   C     C_3   0.824414 0.840273 0.217125 -0.857680
H33   H     H_    0.794611 0.895356 0.132531 0.251005
H34   H     H_    0.924337 0.866743 0.233558 0.190433
H35   H     H_    0.812186 0.726587 0.197023 0.286173
O11   O     O_3   0.397507 0.742267 0.088492 -0.568400
C31   C     C_3   0.379796 0.835126 0.988956 0.040651
H36   H     H_    0.327150 0.783948 0.910872 0.138528
H37   H     H_    0.470962 0.878320 0.952590 0.142881
C32   C     C_3   0.305581 0.955955 0.037418 -0.778130
H38   H     H_    0.357003 0.009345 0.114515 0.267406
H39   H     H_    0.292246 0.031142 0.960492 0.232615
H40   H     H_    0.213162 0.916481 0.073247 0.235670
O12   O     O_3   0.352770 0.278056 0.081203 -0.597099
C33   C     C_3   0.248386 0.325093 0.150451 0.079182
H41   H     H_    0.198489 0.406276 0.099554 0.146348
H42   H     H_    0.277965 0.368041 0.242289 0.151310
C34   C     C_3   0.155228 0.204385 0.175656 -0.878368
H43   H     H_    0.197554 0.124401 0.234569 0.239103
H44   H     H_    0.072221 0.243487 0.226645 0.202128
H45   H     H_    0.123693 0.157016 0.085789 0.258878
O13   O     O_3   0.735171 0.491016 0.079097 -0.598136
C35   C     C_3   0.820034 0.501200 0.976126 0.070180
H46   H     H_    0.813010 0.603014 0.927697 0.143511
H47   H     H_    0.803290 0.413858 0.907860 0.132381
C36   C     C_3   0.952924 0.494488 0.021670 -0.872182
H48   H     H_    0.966309 0.393691 0.069090 0.252479
H49   H     H_    0.019132 0.502767 0.940538 0.203759
H50   H     H_    0.973899 0.582244 0.087847 0.251195

loop_
_geom_bond_atom_site_label_1
_geom_bond_atom_site_label_2
_ccdc_geom_bond_type
C7    C10   S    
C22   H1    S    
C1    C8    S    
C24   H14   S    
C29   H31   S    
C16   O10   S    
C32   H40   S    
C4    C8    S    
C25   H15   S    
C6    C9    S    
C35   H46   S    
C7    C8    S    
Cu2   O2    S    
C1    O1    A    
C30   H34   S    
C7    H24   S    
Cu1   O5    S    
Cu1   N2    S    
C19   O7    A    
C15   C16   S    
C36   H48   S    
C13   H12   S    
C35   H47   S    
C10   H3    S    
C20   C24   S    
C19   O8    A    
C28   H28   S    
C27   H27   S    
C15   O9    S    
C30   H35   S    
C6    H23   S    
C33   H42   S    
C9    C10   S    
C17   O3    A    
Cu2   O6    S    
C23   C25   S    
C14   N2    S    
C21   O12   S    
C21   C22   S    
C2    C17   S    
C29   H32   S    
C36   H49   S    
C31   H37   S    
C31   H36   S    
C4    H17   S    
C26   O13   S    
C5    H20   S    
C3    H16   S    
C20   O11   S    
C2    C20   S    
C15   N1    S    
C30   H33   S    
C13   H8    S    
C4    C6    S    
C3    C8    S    
Cu2   N1    S    
Cu1   O1    S    
O11   C31   S    
C25   C26   S    
C36   H50   S    
C33   C34   S    
C19   C23   S    
C15   H10   S    
C5    C9    S    
Cu1   O7    S    
C1    O2    A    
C10   H2    S    
C23   C24   S    
C27   C28   S    
O13   C35   S    
C2    C21   S    
C34   H44   S    
C2    C26   S    
C32   H38   S    
C12   H7    S    
C11   N1    S    
C17   O4    A    
C14   H13   S    
C18   O5    A    
C20   C22   S    
C11   H4    S    
C29   C30   S    
C5    H22   S    
C7    H25   S    
C31   C32   S    
C13   N1    S    
Cu2   O4    S    
C21   C25   S    
C35   C36   S    
C11   H6    S    
C24   C26   S    
O10   C29   S    
C3    C5    S    
Cu1   O3    S    
C11   C12   S    
C18   O6    A    
C3    H18   S    
O9    C27   S    
C12   H5    S    
C16   N2    S    
C14   H9    S    
C28   H30   S    
C34   H43   S    
C34   H45   S    
C6    H21   S    
C12   N2    S    
C16   H11   S    
Cu2   O8    S    
C9    C18   S    
O12   C33   S    
C28   H29   S    
C27   H26   S    
Cu1   Cu2   S    
C22   C23   S    
C32   H39   S    
C33   H41   S    
C13   C14   S    
C4    H19   S    
