data_mof_unit_24028.cif
_audit_creation_date              2012-10-26T19:36:55-0400
_audit_creation_method            fapswitch 2.2
_symmetry_space_group_name_H-M    P1
_symmetry_Int_Tables_number       1
_space_group_crystal_system       triclinic
_cell_length_a                    10.893639
_cell_length_b                    17.705815
_cell_length_c                    16.427949
_cell_angle_alpha                 89.699063
_cell_angle_beta                  90.870799
_cell_angle_gamma                 90.08623
_cell_volume                      3168.22236376

loop_
_atom_site_label
_atom_site_type_symbol
_atom_type_description
_atom_site_fract_x
_atom_site_fract_y
_atom_site_fract_z
_atom_type_partial_charge
C1    C     C_R   0.496874 0.355329 0.500079 0.545457
C2    C     C_R   0.421498 0.233330 0.440051 0.137002
C3    C     C_R   0.494362 0.727145 0.498895 -0.017944
C4    C     C_R   0.491368 0.272375 0.499783 -0.008172
C5    C     C_R   0.570146 0.765679 0.444393 -0.129950
C6    C     C_R   0.560083 0.232254 0.558492 -0.131561
C7    C     C_R   0.572197 0.844486 0.441524 0.149892
C8    C     C_R   0.564418 0.152873 0.557724 0.157225
C9    C     C_R   0.497190 0.885009 0.494904 0.009829
C10   C     C_R   0.496728 0.114492 0.497143 0.013175
C11   C     C_1   0.495897 0.965884 0.494508 -0.032599
C12   C     C_R   0.498070 0.644519 0.499746 0.541140
C13   C     C_1   0.495657 0.033603 0.495066 -0.026065
C14   C     C_R   0.549923 0.561114 0.828808 -0.133056
C15   C     C_R   0.437787 0.444917 0.170317 -0.127109
C16   C     C_R   0.261784 0.501353 0.499170 0.533542
C17   C     C_R   0.738281 0.499904 0.501004 0.553429
C18   C     C_R   0.550728 0.559122 0.743059 0.069322
C19   C     C_R   0.435944 0.446526 0.256112 0.058536
C20   C     C_R   0.448276 0.441474 0.743291 0.053251
C21   C     C_R   0.566346 0.553199 0.257724 0.047454
C22   C     C_R   0.448100 0.440591 0.829169 -0.122147
C23   C     C_R   0.871959 0.500564 0.503046 -0.000212
C24   C     C_R   0.568398 0.554454 0.171882 -0.134305
C25   C     C_R   0.499615 0.500885 0.873143 0.012622
C26   C     C_R   0.503457 0.499822 0.126964 0.027039
C27   C     C_1   0.501671 0.500659 0.962749 -0.046122
C28   C     C_1   0.503192 0.500332 0.037355 -0.039462
C29   C     C_R   0.203029 0.628611 0.257888 0.134615
C30   C     C_R   0.790207 0.404279 0.759038 0.133140
C31   C     C_R   0.161756 0.604982 0.334181 -0.045304
C32   C     C_R   0.833096 0.416148 0.680235 -0.073621
C33   C     C_R   0.112699 0.532563 0.345339 -0.036121
C34   C     C_R   0.128163 0.502637 0.497867 -0.012901
C35   C     C_R   0.888689 0.484654 0.658718 -0.029059
C36   C     C_R   0.102113 0.482453 0.278576 0.035129
C37   C     C_R   0.901253 0.543052 0.717329 0.033600
C38   C     C_R   0.141418 0.506438 0.200487 0.153210
C39   C     C_R   0.865526 0.529125 0.799078 0.139720
C40   C     C_R   0.191882 0.579472 0.191650 -0.088661
C41   C     C_R   0.807574 0.460051 0.817919 -0.064530
C42   C     C_R   0.931538 0.512033 0.429150 -0.145823
C43   C     C_R   0.068709 0.491451 0.571832 -0.168325
C44   C     C_3   0.619490 0.874633 0.301553 -0.313231
C45   C     C_R   0.941674 0.492154 0.576080 -0.044261
C46   C     C_3   0.694417 0.147831 0.684306 -0.317563
C47   C     C_3   0.346431 0.727971 0.299147 -0.289117
C48   C     C_3   0.792413 0.286919 0.835027 -0.319921
C49   C     C_2   0.048176 0.406060 0.291768 0.205116
C50   C     C_2   0.947127 0.618828 0.691438 0.209092
C51   C     C_3   0.146774 0.484365 0.050507 -0.315357
C52   C     C_3   0.854883 0.570402 0.944180 -0.319488
C53   C     C_3   0.255645 0.767655 0.658291 -0.300895
C54   C     C_3   0.283804 0.236794 0.316847 -0.316215
C55   C     C_R   0.058583 0.514215 0.425542 -0.050098
C56   C     C_R   0.420388 0.846956 0.548965 -0.104577
C57   C     C_R   0.426193 0.153978 0.439408 -0.111268
C58   C     C_R   0.416536 0.767478 0.551305 0.127639
Cu1   Cu    Cu3+1 0.499990 0.499980 0.580420 0.942901
Cu2   Cu    Cu3+1 0.500010 0.500020 0.419580 0.941977
H1    H     H_    0.224341 0.598792 0.133265 0.105275
H2    H     H_    0.620745 0.597677 0.140918 0.093827
H3    H     H_    0.163728 0.643745 0.384950 0.116159
H4    H     H_    0.823039 0.371863 0.635288 0.107368
H5    H     H_    0.878992 0.521150 0.373345 0.149315
H6    H     H_    0.121314 0.482989 0.627734 0.135283
H7    H     H_    0.362597 0.880187 0.587994 0.118905
H8    H     H_    0.373562 0.121917 0.395111 0.114543
H9    H     H_    0.629902 0.734144 0.404843 0.126406
H10   H     H_    0.613159 0.263785 0.602809 0.108275
H11   H     H_    0.677921 0.935980 0.402350 0.258546
H12   H     H_    0.774516 0.448643 0.878429 0.131619
H13   H     H_    0.689789 0.902940 0.263771 0.147526
H14   H     H_    0.529163 0.901874 0.289382 0.139325
H15   H     H_    0.615059 0.814286 0.283613 0.140607
H16   H     H_    0.683845 0.065407 0.593092 0.257812
H17   H     H_    0.736565 0.104970 0.725586 0.146164
H18   H     H_    0.625202 0.179416 0.719443 0.154775
H19   H     H_    0.768016 0.186187 0.662735 0.135620
H20   H     H_    0.261088 0.718574 0.185773 0.243204
H21   H     H_    0.372829 0.786773 0.283417 0.132846
H22   H     H_    0.427635 0.690964 0.291838 0.152154
H23   H     H_    0.589674 0.609147 0.860093 0.119252
H24   H     H_    0.317468 0.727636 0.363535 0.158086
H25   H     H_    0.690749 0.308486 0.729588 0.238412
H26   H     H_    0.734031 0.237274 0.849260 0.140272
H27   H     H_    0.814221 0.316322 0.893015 0.158899
H28   H     H_    0.878675 0.266818 0.807141 0.137257
H29   H     H_    0.053406 0.379894 0.351605 0.106559
H30   H     H_    0.999566 0.625325 0.636310 0.108274
H31   H     H_    0.165418 0.402661 0.142666 0.267529
H32   H     H_    0.116369 0.440651 0.006360 0.145566
H33   H     H_    0.244745 0.497336 0.039662 0.140764
H34   H     H_    0.387622 0.401268 0.138049 0.095325
H35   H     H_    0.090253 0.535696 0.040074 0.148379
H36   H     H_    0.978974 0.607292 0.857398 0.276687
H37   H     H_    0.881993 0.619284 0.982562 0.145851
H38   H     H_    0.899879 0.518912 0.969184 0.137704
H39   H     H_    0.753798 0.564389 0.947055 0.158256
H40   H     H_    0.292638 0.680488 0.577102 0.254528
H41   H     H_    0.204229 0.726612 0.696173 0.164506
H42   H     H_    0.188355 0.802640 0.623417 0.146272
H43   H     H_    0.311806 0.803461 0.699873 0.156538
H44   H     H_    0.294465 0.317636 0.409363 0.247936
H45   H     H_    0.592634 0.605265 0.710250 0.154264
H46   H     H_    0.239883 0.279372 0.276018 0.147845
H47   H     H_    0.211339 0.198466 0.340045 0.146873
H48   H     H_    0.351294 0.204802 0.280618 0.155727
H49   H     H_    0.383045 0.404682 0.288430 0.137037
H50   H     H_    0.406941 0.394906 0.710529 0.120816
H51   H     H_    0.617968 0.595191 0.291461 0.110869
H52   H     H_    0.407720 0.393134 0.860921 0.099004
N1    N     N_R   0.499970 0.499970 0.701220 -0.223031
N2    N     N_2   0.345006 0.274825 0.383880 -0.511290
N3    N     N_R   0.500030 0.500030 0.298780 -0.216117
N4    N     N_2   0.652923 0.881727 0.386723 -0.510210
N5    N     N_2   0.635637 0.110424 0.616053 -0.508463
N6    N     N_2   0.247363 0.703660 0.245754 -0.523385
N7    N     N_2   0.727211 0.336496 0.779106 -0.520969
N8    N     N_2   0.131188 0.456201 0.132594 -0.472557
N9    N     N_2   0.892582 0.583733 0.861121 -0.477070
N10   N     N_2   0.333940 0.727127 0.603157 -0.503654
O1    O     O_R   0.499990 0.391240 0.567930 -0.520144
O2    O     O_2   0.922447 0.675808 0.729341 -0.506253
O3    O     O_R   0.500010 0.608760 0.432070 -0.526002
O4    O     O_R   0.500000 0.391270 0.432120 -0.475824
O5    O     O_R   0.500000 0.608730 0.567880 -0.484460
O6    O     O_R   0.319640 0.499990 0.567910 -0.512963
O7    O     O_R   0.680360 0.500010 0.432090 -0.504529
O8    O     O_R   0.319650 0.500020 0.432090 -0.504387
O9    O     O_R   0.680350 0.499980 0.567910 -0.491388
O10   O     O_2   0.994017 0.372527 0.237291 -0.498156

loop_
_geom_bond_atom_site_label_1
_geom_bond_atom_site_label_2
_ccdc_geom_bond_type
C33   C55   S    
C38   C40   A    
C23   C45   A    
C17   O9    A    
C11   C13   T    
C14   C18   A    
C21   N3    A    
C15   H34   S    
C2    C57   A    
C39   C41   A    
C12   O5    A    
C15   C19   A    
Cu1   O9    S    
C17   C23   S    
C23   C42   A    
H36   N9    S    
Cu2   O3    S    
C35   C37   A    
C24   C26   A    
C53   N10   S    
C20   N1    A    
C51   H32   S    
C30   N7    S    
Cu1   O5    S    
C52   H37   S    
C33   C36   A    
C6    H10   S    
C47   H22   S    
C52   H38   S    
H25   N7    S    
C5    H9    S    
C3    C12   S    
C16   C34   S    
C50   H30   S    
C47   N6    S    
C53   H41   S    
C22   C25   A    
C42   H5    S    
C48   H28   S    
C30   C41   A    
C16   O8    A    
H40   N10   S    
C38   N8    S    
C34   C55   A    
C14   H23   S    
C18   N1    A    
C21   H51   S    
C8    N5    S    
C48   N7    S    
C19   H49   S    
Cu1   O1    S    
C49   O10   D    
H20   N6    S    
C58   N10   S    
C54   H46   S    
C17   O7    A    
C32   C35   A    
C31   H3    S    
C10   C57   A    
C50   O2    D    
C1    O4    A    
C32   H4    S    
C4    C6    A    
Cu2   O8    S    
C5    C7    A    
C15   C26   A    
C6    C8    A    
C12   O3    A    
Cu1   O6    S    
C40   H1    S    
C46   N5    S    
C7    N4    S    
C44   H15   S    
C2    C4    A    
C1    O1    A    
C42   C55   A    
C43   C45   A    
C52   N9    S    
C19   N3    A    
C53   H42   S    
Cu1   N1    S    
C31   C33   A    
C51   N8    S    
C48   H27   S    
C9    C56   A    
C47   H24   S    
C44   H14   S    
C16   O6    A    
C51   H33   S    
C41   H12   S    
C20   H50   S    
C54   H47   S    
C8    C10   A    
C20   C22   A    
C22   H52   S    
C9    C11   S    
H44   N2    S    
C57   H8    S    
C35   C45   S    
C46   H18   S    
C7    C9    A    
C24   H2    S    
C34   C43   A    
C49   H29   S    
C3    C5    A    
C10   C13   S    
Cu2   O7    S    
C46   H17   S    
C25   C27   S    
C56   H7    S    
C29   N6    S    
C52   H39   S    
C26   C28   S    
H16   N5    S    
C39   N9    S    
C54   H48   S    
C1    C4    S    
C36   C38   A    
C18   H45   S    
C29   C31   A    
C30   C32   A    
C37   C50   S    
C2    N2    S    
C46   H19   S    
C53   H43   S    
C43   H6    S    
C54   N2    S    
C29   C40   A    
Cu2   O4    S    
C56   C58   A    
H11   N4    S    
C48   H26   S    
C47   H21   S    
C14   C25   A    
C44   H13   S    
C3    C58   A    
Cu1   Cu2   S    
C44   N4    S    
C37   C39   A    
C21   C24   A    
C27   C28   T    
H31   N8    S    
Cu2   N3    S    
C36   C49   S    
C51   H35   S    
