data_mof_unit_25832.cif
_audit_creation_date              2013-03-05T15:44:35-0500
_audit_creation_method            fapswitch 2.2
_symmetry_space_group_name_H-M    P1
_symmetry_Int_Tables_number       1
_space_group_crystal_system       triclinic
_cell_length_a                    18.982685
_cell_length_b                    10.92558
_cell_length_c                    18.805615
_cell_angle_alpha                 89.79921
_cell_angle_beta                  90.042638
_cell_angle_gamma                 90.04907
_cell_volume                      3900.1987414

loop_
_atom_site_label
_atom_site_type_symbol
_atom_site_description
_atom_site_fract_x
_atom_site_fract_y
_atom_site_fract_z
_atom_type_partial_charge
O1    O     O_R   0.787540 0.042690 0.170470 -0.486246
O2    O     O_R   0.212460 0.042690 0.829530 -0.462174
O3    O     O_R   0.287540 0.542690 0.170470 -0.486427
O4    O     O_R   0.712460 0.542690 0.829530 -0.463369
O5    O     O_R   0.765660 0.292160 0.175050 -0.520329
O6    O     O_R   0.234340 0.292160 0.824950 -0.535520
O7    O     O_R   0.265660 0.792160 0.175050 -0.520874
O8    O     O_R   0.734340 0.792160 0.824950 -0.539685
C1    C     C_R   0.731183 0.378391 0.146224 0.534200
C2    C     C_R   0.270957 0.374820 0.854936 0.519539
C3    C     C_R   0.231185 0.878394 0.146226 0.533445
C4    C     C_R   0.770958 0.874821 0.854936 0.511101
O9    O     O_R   0.670190 0.408980 0.168550 -0.503958
O10   O     O_R   0.329810 0.408980 0.831450 -0.502567
O11   O     O_R   0.170190 0.908980 0.168550 -0.504188
O12   O     O_R   0.829810 0.908980 0.831450 -0.507042
O13   O     O_R   0.556580 0.251450 0.175160 -0.497796
O14   O     O_R   0.443420 0.251450 0.824840 -0.493790
O15   O     O_R   0.056580 0.751450 0.175160 -0.497341
O16   O     O_R   0.943420 0.751450 0.824840 -0.495629
C5    C     C_R   0.530036 0.157024 0.147627 0.526901
C6    C     C_R   0.465391 0.154456 0.855496 0.516427
C7    C     C_R   0.030039 0.657026 0.147624 0.528837
C8    C     C_R   0.965392 0.654455 0.855495 0.513526
O17   O     O_R   0.545920 0.049510 0.170320 -0.520403
O18   O     O_R   0.454080 0.049510 0.829680 -0.512401
O19   O     O_R   0.045920 0.549510 0.170320 -0.518589
O20   O     O_R   0.954080 0.549510 0.829680 -0.515591
O21   O     O_R   0.681390 0.957840 0.176710 -0.515909
O22   O     O_R   0.318610 0.957840 0.823290 -0.504832
O23   O     O_R   0.181390 0.457840 0.176710 -0.515815
O24   O     O_R   0.818610 0.457840 0.823290 -0.508792
C9    C     C_R   0.740371 0.970305 0.147054 0.544526
C10   C     C_R   0.272593 0.019908 0.859630 0.558041
C11   C     C_R   0.240371 0.470301 0.147056 0.544201
C12   C     C_R   0.772593 0.519907 0.859630 0.556151
O25   O     O_R   0.787500 0.044280 0.330990 -0.520675
O26   O     O_R   0.212500 0.044280 0.669010 -0.508760
O27   O     O_R   0.287500 0.544280 0.330990 -0.517681
O28   O     O_R   0.712500 0.544280 0.669010 -0.502398
O29   O     O_R   0.765610 0.293630 0.323860 -0.508219
O30   O     O_R   0.234390 0.293630 0.676140 -0.508153
O31   O     O_R   0.265610 0.793630 0.323860 -0.508550
O32   O     O_R   0.734390 0.793630 0.676140 -0.508470
C13   C     C_R   0.730254 0.379120 0.352011 0.540435
C14   C     C_R   0.288828 0.331450 0.640279 0.557751
C15   C     C_R   0.230133 0.879118 0.352113 0.540559
C16   C     C_R   0.771404 0.876503 0.646415 0.546792
O33   O     O_R   0.670140 0.410570 0.329080 -0.522610
O34   O     O_R   0.329860 0.410570 0.670920 -0.507383
O35   O     O_R   0.170140 0.910570 0.329080 -0.519875
O36   O     O_R   0.829860 0.910570 0.670920 -0.524111
O37   O     O_R   0.556540 0.252920 0.323970 -0.503750
O38   O     O_R   0.443460 0.252920 0.676030 -0.508623
O39   O     O_R   0.056540 0.752920 0.323970 -0.498354
O40   O     O_R   0.943460 0.752920 0.676030 -0.494039
C17   C     C_R   0.531905 0.157697 0.353204 0.541993
C18   C     C_R   0.464784 0.156595 0.644660 0.544564
C19   C     C_R   0.035171 0.656411 0.355384 0.543692
C20   C     C_R   0.968637 0.657742 0.647050 0.555526
O41   O     O_R   0.545870 0.051100 0.330840 -0.523342
O42   O     O_R   0.454130 0.051100 0.669160 -0.524297
O43   O     O_R   0.045870 0.551100 0.330840 -0.528886
O44   O     O_R   0.954130 0.551100 0.669160 -0.522723
O45   O     O_R   0.681340 0.959300 0.325510 -0.506223
O46   O     O_R   0.318660 0.959300 0.674490 -0.505503
O47   O     O_R   0.181340 0.459300 0.325510 -0.508617
O48   O     O_R   0.818660 0.459300 0.674490 -0.498304
C21   C     C_R   0.741629 0.970018 0.354049 0.544541
C22   C     C_R   0.259147 0.974278 0.644362 0.558391
C23   C     C_R   0.242354 0.468327 0.353599 0.543463
C24   C     C_R   0.759596 0.475942 0.643848 0.564843
Cr1   Cr    Cr6+3 0.772000 0.169640 0.250110 1.043696
Cr2   Cr    Cr6+3 0.228000 0.169640 0.749890 1.031498
Cr3   Cr    Cr6+3 0.272000 0.669640 0.250110 1.042702
Cr4   Cr    Cr6+3 0.728000 0.669640 0.749890 1.036463
Cr5   Cr    Cr6+3 0.614960 0.323350 0.249260 1.053758
Cr6   Cr    Cr6+3 0.385040 0.323350 0.750740 1.038200
Cr7   Cr    Cr6+3 0.114960 0.823350 0.249260 1.056894
Cr8   Cr    Cr6+3 0.885040 0.823350 0.750740 1.040223
Cr9   Cr    Cr6+3 0.616670 0.010620 0.250840 1.019267
Cr10  Cr    Cr6+3 0.383330 0.010620 0.749160 1.020202
Cr11  Cr    Cr6+3 0.116670 0.510620 0.250840 1.018345
Cr12  Cr    Cr6+3 0.883330 0.510620 0.749160 1.027011
O49   O     O_3   0.667880 0.167870 0.250070 -0.247153
O50   O     O_3   0.332120 0.167870 0.749930 -0.300373
O51   O     O_3   0.167880 0.667870 0.250070 -0.248019
O52   O     O_3   0.832120 0.667870 0.749930 -0.278274
H1    H     H_    0.460740 0.984185 0.076318 0.132548
H2    H     H_    0.444522 0.979287 0.950340 0.175045
H3    H     H_    0.960743 0.484194 0.076314 0.132877
H4    H     H_    0.944522 0.479289 0.950338 0.175119
C25   C     C_R   0.486666 0.161144 0.930740 -0.004435
C26   C     C_R   0.493911 0.173487 0.078972 -0.028046
C27   C     C_R   0.986675 0.661138 0.930733 -0.003290
C28   C     C_R   0.993925 0.673491 0.078963 -0.028391
C29   C     C_R   0.509682 0.271641 0.963343 -0.053241
C30   C     C_R   0.501689 0.284032 0.038043 -0.046499
C31   C     C_R   0.009701 0.771632 0.963329 -0.053017
C32   C     C_R   0.001712 0.784032 0.038028 -0.046799
C33   C     C_R   0.470850 0.066958 0.046038 -0.136242
C34   C     C_R   0.464945 0.062635 0.973368 -0.085662
C35   C     C_R   0.970859 0.566963 0.046033 -0.136325
C36   C     C_R   0.964952 0.562634 0.973364 -0.085372
C37   C     C_R   0.537340 0.370386 0.923141 0.027292
C38   C     C_R   0.503598 0.404060 0.068635 0.040533
C39   C     C_R   0.037364 0.870364 0.923120 0.027183
C40   C     C_R   0.003631 0.904064 0.068612 0.040254
C41   C     C_R   0.036641 0.989267 0.952202 0.008006
C42   C     C_R   0.025688 0.005065 0.026075 0.036431
C43   C     C_R   0.536617 0.489282 0.952233 0.007803
C44   C     C_R   0.525662 0.505065 0.026105 0.036550
C45   C     C_R   0.684726 0.916564 0.032677 -0.111686
C46   C     C_R   0.308171 0.893312 0.962720 -0.110579
C47   C     C_R   0.184723 0.416539 0.032681 -0.111413
C48   C     C_R   0.808168 0.393309 0.962718 -0.110918
H5    H     H_    0.633015 0.927163 0.056283 0.180777
H6    H     H_    0.341921 0.839979 0.928229 0.177467
H7    H     H_    0.133011 0.427126 0.056289 0.180712
H8    H     H_    0.841918 0.339976 0.928226 0.176956
C49   C     C_R   0.690552 0.905674 0.958869 -0.016678
C50   C     C_R   0.304265 0.862880 0.034501 -0.008694
C51   C     C_R   0.190549 0.405654 0.958872 -0.016875
C52   C     C_R   0.804260 0.362873 0.034498 -0.008722
C53   C     C_R   0.758376 0.900487 0.929091 -0.002403
C54   C     C_R   0.256933 0.928966 0.078628 -0.011718
C55   C     C_R   0.258374 0.400483 0.929092 -0.004146
C56   C     C_R   0.756929 0.428959 0.078625 -0.011576
C57   C     C_R   0.818278 0.902289 0.972884 -0.092487
C58   C     C_R   0.223524 0.033821 0.051691 -0.139218
C59   C     C_R   0.318277 0.402295 0.972884 -0.093257
C60   C     C_R   0.723518 0.533812 0.051688 -0.139257
H9    H     H_    0.871065 0.893909 0.951574 0.157133
H10   H     H_    0.190490 0.089391 0.085378 0.128110
H11   H     H_    0.371065 0.393931 0.951574 0.156749
H12   H     H_    0.690479 0.589377 0.085375 0.128146
C61   C     C_R   0.811538 0.914746 0.044898 -0.102514
C62   C     C_R   0.229303 0.064261 0.980321 -0.142950
C63   C     C_R   0.311536 0.414746 0.044899 -0.102275
C64   C     C_R   0.729300 0.564257 0.980320 -0.142732
H13   H     H_    0.857723 0.922695 0.076718 0.139735
H14   H     H_    0.201442 0.143384 0.960131 0.128401
H15   H     H_    0.357720 0.422700 0.076718 0.139911
H16   H     H_    0.701441 0.643383 0.960130 0.128679
C65   C     C_R   0.745656 0.925118 0.075147 -0.002794
C66   C     C_R   0.269208 0.990926 0.935072 -0.006104
C67   C     C_R   0.245654 0.425107 0.075149 -0.002679
C68   C     C_R   0.769207 0.490925 0.935072 -0.005542
C69   C     C_R   0.471013 0.067062 0.454661 -0.135652
C70   C     C_R   0.461698 0.062934 0.527113 -0.126753
C71   C     C_R   0.028756 0.556616 0.471449 -0.125589
C72   C     C_R   0.021800 0.560382 0.544010 -0.130761
H17   H     H_    0.457075 0.987543 0.423326 0.127305
H18   H     H_    0.437962 0.981412 0.549578 0.138227
H19   H     H_    0.044467 0.470505 0.448021 0.131751
H20   H     H_    0.029681 0.476501 0.573915 0.131781
C73   C     C_R   0.482211 0.162241 0.569805 0.029775
C74   C     C_R   0.502502 0.169412 0.423786 0.031030
C75   C     C_R   0.999237 0.667906 0.576709 0.035564
C76   C     C_R   0.016910 0.661993 0.430162 0.035792
C77   C     C_R   0.509371 0.268398 0.538670 -0.153049
C78   C     C_R   0.519607 0.272066 0.465532 -0.136576
C79   C     C_R   0.990841 0.775698 0.536529 -0.128229
C80   C     C_R   0.000108 0.772874 0.463155 -0.136329
H21   H     H_    0.523416 0.346876 0.570767 0.129820
H22   H     H_    0.544585 0.352039 0.442457 0.140905
H23   H     H_    0.973822 0.860032 0.561141 0.126359
H24   H     H_    0.993340 0.856020 0.432361 0.122639
C81   C     C_R   0.813445 0.956435 0.460592 -0.139322
C82   C     C_R   0.202776 0.008274 0.529552 -0.127301
C83   C     C_R   0.324425 0.418606 0.451477 -0.128089
C84   C     C_R   0.709693 0.521960 0.527202 -0.129843
H25   H     H_    0.858611 0.993114 0.432417 0.130002
H26   H     H_    0.165146 0.069931 0.553563 0.131810
H27   H     H_    0.368150 0.456360 0.421577 0.135638
H28   H     H_    0.676524 0.591937 0.550271 0.136075
C85   C     C_R   0.816256 0.951970 0.533244 -0.132981
C86   C     C_R   0.202850 0.999925 0.456856 -0.128479
C87   C     C_R   0.334570 0.391090 0.522695 -0.131500
C88   C     C_R   0.708940 0.509623 0.454543 -0.138979
H29   H     H_    0.864727 0.981492 0.558300 0.129597
H30   H     H_    0.163875 0.051954 0.427418 0.133172
H31   H     H_    0.385856 0.406733 0.546138 0.131391
H32   H     H_    0.673208 0.566279 0.423808 0.129550
C89   C     C_R   0.759075 0.905884 0.572390 0.036252
C90   C     C_R   0.248315 0.918013 0.423287 0.029556
C91   C     C_R   0.278095 0.350007 0.564140 0.028602
C92   C     C_R   0.749628 0.418768 0.422670 0.029439
C93   C     C_R   0.698143 0.866165 0.537376 -0.140989
C94   C     C_R   0.298511 0.852672 0.463153 -0.139120
C95   C     C_R   0.212540 0.327119 0.532107 -0.136283
C96   C     C_R   0.796203 0.347622 0.463757 -0.128428
H33   H     H_    0.654239 0.827588 0.566634 0.122171
H34   H     H_    0.333815 0.787998 0.438142 0.133850
H35   H     H_    0.168316 0.293357 0.562753 0.124114
H36   H     H_    0.827911 0.276248 0.440002 0.135717
C97   C     C_R   0.694046 0.876062 0.463826 -0.135463
C98   C     C_R   0.300452 0.865269 0.536642 -0.143524
C99   C     C_R   0.202264 0.354932 0.460674 -0.141840
C100  C     C_R   0.798293 0.362309 0.537026 -0.134551
H37   H     H_    0.645316 0.851293 0.437519 0.132173
H38   H     H_    0.339638 0.815592 0.567072 0.126400
H39   H     H_    0.150300 0.343251 0.437955 0.118078
H40   H     H_    0.833972 0.306846 0.568497 0.124840
C101  C     C_R   0.751400 0.923962 0.425487 0.031665
C102  C     C_R   0.251658 0.941786 0.570161 0.032910
C103  C     C_R   0.257251 0.406730 0.420983 0.028683
C104  C     C_R   0.753349 0.447062 0.569114 0.032243
C105  C     C_2   0.576673 0.343482 0.856040 0.273090
H41   H     H_    0.597637 0.252247 0.847685 0.098005
O53   O     O_2   0.585684 0.419771 0.809445 -0.495481
C106  C     C_2   0.470253 0.425001 0.140171 0.265636
H42   H     H_    0.439041 0.352675 0.164318 0.092201
O54   O     O_2   0.474859 0.521324 0.172435 -0.537579
C107  C     C_2   0.076692 0.843439 0.856017 0.272941
H43   H     H_    0.097618 0.752183 0.847648 0.099067
O55   O     O_2   0.085750 0.919735 0.809439 -0.494696
C108  C     C_2   0.970301 0.925010 0.140153 0.265695
H44   H     H_    0.938974 0.852758 0.164234 0.092826
O56   O     O_2   0.975121 0.021206 0.172530 -0.537283
C109  C     C_3   0.038395 0.099537 0.903282 -0.316893
H45   H     H_    0.010225 0.080184 0.852844 0.171067
H46   H     H_    0.008617 0.177083 0.926260 0.179605
H47   H     H_    0.093431 0.127405 0.892136 0.177054
C110  C     C_3   0.042073 0.127975 0.059717 -0.331487
H48   H     H_    0.072037 0.114989 0.109787 0.166783
H49   H     H_    0.076795 0.185435 0.026011 0.133442
H50   H     H_    0.993015 0.179018 0.070815 0.193374
C111  C     C_3   0.538390 0.599564 0.903323 -0.316571
H51   H     H_    0.510183 0.580252 0.852900 0.171983
H52   H     H_    0.508658 0.677142 0.926325 0.179811
H53   H     H_    0.593432 0.627365 0.892147 0.176878
C112  C     C_3   0.542084 0.627952 0.059758 -0.331517
H54   H     H_    0.571978 0.614928 0.109867 0.166726
H55   H     H_    0.576878 0.685329 0.026084 0.133244
H56   H     H_    0.493047 0.679094 0.070782 0.193334
C113  C     C_2   0.626551 0.905365 0.913916 0.203159
H57   H     H_    0.629697 0.925135 0.857459 0.132714
O57   O     O_2   0.569182 0.882235 0.939579 -0.573803
C114  C     C_2   0.350040 0.761872 0.060075 0.232041
H58   H     H_    0.371728 0.762575 0.113371 0.143617
O58   O     O_2   0.366109 0.678018 0.020536 -0.533310
C115  C     C_2   0.126545 0.405338 0.913921 0.203098
H59   H     H_    0.129689 0.425109 0.857464 0.135204
O59   O     O_2   0.069177 0.382202 0.939585 -0.574221
C116  C     C_2   0.850031 0.261856 0.060068 0.231884
H60   H     H_    0.871718 0.262549 0.113364 0.144012
O60   O     O_2   0.866098 0.178008 0.020525 -0.533856

loop_
_geom_bond_atom_site_label_1
_geom_bond_atom_site_label_2
_geom_bond_distance
_ccdc_geom_bond_type
C18   O42   1.256053 A    
Cr11  O51   1.973289 S    
C17   C74   1.446421 S    
O4    C12   1.297649 A    
C48   C52   1.391110 A    
C90   C94   1.405684 A    
C33   C34   1.372083 A    
C70   C73   1.406514 A    
O39   C19   1.273023 A    
C98   C102  1.400015 A    
H4    C36   1.081202 S    
C84   C88   1.373558 A    
C97   C101  1.405907 A    
C79   C80   1.391590 A    
C20   C75   1.448983 S    
C69   H17   1.083983 S    
C64   C68   1.395215 A    
O29   Cr1   1.946038 S    
C51   C115  1.479606 S    
C29   C30   1.420014 A    
C85   C89   1.404038 A    
C24   C104  1.446233 S    
C38   C44   1.423525 A    
O7    C3    1.267563 A    
C63   C67   1.379214 A    
C86   H30   1.083909 S    
C109  H45   1.109417 S    
Cr7   O51   1.974264 S    
C82   C86   1.370471 A    
C77   H21   1.083329 S    
C96   H36   1.083316 S    
C61   C65   1.379213 A    
O40   C20   1.269636 A    
C95   C99   1.389895 A    
C82   C102  1.402887 A    
C109  H47   1.107900 S    
C59   H11   1.083569 S    
C107  O55   1.219240 D    
O26   Cr2   2.071023 S    
C27   C31   1.424098 A    
C60   H12   1.080340 S    
O47   C23   1.276508 A    
O20   Cr12  2.068247 S    
C5    C26   1.471996 S    
C26   C30   1.437463 A    
C115  H59   1.084392 S    
O21   C9    1.258269 A    
O8    Cr4   1.952314 S    
C110  H50   1.106245 S    
O23   Cr11  1.947997 S    
C7    C28   1.472014 S    
O30   C14   1.300680 A    
C73   C77   1.395884 A    
C45   C65   1.408306 A    
O32   Cr4   1.939113 S    
C1    O9    1.277054 A    
O44   Cr12  2.064596 S    
O17   Cr9   2.066537 S    
C5    O17   1.284427 A    
C88   C92   1.395465 A    
C110  H49   1.107883 S    
C49   C53   1.405642 A    
C78   H22   1.083292 S    
C63   H15   1.064741 S    
C12   C68   1.454008 S    
C50   C114  1.483749 S    
C4    O12   1.257496 A    
C26   C33   1.390552 A    
C40   C42   1.423536 A    
C115  O59   1.217449 D    
C98   H38   1.083171 S    
C71   C72   1.371780 A    
C97   H37   1.083283 S    
O6    Cr2   1.952314 S    
O27   Cr3   2.064295 S    
C14   C91   1.459584 S    
O3    Cr3   2.066339 S    
C112  H54   1.108454 S    
Cr4   O52   1.976588 S    
C91   C95   1.404768 A    
O2    Cr2   2.058939 S    
O8    C4    1.272278 A    
C52   C56   1.422554 A    
C29   C37   1.415988 A    
Cr6   O50   1.972875 S    
C23   C103  1.460307 S    
O42   Cr10  2.064596 S    
C72   C75   1.395698 A    
Cr5   O49   1.974264 S    
C100  C104  1.398387 A    
C99   C103  1.401460 A    
C113  H57   1.084395 S    
Cr8   O52   1.972875 S    
C99   H39   1.082311 S    
C39   C41   1.411365 A    
C83   C87   1.384957 A    
C58   H10   1.080329 S    
C3    O11   1.277061 A    
O34   Cr6   2.061017 S    
C81   C85   1.367953 A    
C57   C61   1.367673 A    
C77   C78   1.389627 A    
C87   H31   1.082100 S    
O31   Cr3   1.946038 S    
O24   Cr12  1.944478 S    
O16   Cr8   1.943851 S    
C116  O60   1.221003 D    
C32   C40   1.434269 A    
C1    C56   1.468225 S    
C47   C51   1.397995 A    
O22   C10   1.301952 A    
C109  H46   1.108060 S    
O1    C9    1.273466 A    
O10   Cr6   2.071752 S    
O48   Cr12  1.948077 S    
C72   H20   1.083996 S    
C80   H24   1.083280 S    
C3    C54   1.468239 S    
C16   O36   1.257757 A    
C46   C66   1.397020 A    
C105  H41   1.085603 S    
C44   C112  1.518300 S    
C62   H14   1.081372 S    
C8    C27   1.473198 S    
C48   C68   1.397010 A    
C94   H34   1.083162 S    
O15   C7    1.260445 A    
O7    Cr3   1.945659 S    
C4    C53   1.443519 S    
C53   C57   1.403672 A    
Cr10  O50   1.974827 S    
C83   H27   1.083381 S    
C42   C110  1.518299 S    
O13   C5    1.260462 A    
O28   Cr4   2.071023 S    
O43   Cr11  2.067348 S    
O48   C24   1.273118 A    
O12   Cr8   2.071752 S    
Cr12  O52   1.974827 S    
C50   C54   1.422551 A    
C79   H23   1.082259 S    
C107  H43   1.085579 S    
O5    C1    1.267563 A    
C111  H51   1.109430 S    
C93   H33   1.083240 S    
C100  H40   1.083391 S    
O46   Cr10  1.948077 S    
O39   Cr7   1.946571 S    
C19   C76   1.450098 S    
C25   C29   1.424129 A    
C108  O56   1.219811 D    
C31   C32   1.419993 A    
C84   C104  1.404734 A    
O40   Cr8   1.951210 S    
O14   Cr6   1.943851 S    
C38   C106  1.505488 S    
C114  O58   1.221005 D    
C110  H48   1.108463 S    
C61   H13   1.064752 S    
C39   C107  1.496889 S    
C11   C67   1.444789 S    
O47   Cr11  1.945850 S    
Cr2   O50   1.976588 S    
C15   C90   1.447165 S    
O15   Cr7   1.947030 S    
C112  H55   1.107868 S    
O35   Cr7   2.065047 S    
C69   C74   1.392726 A    
C46   H6    1.083798 S    
O30   Cr2   1.939113 S    
C9    C65   1.444781 S    
C89   C93   1.399915 A    
C49   C113  1.479593 S    
C45   H5    1.084091 S    
Cr3   O51   1.976555 S    
O26   C22   1.260216 A    
C106  O54   1.219638 D    
O21   Cr9   1.947997 S    
C57   H9    1.083554 S    
C7    O19   1.284448 A    
C113  O57   1.217441 D    
O9    Cr5   2.066132 S    
C2    O10   1.257507 A    
O37   Cr5   1.946571 S    
C43   C111  1.513636 S    
O25   C21   1.265473 A    
C75   C79   1.406138 A    
C19   O43   1.257937 A    
C22   C102  1.447909 S    
C37   C105  1.496863 S    
C83   C103  1.403865 A    
C2    C55   1.443544 S    
C58   C62   1.386014 A    
C76   C80   1.400178 A    
C51   C55   1.405672 A    
C6    O18   1.264838 A    
C41   C109  1.513648 S    
C27   C36   1.401667 A    
C94   C98   1.389781 A    
O38   C18   1.274693 A    
C93   C97   1.389119 A    
O45   C21   1.269182 A    
O25   Cr1   2.064295 S    
C116  H60   1.083296 S    
C56   C60   1.402823 A    
O27   C23   1.265173 A    
O22   Cr10  1.944478 S    
O28   C24   1.258925 A    
C43   C44   1.415996 A    
H1    C33   1.084053 S    
O14   C6    1.274922 A    
C21   C101  1.444812 S    
C37   C43   1.411359 A    
O5    Cr1   1.945659 S    
C8    O20   1.264814 A    
H3    C35   1.084054 S    
C18   C73   1.447393 S    
O37   C17   1.264450 A    
C25   C34   1.401671 A    
O6    C2    1.272263 A    
C15   O35   1.265520 A    
O24   C12   1.301953 A    
C13   C92   1.446238 S    
C17   O41   1.267937 A    
C82   H26   1.082306 S    
O11   Cr7   2.066132 S    
C60   C64   1.386010 A    
C45   C49   1.397988 A    
C31   C39   1.415993 A    
C14   O34   1.299079 A    
C47   H7    1.084101 S    
C71   H19   1.082481 S    
C30   C38   1.434279 A    
O29   C13   1.268145 A    
C92   C96   1.406712 A    
C20   O44   1.265883 A    
C47   C67   1.408321 A    
O1    Cr1   2.066339 S    
C71   C76   1.404564 A    
C55   C59   1.403684 A    
C64   H16   1.081371 S    
C40   C108  1.505432 S    
Cr1   O49   1.976555 S    
C111  H52   1.108057 S    
O32   C16   1.273547 A    
H2    C34   1.081201 S    
C69   C70   1.374634 A    
C81   C101  1.395935 A    
O13   Cr5   1.947030 S    
C10   C66   1.454019 S    
C81   H25   1.084001 S    
O2    C10   1.297650 A    
C108  H44   1.085787 S    
O46   C22   1.273871 A    
C62   C66   1.395217 A    
C85   H29   1.082857 S    
C28   C32   1.437502 A    
C46   C50   1.391120 A    
O19   Cr11  2.066537 S    
C114  H58   1.083299 S    
C105  O53   1.219282 D    
O33   Cr5   2.065047 S    
C13   O33   1.266924 A    
O23   C11   1.258256 A    
C96   C100  1.388278 A    
C52   C116  1.483744 S    
C48   H8    1.083798 S    
C112  H56   1.106190 S    
C95   H35   1.082440 S    
O4    Cr4   2.058939 S    
C6    C25   1.473252 S    
C59   C63   1.367666 A    
C74   C78   1.408830 A    
O3    C11   1.273481 A    
C111  H53   1.107908 S    
C86   C90   1.396558 A    
C84   H28   1.082929 S    
C16   C89   1.446454 S    
C87   C91   1.398645 A    
C106  H42   1.085704 S    
O18   Cr10  2.068247 S    
C70   H18   1.082471 S    
C28   C35   1.390549 A    
C41   C42   1.416017 A    
C35   C36   1.372065 A    
C54   C58   1.402818 A    
O45   Cr9   1.945850 S    
O41   Cr9   2.067348 S    
O36   Cr8   2.061017 S    
O31   C15   1.270144 A    
O16   C8    1.274928 A    
Cr9   O49   1.973289 S    
C88   H32   1.083959 S    
O38   Cr6   1.951210 S    
