data_mof_unit_24657.cif
_audit_creation_date              2012-12-10T17:48:46-0500
_audit_creation_method            fapswitch 2.2
_symmetry_space_group_name_H-M    P1
_symmetry_Int_Tables_number       1
_space_group_crystal_system       triclinic
_cell_length_a                    15.717487
_cell_length_b                    10.712103
_cell_length_c                    9.926937
_cell_angle_alpha                 92.050005
_cell_angle_beta                  90.262904
_cell_angle_gamma                 91.8764
_cell_volume                      1669.3788813

loop_
_atom_site_label
_atom_site_type_symbol
_atom_type_description
_atom_site_fract_x
_atom_site_fract_y
_atom_site_fract_z
_atom_type_partial_charge
C1    C     C_R   0.505514 0.260107 0.497306 0.867780
C2    C     C_R   0.603653 0.069912 0.832523 0.578304
C3    C     C_R   0.554670 0.963230 0.861003 -0.334583
C4    C     C_R   0.338487 0.499853 0.499851 0.887837
C5    C     C_R   0.500975 0.904281 0.763469 0.199341
C6    C     C_R   0.504390 0.945687 0.628968 0.069939
C7    C     C_R   0.536380 0.066432 0.609278 -0.041817
C8    C     C_R   0.511917 0.126002 0.491772 -0.109267
C9    C     C_R   0.478416 0.055688 0.379861 0.190245
C10   C     C_R   0.465131 0.928985 0.390489 -0.293722
C11   C     C_R   0.481207 0.872575 0.511708 -0.147511
C12   C     C_3   0.949443 0.443707 0.616739 -0.014645
C13   C     C_R   0.383639 0.343894 0.133268 -0.205190
C14   C     C_R   0.325133 0.267893 0.060393 -0.350644
C15   C     C_R   0.323693 0.268705 0.920068 0.557556
C16   C     C_R   0.492492 0.739451 0.503365 0.909458
C17   C     C_R   0.383403 0.342999 0.853844 -0.217539
C18   C     C_R   0.441925 0.423841 0.924615 0.021569
C19   C     C_R   0.442035 0.423977 0.068931 0.156598
C20   C     C_R   0.556537 0.571112 0.075185 -0.198533
C21   C     C_R   0.558092 0.569369 0.931714 0.228890
C22   C     C_R   0.661505 0.500283 0.500155 0.895415
C23   C     C_3   0.917358 0.507855 0.486286 0.103261
C24   C     C_3   0.046799 0.430097 0.611028 -0.594660
C25   C     C_3   0.050330 0.442242 0.357341 0.343749
C26   C     C_3   0.950366 0.433241 0.357095 -0.064746
C27   C     C_1   0.750325 0.502543 0.499313 -0.214551
C28   C     C_3   0.082975 0.503976 0.492661 0.152938
C29   C     C_3   0.906843 0.280551 0.774116 -0.819706
C30   C     C_3   0.855173 0.771995 0.346014 -0.724500
C31   C     C_3   0.538453 0.125728 0.173303 -0.660574
C32   C     C_3   0.674579 0.245601 0.930248 -0.365529
C33   C     C_3   0.351042 0.844147 0.781839 -0.727096
C34   C     C_3   0.954305 0.647228 0.488819 0.678889
C35   C     C_3   0.184808 0.223386 0.865003 -0.362557
C36   C     C_3   0.706366 0.596535 0.875460 -0.754911
C37   C     C_3   0.133924 0.444189 0.162852 -0.351345
C38   C     C_3   0.826640 0.442801 0.197581 -0.800048
C39   C     C_3   0.951089 0.838561 0.619102 -0.336734
C40   C     C_3   0.053673 0.640578 0.506697 -0.503438
C41   C     C_1   0.825619 0.505365 0.493101 0.063226
C42   C     C_1   0.174447 0.502578 0.497505 -0.004159
C43   C     C_1   0.249715 0.501197 0.499383 -0.194188
C44   C     C_R   0.591907 0.123984 0.706681 -0.271999
H1    H     H_    0.075614 0.465862 0.708231 0.196601
H2    H     H_    0.382120 0.333423 0.746915 0.224067
H3    H     H_    0.072857 0.343968 0.352139 0.037067
H4    H     H_    0.931892 0.332816 0.365677 0.092138
H5    H     H_    0.073486 0.677922 0.608491 0.182655
H6    H     H_    0.088352 0.700253 0.434206 0.178927
H7    H     H_    0.919632 0.253182 0.567092 0.224566
H8    H     H_    0.868446 0.191984 0.779205 0.251041
H9    H     H_    0.878332 0.351055 0.843574 0.242223
H10   H     H_    0.972964 0.263437 0.807083 0.236091
H11   H     H_    0.981680 0.730801 0.297036 0.233043
H12   H     H_    0.935330 0.507275 0.704700 0.210513
H13   H     H_    0.831723 0.758804 0.240670 0.230651
H14   H     H_    0.867669 0.873382 0.367116 0.221447
H15   H     H_    0.804638 0.738286 0.414442 0.259078
H16   H     H_    0.413755 0.064870 0.199074 0.217643
H17   H     H_    0.520678 0.163516 0.074882 0.244268
H18   H     H_    0.569635 0.035081 0.157129 0.232619
H19   H     H_    0.584914 0.192265 0.223949 0.253826
H20   H     H_    0.613641 0.294646 0.920047 0.174174
H21   H     H_    0.720100 0.272217 0.850313 0.181095
H22   H     H_    0.703058 0.277093 0.028462 0.199726
H23   H     H_    0.627629 0.207965 0.681834 0.157808
H24   H     H_    0.448381 0.781246 0.900760 0.212203
H25   H     H_    0.308411 0.766867 0.815771 0.225513
H26   H     H_    0.338807 0.855818 0.672905 0.238458
H27   H     H_    0.335705 0.931410 0.839320 0.259020
H28   H     H_    0.176812 0.325254 0.851889 0.157034
H29   H     H_    0.161961 0.195846 0.965769 0.160987
H30   H     H_    0.143871 0.172593 0.788437 0.192134
H31   H     H_    0.619822 0.735017 0.894038 0.210414
H32   H     H_    0.729734 0.606153 0.981252 0.210696
H33   H     H_    0.749732 0.651980 0.810855 0.261858
H34   H     H_    0.557492 0.926166 0.960608 0.138898
H35   H     H_    0.708077 0.497184 0.840539 0.245326
H36   H     H_    0.097581 0.362712 0.116446 0.139123
H37   H     H_    0.190909 0.412613 0.217195 0.184306
H38   H     H_    0.156394 0.503912 0.080340 0.199748
H39   H     H_    0.951976 0.447379 0.146541 0.268706
H40   H     H_    0.817161 0.433600 0.086600 0.211847
H41   H     H_    0.786462 0.520086 0.233415 0.267427
H42   H     H_    0.805397 0.353288 0.241883 0.236231
H43   H     H_    0.992119 0.844763 0.710526 0.176678
H44   H     H_    0.897351 0.901682 0.636540 0.197583
H45   H     H_    0.445084 0.873940 0.301409 0.171996
H46   H     H_    0.988456 0.873804 0.532565 0.154904
H47   H     H_    0.602359 0.629324 0.132349 0.157754
H48   H     H_    0.063656 0.330188 0.598354 0.189572
H49   H     H_    0.383603 0.333862 0.239591 0.235752
H50   H     H_    0.282344 0.205762 0.113486 0.157812
N1    N     N_R   0.499210 0.498800 0.142780 -0.117661
N2    N     N_R   0.499180 0.498720 0.857170 -0.118929
N3    N     N_2   0.906353 0.322960 0.637263 -0.294869
N4    N     N_2   0.933244 0.705100 0.361073 -0.286774
N5    N     N_2   0.462735 0.109233 0.253616 -0.311017
N6    N     N_2   0.438776 0.813702 0.805455 -0.266396
N7    N     N_2   0.620960 0.642001 0.865031 -0.252680
N8    N     N_2   0.915441 0.472960 0.228343 -0.240792
O1    O     O_R   0.500000 0.316780 0.614690 -0.643080
O2    O     O_3   0.269740 0.188795 0.844529 -0.612181
O3    O     O_3   0.081756 0.515055 0.249694 -0.598458
O4    O     O_3   0.917885 0.714361 0.600472 -0.625552
O5    O     O_R   0.499990 0.316750 0.385360 -0.613837
O6    O     O_R   0.377150 0.500020 0.614720 -0.626924
O7    O     O_R   0.377140 0.499990 0.385380 -0.635017
O8    O     O_R   0.500010 0.683250 0.614640 -0.575528
O9    O     O_R   0.500000 0.683220 0.385310 -0.623231
O10   O     O_R   0.622860 0.500010 0.614620 -0.588175
O11   O     O_R   0.622850 0.499980 0.385280 -0.623261
O12   O     O_3   0.662160 0.114587 0.929937 -0.614792
Zn1   Zn    Zn3+2 0.500010 0.500020 0.653130 0.955437
Zn2   Zn    Zn3+2 0.499990 0.499980 0.346870 0.929663

loop_
_geom_bond_atom_site_label_1
_geom_bond_atom_site_label_2
_ccdc_geom_bond_type
H7    N3    S    
C39   O4    S    
C4    O7    A    
C35   H30   S    
H39   N8    S    
C12   C24   S    
C1    C8    S    
C18   N2    A    
C31   H17   S    
C39   H43   S    
H16   N5    S    
C16   O8    A    
C7    C8    A    
C25   C28   S    
C4    O6    A    
C12   C23   S    
C38   H42   S    
C34   C40   S    
C24   H1    S    
O6    Zn1   S    
C36   H33   S    
C5    C6    A    
C29   H10   S    
C28   C40   S    
C40   H5    S    
C30   H13   S    
C18   C19   A    
C23   C26   S    
C36   H32   S    
O7    Zn2   S    
C22   O11   A    
C10   H45   S    
C2    C44   A    
C8    C9    A    
N2    Zn1   S    
O9    Zn2   S    
C31   N5    S    
C15   O2    S    
C9    C10   A    
C1    O1    A    
C39   H46   S    
C33   H25   S    
O11   Zn2   S    
C21   N7    S    
C9    N5    S    
C13   C14   A    
C31   H18   S    
C37   H37   S    
C39   H44   S    
C24   H48   S    
C37   H36   S    
C20   H47   S    
C13   C19   A    
C38   H41   S    
C25   O3    S    
C34   O4    S    
C31   H19   S    
C17   H2    S    
C32   H20   S    
C35   O2    S    
C6    C11   A    
C25   C26   S    
C13   H49   S    
C36   N7    S    
O1    Zn1   S    
H24   N6    S    
C37   O3    S    
C11   C16   S    
C27   C41   T    
C5    N6    S    
N1    Zn2   S    
C23   C34   S    
C30   H15   S    
C17   C18   A    
C7    C44   A    
C12   N3    S    
C12   H12   S    
C33   H26   S    
C1    O5    A    
C4    C43   S    
C20   N1    A    
C35   H28   S    
C22   O10   A    
C22   C27   S    
C37   H38   S    
C42   C43   T    
C19   N1    A    
C32   H22   S    
C15   C17   A    
C25   H3    S    
C35   H29   S    
C38   H40   S    
C24   C28   S    
C3    C5    A    
C36   H35   S    
C6    C7    A    
C21   N2    A    
C26   H4    S    
C30   N4    S    
C23   C41   S    
C29   N3    S    
C33   N6    S    
C2    C3    A    
C38   N8    S    
C26   N8    S    
C2    O12   S    
C29   H9    S    
C40   H6    S    
C30   H14   S    
H11   N4    S    
C28   C42   S    
C34   N4    S    
O5    Zn2   S    
C10   C11   A    
C33   H27   S    
C20   C21   A    
H31   N7    S    
C14   C15   A    
C44   H23   S    
C32   O12   S    
C3    H34   S    
O8    Zn1   S    
C14   H50   S    
O10   Zn1   S    
C16   O9    A    
C32   H21   S    
C29   H8    S    
