data_mof_unit_55311.cif
_audit_creation_date              2012-12-11T14:00:03-0500
_audit_creation_method            fapswitch 2.2
_symmetry_space_group_name_H-M    P1
_symmetry_Int_Tables_number       1
_space_group_crystal_system       triclinic
_cell_length_a                    11.254983
_cell_length_b                    11.227748
_cell_length_c                    18.724467
_cell_angle_alpha                 89.601586
_cell_angle_beta                  90.06879
_cell_angle_gamma                 120.11439
_cell_volume                      2046.7454026

loop_
_atom_site_label
_atom_site_type_symbol
_atom_type_description
_atom_site_fract_x
_atom_site_fract_y
_atom_site_fract_z
_atom_type_partial_charge
C1    C     C_R   0.584102 0.446579 0.860162 0.574512
C2    C     C_R   0.480721 0.540717 0.350423 0.549635
C3    C     C_R   0.067262 0.521080 0.353271 0.551333
C4    C     C_R   0.458679 0.939431 0.350407 0.554242
C5    C     C_2   0.017960 0.512728 0.584288 -0.108669
C6    C     C_2   0.521440 0.492858 0.572082 -0.101426
C7    C     C_2   0.507746 0.028720 0.572306 -0.092627
C8    C     C_2   0.511614 0.017519 0.415384 -0.106123
C9    C     C_2   0.505671 0.486553 0.415432 -0.110764
C10   C     C_2   0.027429 0.506305 0.427612 -0.090931
C11   C     C_2   0.086964 0.457326 0.472378 -0.148372
C12   C     C_R   0.522855 0.064799 0.853591 0.547219
C13   C     C_2   0.620834 0.563105 0.451804 -0.162296
C14   C     C_2   0.434257 0.054461 0.452144 -0.163689
C15   C     C_2   0.456703 0.086458 0.527551 -0.149239
C16   C     C_2   0.630002 0.541032 0.527465 -0.151552
C17   C     C_2   0.055914 0.435699 0.548012 -0.163610
C18   C     C_2   0.009331 0.509380 0.920204 -0.151487
C19   C     C_2   0.568788 0.442469 0.938366 -0.154756
C20   C     C_2   0.508052 0.999860 0.923340 -0.147799
C21   C     C_2   0.510679 0.007508 0.078825 -0.154585
C22   C     C_2   0.508979 0.501974 0.079431 -0.154956
C23   C     C_R   0.937565 0.458727 0.852499 0.545329
C24   C     C_2   0.002570 0.509715 0.076005 -0.168026
C25   C     C_2   0.030591 0.622218 0.035143 -0.028030
C26   C     C_2   0.447401 0.372348 0.054565 -0.050077
C27   C     C_2   0.604472 0.992540 0.040101 -0.023176
C28   C     C_2   0.619599 0.023955 0.963134 -0.017845
C29   C     C_2   0.453686 0.353635 0.976038 -0.024193
C30   C     C_2   0.001691 0.608378 0.957784 -0.029178
C31   C     C_2   0.090741 0.764148 0.064388 0.365918
C32   C     C_2   0.368750 0.253284 0.104072 0.265338
C33   C     C_2   0.698084 0.947915 0.071799 0.339607
C34   C     C_R   0.480934 0.541988 0.148216 0.541182
C35   C     C_2   0.760898 0.080009 0.933079 0.346231
C36   C     C_2   0.323742 0.255810 0.940141 0.359966
C37   C     C_2   0.970164 0.710198 0.923525 0.329256
C38   C     C_R   0.065357 0.523300 0.146210 0.546468
C39   C     C_R   0.458779 0.937019 0.147132 0.554706
C40   C     C_R   0.546249 0.478714 0.646593 0.559304
C41   C     C_R   0.521799 0.068232 0.646590 0.553733
C42   C     C_R   0.939720 0.459156 0.649507 0.556075
Cr1   Cr    Cr6+3 0.464030 0.233680 0.750360 1.045854
Cr2   Cr    Cr6+3 0.766320 0.230350 0.750360 1.025464
Cr3   Cr    Cr6+3 0.769650 0.535970 0.750360 1.023810
Cr4   Cr    Cr6+3 0.233680 0.464030 0.249640 1.037630
Cr5   Cr    Cr6+3 0.230350 0.766320 0.249640 1.035810
Cr6   Cr    Cr6+3 0.535970 0.769650 0.249640 1.028782
H1    H     H_    0.154536 0.421967 0.452306 0.151525
H2    H     H_    0.546058 0.962686 0.553998 0.096482
H3    H     H_    0.417447 0.456483 0.553560 0.086006
H4    H     H_    0.027156 0.606063 0.561180 0.103840
H5    H     H_    0.950140 0.407277 0.053224 0.142571
H6    H     H_    0.570565 0.588659 0.044259 0.166866
H7    H     H_    0.455292 0.053219 0.054585 0.180516
H8    H     H_    0.406104 0.949227 0.946881 0.170474
H9    H     H_    0.661084 0.514204 0.966776 0.136913
H10   H     H_    0.049091 0.448746 0.944936 0.142767
H11   H     H_    0.052902 0.782526 0.113950 0.143047
H12   H     H_    0.708136 0.652104 0.427466 0.154160
H13   H     H_    0.387832 0.265675 0.161105 0.101589
H14   H     H_    0.744770 0.985259 0.123637 0.124720
H15   H     H_    0.776830 0.042847 0.882702 0.144202
H16   H     H_    0.264144 0.294142 0.913091 0.106953
H17   H     H_    0.009145 0.751000 0.870594 0.130866
H18   H     H_    0.344865 0.051689 0.428246 0.153083
H19   H     H_    0.419981 0.152957 0.547578 0.155056
H20   H     H_    0.732815 0.575895 0.547744 0.152781
H21   H     H_    0.054305 0.346859 0.572509 0.154707
H22   H     H_    0.960182 0.543134 0.445947 0.087028
H23   H     H_    0.421515 0.393005 0.438386 0.096156
H24   H     H_    0.605356 0.027831 0.437871 0.110092
O1    O     O_R   0.434100 0.092480 0.829780 -0.467976
O2    O     O_R   0.362730 0.477510 0.175360 -0.498657
O3    O     O_R   0.114780 0.637270 0.175360 -0.523634
O4    O     O_R   0.522490 0.885220 0.175360 -0.524817
O5    O     O_R   0.432250 0.092620 0.670380 -0.517880
O6    O     O_R   0.907380 0.339630 0.670380 -0.511435
O7    O     O_R   0.660370 0.567750 0.670380 -0.510327
O8    O     O_R   0.092620 0.432250 0.329620 -0.517677
O9    O     O_R   0.339630 0.907380 0.329620 -0.517165
O10   O     O_R   0.567750 0.660370 0.329620 -0.514507
O11   O     O_R   0.475790 0.362860 0.676880 -0.500835
O12   O     O_R   0.907520 0.341620 0.829780 -0.488792
O13   O     O_R   0.637140 0.112930 0.676880 -0.494972
O14   O     O_R   0.887070 0.524210 0.676880 -0.509675
O15   O     O_R   0.362860 0.475790 0.323120 -0.513102
O16   O     O_R   0.112930 0.637140 0.323120 -0.498840
O17   O     O_R   0.524210 0.887070 0.323120 -0.503291
O18   O     O_3   0.666667 0.333333 0.749450 -0.279451
O19   O     O_3   0.333333 0.666667 0.250550 -0.250347
O20   O     O_2   0.180580 0.862348 0.031586 -0.446094
O21   O     O_2   0.282340 0.140517 0.082392 -0.424048
O22   O     O_2   0.726195 0.871531 0.039068 -0.465126
O23   O     O_R   0.658380 0.565900 0.829780 -0.481985
O24   O     O_2   0.861088 0.165220 0.966017 -0.516311
O25   O     O_2   0.284259 0.132870 0.939427 -0.411345
O26   O     O_2   0.902525 0.751056 0.954950 -0.458004
O27   O     O_R   0.092480 0.434100 0.170220 -0.488132
O28   O     O_R   0.341620 0.907520 0.170220 -0.475617
O29   O     O_R   0.565900 0.658380 0.170220 -0.493196
O30   O     O_R   0.477510 0.362730 0.824640 -0.503438
O31   O     O_R   0.637270 0.114780 0.824640 -0.529296
O32   O     O_R   0.885220 0.522490 0.824640 -0.540422

loop_
_geom_bond_atom_site_label_1
_geom_bond_atom_site_label_2
_ccdc_geom_bond_type
C25   C31   S    
C5    C42   S    
C17   H21   S    
Cr1   O11   S    
Cr6   O4    S    
C20   H8    S    
C33   O22   D    
C22   H6    S    
C13   H12   S    
C35   O24   D    
C27   C33   S    
C26   C32   S    
C29   C36   S    
C32   H13   S    
Cr4   O15   S    
C41   O5    A    
C5    C17   D    
C42   O14   A    
C31   H11   S    
C9    C13   D    
Cr1   O1    S    
C18   H10   S    
C4    O9    A    
C28   C35   S    
C33   H14   S    
Cr6   O19   S    
C37   H17   S    
C24   C38   S    
C5    H4    S    
C36   O25   D    
C16   H20   S    
C6    H3    S    
C4    C8    S    
C7    C15   D    
C32   O21   D    
C21   C27   D    
C12   O1    A    
C40   O11   A    
C3    O8    A    
C37   O26   D    
Cr2   O31   S    
C38   O3    A    
C22   C34   S    
C1    C19   S    
C34   O29   A    
C8    H24   S    
C23   O12   A    
C18   C23   S    
Cr1   O18   S    
C24   C25   D    
C12   O31   A    
C21   H7    S    
Cr5   O9    S    
Cr4   O19   S    
C20   C28   D    
C24   H5    S    
C19   H9    S    
Cr5   O28   S    
C30   C37   S    
C11   H1    S    
Cr3   O32   S    
C23   O32   A    
C21   C39   S    
C1    O23   A    
C15   H19   S    
C12   C20   S    
C14   H18   S    
C40   O7    A    
C2    O15   A    
Cr3   O7    S    
C39   O4    A    
Cr3   O18   S    
C34   O2    A    
C18   C30   D    
C10   H22   S    
C42   O6    A    
Cr6   O17   S    
C6    C40   S    
C2    O10   A    
Cr2   O13   S    
C19   C29   D    
Cr4   O2    S    
Cr2   O18   S    
C4    O17   A    
C25   C30   S    
C11   C17   S    
C8    C14   D    
C3    O16   A    
Cr5   O19   S    
C9    H23   S    
C7    H2    S    
C38   O27   A    
Cr2   O12   S    
Cr1   O5    S    
C41   O13   A    
Cr5   O16   S    
Cr4   O27   S    
Cr2   O6    S    
Cr3   O14   S    
Cr1   O30   S    
Cr5   O3    S    
C3    C10   S    
Cr4   O8    S    
C39   O28   A    
Cr6   O29   S    
Cr6   O10   S    
C7    C41   S    
C10   C11   D    
C6    C16   D    
C26   C29   S    
C31   O20   D    
C22   C26   D    
C13   C16   S    
C27   C28   S    
C14   C15   S    
C35   H15   S    
C36   H16   S    
C2    C9    S    
C1    O30   A    
Cr3   O23   S    
