data_mof_unit_36224.cif
_audit_creation_date              2012-12-11T17:19:06-0500
_audit_creation_method            fapswitch 2.2
_symmetry_space_group_name_H-M    P1
_symmetry_Int_Tables_number       1
_space_group_crystal_system       triclinic
_cell_length_a                    14.639687
_cell_length_b                    7.261533
_cell_length_c                    13.469206
_cell_angle_alpha                 90.000339
_cell_angle_beta                  99.859771
_cell_angle_gamma                 89.999274
_cell_volume                      1410.71615955

loop_
_atom_site_label
_atom_site_type_symbol
_atom_type_description
_atom_site_fract_x
_atom_site_fract_y
_atom_site_fract_z
_atom_type_partial_charge
O1    O     O_R   0.648180 0.355050 0.151550 -0.514324
O2    O     O_R   0.351820 0.644950 0.848450 -0.514323
O3    O     O_R   0.851820 0.855050 0.348450 -0.514332
O4    O     O_R   0.148180 0.144950 0.651550 -0.514332
O5    O     O_R   0.835240 0.681980 0.154280 -0.532855
O6    O     O_R   0.164760 0.318020 0.845720 -0.532855
O7    O     O_R   0.664760 0.181980 0.345720 -0.532851
O8    O     O_R   0.335240 0.818020 0.654280 -0.532851
C1    C     C_R   0.865129 0.516431 0.134890 0.757795
C2    C     C_R   0.134871 0.483569 0.865110 0.757796
C3    C     C_R   0.634872 0.016433 0.365112 0.757794
C4    C     C_R   0.365128 0.983567 0.634888 0.757793
O9    O     O_R   0.647870 0.684600 0.139630 -0.512930
O10   O     O_R   0.352130 0.315400 0.860370 -0.512931
O11   O     O_R   0.852130 0.184600 0.360370 -0.512924
O12   O     O_R   0.147870 0.815400 0.639630 -0.512925
O13   O     O_R   0.663110 0.857440 0.333700 -0.529034
O14   O     O_R   0.336890 0.142560 0.666300 -0.529034
O15   O     O_R   0.836890 0.357440 0.166300 -0.529031
O16   O     O_R   0.163110 0.642560 0.833700 -0.529031
C5    C     C_R   0.615032 0.515992 0.113235 0.705152
C6    C     C_R   0.384967 0.484008 0.886765 0.705151
C7    C     C_R   0.884967 0.015991 0.386765 0.705151
C8    C     C_R   0.115033 0.984009 0.613235 0.705151
O17   O     O_3   0.755220 0.522230 0.313690 -0.355682
O18   O     O_3   0.244780 0.477770 0.686310 -0.355682
O19   O     O_3   0.744780 0.022230 0.186310 -0.355681
O20   O     O_3   0.255220 0.977770 0.813690 -0.355681
V1    V     V_3+5 0.749030 0.796100 0.238190 1.672195
V2    V     V_3+5 0.250970 0.203900 0.761810 1.672195
V3    V     V_3+5 0.750970 0.296100 0.261810 1.672206
V4    V     V_3+5 0.249030 0.703900 0.738190 1.672206
C9    C     C_1   0.966032 0.005369 0.466750 -0.039608
C10   C     C_1   0.033968 0.994631 0.533250 -0.039608
C11   C     C_1   0.533968 0.505369 0.033250 -0.039605
C12   C     C_1   0.466032 0.494631 0.966750 -0.039606
H1    H     H_    0.199816 0.958643 0.295572 0.177803
H2    H     H_    0.800184 0.041356 0.704428 0.177803
H3    H     H_    0.300189 0.458728 0.204423 0.177806
H4    H     H_    0.699811 0.541272 0.795576 0.177806
C13   C     C_R   0.570061 0.002143 0.714205 0.268819
C14   C     C_R   0.429939 0.997857 0.285795 0.268819
C15   C     C_R   0.929937 0.502146 0.785795 0.268813
C16   C     C_R   0.070062 0.497853 0.214205 0.268813
C17   C     C_R   0.666340 0.017957 0.747280 0.390701
C18   C     C_R   0.333660 0.982043 0.252719 0.390701
C19   C     C_R   0.833657 0.517930 0.752721 0.390697
C20   C     C_R   0.166343 0.482070 0.247279 0.390697
C21   C     C_R   0.726157 0.029880 0.678468 -0.154773
C22   C     C_R   0.273843 0.970120 0.321532 -0.154773
C23   C     C_R   0.773839 0.529820 0.821535 -0.154772
C24   C     C_R   0.226161 0.470179 0.178465 -0.154772
C25   C     C_R   0.692284 0.026004 0.576187 -0.117600
C26   C     C_R   0.307716 0.973996 0.423813 -0.117600
C27   C     C_R   0.807714 0.525950 0.923816 -0.117593
C28   C     C_R   0.192286 0.474050 0.076184 -0.117593
C29   C     C_R   0.596111 0.012504 0.538273 0.019935
C30   C     C_R   0.403889 0.987496 0.461727 0.019935
C31   C     C_R   0.903888 0.512481 0.961729 0.019937
C32   C     C_R   0.096111 0.487519 0.038271 0.019937
C33   C     C_R   0.532506 0.002066 0.607704 -0.062988
C34   C     C_R   0.467494 0.997934 0.392296 -0.062988
C35   C     C_R   0.967493 0.502062 0.892296 -0.062994
C36   C     C_R   0.032507 0.497938 0.107704 -0.062994
C37   C     C_R   0.564469 0.008883 0.432201 -0.095005
C38   C     C_R   0.435531 0.991116 0.567799 -0.095005
C39   C     C_R   0.935531 0.508873 0.067800 -0.095007
C40   C     C_R   0.064469 0.491127 0.932199 -0.095007
H5    H     H_    0.743466 0.034371 0.527254 0.120805
H6    H     H_    0.256534 0.965629 0.472746 0.120805
H7    H     H_    0.756533 0.534294 0.972750 0.120797
H8    H     H_    0.243467 0.465706 0.027250 0.120797
Cl1   Cl    Cl    0.715884 0.022431 0.876313 -0.615687
Cl2   Cl    Cl    0.284116 0.977569 0.123687 -0.615687
Cl3   Cl    Cl    0.784110 0.522412 0.623690 -0.615689
Cl4   Cl    Cl    0.215890 0.477588 0.376310 -0.615689
Cl5   Cl    Cl    0.503749 0.978082 0.811906 -0.582721
Cl6   Cl    Cl    0.496251 0.021918 0.188094 -0.582721
Cl7   Cl    Cl    0.996251 0.478150 0.688090 -0.582717
Cl8   Cl    Cl    0.003749 0.521849 0.311910 -0.582718

loop_
_geom_bond_atom_site_label_1
_geom_bond_atom_site_label_2
_ccdc_geom_bond_type
O17   V3    S    
C30   C34   A    
C27   C31   A    
O19   V1    S    
O13   V1    S    
C20   Cl4   S    
O3    C7    A    
C11   C12   T    
C13   C33   A    
O15   V3    S    
C15   C35   A    
H2    C21   S    
C16   C36   A    
O1    C5    A    
C22   C26   A    
O2    V4    S    
O9    V1    S    
C13   Cl5   S    
O4    C8    A    
C15   Cl7   S    
O1    V3    S    
C17   Cl1   S    
C14   C18   A    
O3    V1    S    
C31   C39   A    
C33   C38   A    
C30   C38   A    
C2    O16   A    
C28   H8    S    
O2    C6    A    
O14   V2    S    
C14   C34   A    
O11   C7    A    
H3    C24   S    
C25   H5    S    
O12   C8    A    
O10   V2    S    
C1    O15   A    
O5    V1    S    
O7    V3    S    
O8    V4    S    
C36   C39   A    
C16   Cl8   S    
C25   C29   A    
O18   V4    S    
C19   C23   A    
C7    C9    S    
C4    C38   S    
C8    C10   S    
C28   C32   A    
O7    C3    A    
C1    C39   S    
O5    C1    A    
C26   H6    S    
C17   C21   A    
O8    C4    A    
C26   C30   A    
C9    C10   T    
O9    C5    A    
C29   C33   A    
O6    V2    S    
C14   Cl6   S    
C18   Cl2   S    
O16   V4    S    
C35   C40   A    
C3    O13   A    
C34   C37   A    
C3    C37   S    
C29   C37   A    
O6    C2    A    
O11   V3    S    
C5    C11   S    
C2    C40   S    
O12   V4    S    
H4    C23   S    
C6    C12   S    
C18   C22   A    
C31   C35   A    
C32   C36   A    
O10   C6    A    
O20   V2    S    
C19   Cl3   S    
H1    C22   S    
C21   C25   A    
C23   C27   A    
O4    V2    S    
C24   C28   A    
C20   C24   A    
C32   C40   A    
C4    O14   A    
C13   C17   A    
C15   C19   A    
C27   H7    S    
C16   C20   A    
