data_mof_unit_18910.cif
_audit_creation_date              2013-03-05T15:46:25-0500
_audit_creation_method            fapswitch 2.2
_symmetry_space_group_name_H-M    P1
_symmetry_Int_Tables_number       1
_space_group_crystal_system       triclinic
_cell_length_a                    15.894062
_cell_length_b                    10.924542
_cell_length_c                    9.875741
_cell_angle_alpha                 110.89403
_cell_angle_beta                  97.962735
_cell_angle_gamma                 91.567258
_cell_volume                      1581.10188538

loop_
_atom_site_label
_atom_site_type_symbol
_atom_site_description
_atom_site_fract_x
_atom_site_fract_y
_atom_site_fract_z
_atom_type_partial_charge
O1    O     O_R   0.507820 0.332330 0.577400 -0.574061
O2    O     O_R   0.483070 0.295500 0.332660 -0.523678
C1    C     C_R   0.491344 0.253370 0.441128 0.827456
O3    O     O_R   0.391820 0.518430 0.622420 -0.567415
O4    O     O_R   0.367070 0.481600 0.377680 -0.569296
C2    C     C_R   0.340531 0.500095 0.501267 0.829276
Cu1   Cu    Cu3+1 0.514650 0.521810 0.644910 1.070222
Cu2   Cu    Cu3+1 0.485350 0.478190 0.355090 1.084695
O5    O     O_R   0.516930 0.704500 0.667340 -0.586978
O6    O     O_R   0.492180 0.667670 0.422600 -0.561074
O7    O     O_R   0.632930 0.518400 0.622320 -0.572748
O8    O     O_R   0.608180 0.481570 0.377580 -0.524196
C3    C     C_R   0.504431 0.746908 0.559032 0.720021
C4    C     C_R   0.659459 0.499741 0.498658 0.830728
C5    C     C_3   0.047953 0.372837 0.524958 0.199616
C6    C     C_3   0.036272 0.493342 0.344520 0.025079
C7    C     C_3   0.937100 0.478403 0.339335 0.066311
H1    H     H_    0.051579 0.284161 0.426835 0.271673
H2    H     H_    0.052186 0.591531 0.339715 0.180362
H3    H     H_    0.911073 0.562227 0.312306 0.141941
C8    C     C_1   0.748614 0.497933 0.495709 -0.039199
C9    C     C_3   0.082950 0.496049 0.497176 -0.102281
C10   C     C_3   0.952627 0.383075 0.545699 0.183986
C11   C     C_3   0.916201 0.494637 0.495641 -0.155705
C12   C     C_3   0.962161 0.630086 0.603953 0.003565
C13   C     C_3   0.061006 0.623948 0.618519 0.073234
C14   C     C_1   0.823919 0.496304 0.494901 0.103324
C15   C     C_1   0.175672 0.498159 0.501695 0.206236
C16   C     C_1   0.251241 0.499507 0.503214 -0.056171
H4    H     H_    0.087769 0.622339 0.728029 0.181134
H5    H     H_    0.948619 0.407928 0.663783 0.187262
H6    H     H_    0.944938 0.704506 0.553655 0.186299
H7    H     H_    0.428831 0.852690 0.378853 0.142021
C17   C     C_2   0.485627 0.111658 0.411044 0.040521
C18   C     C_2   0.450668 0.063946 0.502327 0.275974
C19   C     C_2   0.499481 0.888656 0.589528 0.311315
C20   C     C_2   0.456935 0.925440 0.484661 -0.136031
H8    H     H_    0.446686 0.410843 0.849044 0.127413
N1    N     N_2   0.463320 0.445430 0.137380 -0.344853
C21   C     C_2   0.515239 0.498777 0.078674 0.409704
N2    N     N_2   0.536720 0.554500 0.862620 -0.019316
C22   C     C_2   0.495972 0.485432 0.920388 0.086362
H9    H     H_    0.406572 0.399232 0.072583 0.203073
O9    O     O_3   0.906137 0.260752 0.467716 -0.613744
H10   H     H_    0.854895 0.258753 0.514354 0.355123
O10   O     O_3   0.098051 0.352315 0.643260 -0.654502
H11   H     H_    0.090725 0.423604 0.735708 0.348084
N3    N     N_R   0.399202 0.141512 0.606310 0.131704
O11   O     O_R   0.347207 0.218950 0.570463 -0.365164
O12   O     O_R   0.391038 0.115221 0.722630 -0.274821
O13   O     O_3   0.537650 0.982909 0.721344 -0.639370
H12   H     H_    0.568767 0.938069 0.781837 0.361235
N4    N     N_R   0.526384 0.028318 0.293860 0.113532
O14   O     O_R   0.516460 0.042818 0.167597 -0.273618
O15   O     O_R   0.584484 0.954824 0.320636 -0.269338
N5    N     N_R   0.596331 0.560644 0.160780 0.200853
O16   O     O_R   0.665198 0.505705 0.122061 -0.267159
O17   O     O_R   0.602683 0.682515 0.249745 -0.259577
O18   O     O_3   0.591621 0.655392 0.952494 -0.520792
H13   H     H_    0.615548 0.693137 0.887290 0.385722
N6    N     N_R   0.064556 0.397155 0.214683 0.175009
O19   O     O_R   0.114066 0.306586 0.223991 -0.310367
O20   O     O_R   0.042129 0.406165 0.086961 -0.255831
N7    N     N_R   0.894702 0.357324 0.223379 0.214807
O21   O     O_R   0.830875 0.365608 0.130031 -0.242942
O22   O     O_R   0.923656 0.243010 0.204004 -0.204579
O23   O     O_3   0.099016 0.736124 0.605138 -0.694685
H14   H     H_    0.094152 0.811530 0.696075 0.380981
N8    N     N_R   0.933881 0.675135 0.748352 0.141780
O24   O     O_R   0.958101 0.622557 0.845140 -0.331137
O25   O     O_R   0.888398 0.775738 0.784535 -0.267001

loop_
_geom_bond_atom_site_label_1
_geom_bond_atom_site_label_2
_geom_bond_distance
_ccdc_geom_bond_type
O4    Cu2   1.923402 S    
N1    H9    1.030809 S    
C10   C11   1.566527 S    
C11   C12   1.569324 S    
C13   H4    1.112377 S    
Cu2   N1    2.027093 S    
C5    H1    1.108944 S    
N2    C22   1.302660 D    
N6    O19   1.301563 A    
C1    C17   1.466285 S    
C11   C14   1.466383 S    
O8    C4    1.298195 A    
Cu2   O8    1.931867 S    
N7    O21   1.301012 A    
C7    H3    1.115995 S    
C12   H6    1.115897 S    
N3    O12   1.301366 A    
O2    C1    1.300980 A    
C8    C14   1.198607 T    
N8    O25   1.301193 A    
O18   H13   0.988926 S    
N7    O22   1.301291 A    
C9    C15   1.467503 S    
N4    O14   1.300999 A    
N5    O16   1.301059 A    
Cu1   O7    1.923401 S    
C15   C16   1.198733 T    
N8    O24   1.301354 A    
C19   O13   1.383414 S    
C17   N4    1.440934 S    
O3    Cu1   1.931868 S    
C13   O23   1.407609 S    
C4    C8    1.421896 S    
C21   C22   1.503659 S    
N3    O11   1.301832 A    
C18   C20   1.467868 S    
N5    O17   1.299384 A    
H8    C22   1.084757 S    
N4    O15   1.300628 A    
C7    N7    1.473811 S    
C6    H2    1.114291 S    
O4    C2    1.296075 A    
C17   C18   1.360586 D    
O7    C4    1.296382 A    
H7    C20   1.087182 S    
C7    C11   1.573094 S    
C12   N8    1.472053 S    
C6    N6    1.474758 S    
C5    C10   1.558510 S    
O23   H14   0.993042 S    
Cu1   O5    1.926682 S    
Cu1   Cu2   2.698478 S    
C2    C16   1.421837 S    
O9    H10   0.993012 S    
N2    O18   1.341297 S    
C3    C19   1.474933 S    
Cu2   O6    1.929867 S    
O3    C2    1.298506 A    
C9    C13   1.567839 S    
N1    C21   1.305362 D    
N6    O20   1.301407 A    
O5    C3    1.303002 A    
O10   H11   0.990391 S    
C19   C20   1.344990 D    
C6    C9    1.575188 S    
C5    O10   1.410004 S    
C21   N5    1.430876 S    
C12   C13   1.563141 S    
O1    Cu1   1.929866 S    
C5    C9    1.568849 S    
O2    Cu2   1.926679 S    
C10   O9    1.406805 S    
O13   H12   0.990762 S    
Cu1   N2    2.027264 S    
C18   N3    1.446255 S    
C6    C7    1.572076 S    
O1    C1    1.298375 A    
O6    C3    1.299540 A    
C10   H5    1.110593 S    
