data_mof_unit_44257.cif
_audit_creation_date              2012-12-10T20:42:36-0500
_audit_creation_method            fapswitch 2.2
_symmetry_space_group_name_H-M    P1
_symmetry_Int_Tables_number       1
_space_group_crystal_system       triclinic
_cell_length_a                    8.955049
_cell_length_b                    10.757638
_cell_length_c                    9.926234
_cell_angle_alpha                 88.440487
_cell_angle_beta                  89.234371
_cell_angle_gamma                 90.449199
_cell_volume                      955.773761686

loop_
_atom_site_label
_atom_site_type_symbol
_atom_type_description
_atom_site_fract_x
_atom_site_fract_y
_atom_site_fract_z
_atom_type_partial_charge
C1    C     C_R   0.505006 0.260342 0.500556 0.929292
C2    C     C_R   0.537524 0.939882 0.373385 0.361502
C3    C     C_R   0.510126 0.871674 0.494279 -0.208710
C4    C     C_R   0.496608 0.931829 0.616214 -0.160419
C5    C     C_3   0.603145 0.919456 0.730356 0.514443
C6    C     C_3   0.610193 0.059322 0.728760 0.427183
C7    C     C_R   0.370783 0.481856 0.074052 0.079051
C8    C     C_R   0.621033 0.539972 0.069963 -0.189245
C9    C     C_R   0.621271 0.542751 0.925285 0.516307
C10   C     C_R   0.375385 0.464682 0.934435 0.009335
C11   C     C_3   0.289484 0.340756 0.959284 0.853305
C12   C     C_R   0.218839 0.501636 0.500354 0.892389
C13   C     C_3   0.263313 0.381749 0.104581 -0.537335
C14   C     C_R   0.504343 0.739561 0.498002 0.949425
C15   C     C_R   0.781202 0.501686 0.499237 0.946008
C16   C     C_1   0.065398 0.503597 0.499958 -0.186904
C17   C     C_1   0.934723 0.503758 0.498175 -0.207590
C18   C     C_R   0.498499 0.059913 0.618387 -0.189120
C19   C     C_R   0.512290 0.128147 0.498272 -0.186136
C20   C     C_R   0.537067 0.068154 0.375771 0.504009
H1    H     H_    0.149902 0.419573 0.123508 0.188869
H2    H     H_    0.303482 0.321623 0.188328 0.211541
H3    H     H_    0.551686 0.874923 0.821805 0.027540
H4    H     H_    0.571382 0.103863 0.821788 0.112887
H5    H     H_    0.717071 0.572308 0.123744 0.151894
N1    N     N_R   0.499010 0.499140 0.142800 -0.090886
N2    N     N_R   0.499010 0.499180 0.857150 -0.153449
O1    O     O_R   0.500020 0.316790 0.614690 -0.624390
O2    O     O_R   0.500000 0.316760 0.385350 -0.570612
O3    O     O_R   0.285350 0.500020 0.614650 -0.632875
O4    O     O_R   0.285340 0.499980 0.385310 -0.622054
O5    O     O_R   0.500000 0.683240 0.614650 -0.583468
O6    O     O_R   0.499980 0.683210 0.385310 -0.594950
O7    O     O_R   0.714660 0.500020 0.614690 -0.573164
O8    O     O_R   0.714650 0.499980 0.385350 -0.631210
Zn1   Zn    Zn3+2 0.500010 0.500020 0.653130 1.013373
Zn2   Zn    Zn3+2 0.499990 0.499980 0.346870 0.988359
F1    F     F_    0.572507 0.132453 0.259812 -0.653975
O9    O     O_3   0.377087 0.229580 0.957178 -0.641028
C21   C     C_3   0.304460 0.130909 0.033851 0.099889
H6    H     H_    0.180233 0.135703 0.030734 0.152795
H7    H     H_    0.337212 0.133124 0.140721 0.209075
C22   C     C_3   0.349865 0.003831 0.985498 -0.850394
H8    H     H_    0.470069 0.989474 0.004394 0.281000
H9    H     H_    0.286230 0.930484 0.043095 0.236101
H10   H     H_    0.325688 0.994433 0.877081 0.217005
O10   O     O_3   0.569803 0.883020 0.253129 -0.585566
C23   C     C_3   0.726828 0.874808 0.235999 0.165705
H11   H     H_    0.762825 0.779510 0.266064 0.142292
H12   H     H_    0.792086 0.942267 0.296090 0.150097
C24   C     C_3   0.767714 0.899024 0.088334 -0.799852
H13   H     H_    0.732766 0.993933 0.056135 0.277872
H14   H     H_    0.890513 0.892538 0.073966 0.207875
H15   H     H_    0.711880 0.829533 0.024975 0.268369
F2    F     F_    0.737342 0.866107 0.692602 -0.603210
F3    F     F_    0.745795 0.103952 0.681038 -0.655441
O11   O     O_3   0.737541 0.599433 0.852608 -0.569744
C25   C     C_3   0.878231 0.548891 0.887229 0.162504
H16   H     H_    0.935081 0.522359 0.792710 0.203680
H17   H     H_    0.872911 0.463223 0.953195 0.133636
C26   C     C_3   0.976381 0.647108 0.950565 -0.856661
H18   H     H_    0.935485 0.667571 0.053321 0.225888
H19   H     H_    0.092512 0.612643 0.958148 0.228650
H20   H     H_    0.977242 0.733868 0.887268 0.295463
O12   O     O_3   0.152442 0.335168 0.889236 -0.672322
C27   C     C_3   0.160228 0.259715 0.774814 0.038794
H21   H     H_    0.203034 0.165495 0.796177 0.183249
H22   H     H_    0.231168 0.301634 0.694780 0.190467
C28   C     C_3   0.004342 0.240516 0.723866 -0.713102
H23   H     H_    0.951762 0.330220 0.697857 0.243809
H24   H     H_    0.007868 0.182163 0.633278 0.251882
H25   H     H_    0.937449 0.193809 0.805741 0.301000

loop_
_geom_bond_atom_site_label_1
_geom_bond_atom_site_label_2
_ccdc_geom_bond_type
C10   N2    A    
C8    C9    A    
C7    C10   A    
C27   H22   S    
C22   H8    S    
N1    Zn2   S    
C15   C17   S    
N2    Zn1   S    
C1    O1    A    
C8    N1    A    
C15   O7    A    
O7    Zn1   S    
C19   C20   A    
C5    H3    S    
O3    Zn1   S    
C24   H15   S    
C6    H4    S    
C14   O6    A    
C23   H12   S    
C2    C3    A    
C4    C18   A    
C14   O5    A    
C26   H20   S    
C11   O9    S    
C8    H5    S    
C22   H9    S    
O1    Zn1   S    
O11   C25   S    
C26   H18   S    
C3    C14   S    
C7    N1    A    
C23   C24   S    
C25   C26   S    
C6    C18   S    
C5    C6    S    
O5    Zn1   S    
C15   O8    A    
C23   H11   S    
O8    Zn2   S    
C13   H2    S    
C27   H21   S    
C25   H17   S    
C9    O11   S    
O12   C27   S    
C12   O4    A    
C28   H23   S    
C2    O10   S    
C22   H10   S    
C1    C19   S    
C27   C28   S    
C16   C17   T    
C10   C11   S    
C1    O2    A    
C13   H1    S    
C24   H13   S    
O10   C23   S    
C11   O12   S    
C11   C13   S    
C28   H25   S    
C20   F1    S    
C9    N2    A    
C26   H19   S    
C18   C19   A    
O2    Zn2   S    
O9    C21   S    
C28   H24   S    
C21   H7    S    
C21   H6    S    
C7    C13   S    
O4    Zn2   S    
C12   O3    A    
C25   H16   S    
C2    C20   A    
C5    F2    S    
C21   C22   S    
O6    Zn2   S    
C3    C4    A    
C12   C16   S    
C6    F3    S    
C4    C5    S    
C24   H14   S    
