data_mof_unit_35910.cif
_audit_creation_date              2012-12-10T18:12:42-0500
_audit_creation_method            fapswitch 2.2
_symmetry_space_group_name_H-M    P1
_symmetry_Int_Tables_number       1
_space_group_crystal_system       triclinic
_cell_length_a                    12.608938
_cell_length_b                    13.092002
_cell_length_c                    15.700209
_cell_angle_alpha                 90.829034
_cell_angle_beta                  102.430169
_cell_angle_gamma                 82.181785
_cell_volume                      2507.15869376

loop_
_atom_site_label
_atom_site_type_symbol
_atom_type_description
_atom_site_fract_x
_atom_site_fract_y
_atom_site_fract_z
_atom_type_partial_charge
C1    C     C_R   0.438592 0.691245 0.487041 0.856884
C2    C     C_R   0.595324 0.199416 0.498751 -0.056256
C3    C     C_R   0.300742 0.838298 0.503420 -0.185334
C4    C     C_R   0.500812 0.500585 0.661851 0.917358
C5    C     C_R   0.271212 0.943594 0.510498 -0.158243
C6    C     C_R   0.342211 0.011499 0.497499 -0.200827
C7    C     C_R   0.442082 0.974581 0.472709 0.082182
C8    C     C_R   0.462082 0.870030 0.451341 0.087670
C9    C     C_R   0.524175 0.037202 0.470518 0.069345
C10   C     C_R   0.614279 0.000820 0.432395 0.164947
C11   C     C_R   0.621957 0.902297 0.397457 -0.279488
C12   C     C_3   0.500630 0.508632 0.917356 0.212869
C13   C     C_R   0.547263 0.836968 0.407557 -0.215266
C14   C     C_R   0.521273 0.133625 0.508800 -0.268765
C15   C     C_R   0.684716 0.163936 0.461654 -0.192214
C16   C     C_R   0.560951 0.308545 0.508276 0.857165
C17   C     C_R   0.397967 0.800912 0.476763 -0.107005
C18   C     C_R   0.088381 0.351052 0.371360 -0.319951
C19   C     C_R   0.808495 0.619239 0.612439 -0.012089
C20   C     C_R   0.920245 0.618798 0.650910 -0.182048
C21   C     C_R   0.998780 0.556765 0.616391 0.412280
C22   C     C_R   0.966762 0.508494 0.535556 -0.141487
C23   C     C_3   0.413985 0.465831 0.011615 0.053909
C24   C     C_R   0.854475 0.498835 0.506046 0.141528
C25   C     C_R   0.043082 0.464416 0.486545 -0.015310
C26   C     C_R   0.011089 0.394381 0.418934 0.128730
C27   C     C_R   0.902287 0.371594 0.399701 -0.063916
C28   C     C_R   0.498968 0.500510 0.338123 0.885630
C29   C     C_R   0.825547 0.426338 0.441691 -0.225951
C30   C     C_R   0.149687 0.491580 0.500244 -0.020737
C31   C     C_R   0.194436 0.375745 0.392269 0.008564
C32   C     C_3   0.489117 0.607956 0.026902 -0.183709
C33   C     C_3   0.584621 0.554180 0.987694 -0.149415
C34   C     C_3   0.497083 0.510742 0.082464 0.172624
C35   C     C_1   0.502210 0.503565 0.751189 -0.205136
C36   C     C_1   0.496335 0.504464 0.248699 -0.185359
C37   C     C_3   0.404956 0.562701 0.954415 -0.218628
C38   C     C_R   0.865297 0.290805 0.336892 0.117136
C39   C     C_R   0.919302 0.188983 0.347347 -0.177823
C40   C     C_R   0.882235 0.112540 0.289862 -0.161705
C41   C     C_R   0.789247 0.136221 0.223082 -0.106025
C42   C     C_R   0.733644 0.236594 0.213224 -0.137380
C43   C     C_R   0.771606 0.313774 0.269540 -0.170584
C44   C     C_R   0.727873 0.685865 0.651736 0.215378
C45   C     C_3   0.508661 0.411187 0.972769 -0.213120
C46   C     C_R   0.707443 0.658474 0.732423 -0.109536
C47   C     C_R   0.641701 0.726963 0.774874 -0.155144
C48   C     C_R   0.600024 0.825055 0.739225 -0.121976
C49   C     C_R   0.625616 0.855227 0.661935 -0.139252
C50   C     C_R   0.690176 0.786297 0.618775 -0.136388
C51   C     C_3   0.122027 0.436996 0.702039 0.072872
C52   C     C_3   0.233514 0.419598 0.764840 -0.293027
C53   C     C_3   0.259559 0.309478 0.801114 -0.984668
C54   C     C_R   0.956520 0.680112 0.729268 0.200521
C55   C     C_R   0.967296 0.784396 0.720157 -0.137092
C56   C     C_3   0.592521 0.457017 0.044888 -0.185800
C57   C     C_R   0.002380 0.842278 0.793882 -0.137120
C58   C     C_R   0.027006 0.796308 0.876894 -0.118920
C59   C     C_R   0.016235 0.692462 0.886341 -0.157183
C60   C     C_R   0.980980 0.634404 0.812811 -0.123159
C61   C     C_R   0.317133 0.420734 0.029132 0.125899
C62   C     C_R   0.315430 0.313732 0.027879 -0.153233
C63   C     C_R   0.225232 0.272962 0.045260 -0.141747
C64   C     C_R   0.136608 0.338590 0.064411 -0.115031
C65   C     C_R   0.138172 0.445115 0.066438 -0.140291
C66   C     C_R   0.228242 0.486123 0.049175 -0.153891
C67   C     C_1   0.502219 0.506294 0.826627 -0.090630
C68   C     C_1   0.496087 0.508267 0.173337 -0.086915
C69   C     C_R   0.695235 0.063792 0.429948 -0.193884
H1    H     H_    0.655023 0.590148 0.975805 0.121010
H2    H     H_    0.481271 0.688135 0.051070 0.134865
H3    H     H_    0.744568 0.406602 0.425784 0.212875
H4    H     H_    0.669911 0.415026 0.083429 0.134998
H5    H     H_    0.517940 0.331202 0.948360 0.121808
H6    H     H_    0.328378 0.605834 0.915441 0.140660
H7    H     H_    0.742783 0.214682 0.453499 0.160133
H8    H     H_    0.688252 0.874209 0.365630 0.148710
H9    H     H_    0.764401 0.036554 0.401250 0.146121
H10   H     H_    0.989700 0.168734 0.400263 0.131354
H11   H     H_    0.924575 0.034497 0.298006 0.127594
H12   H     H_    0.458998 0.161424 0.544341 0.148863
H13   H     H_    0.759854 0.076627 0.179340 0.119283
H14   H     H_    0.660935 0.254463 0.162026 0.127849
H15   H     H_    0.727900 0.391314 0.260836 0.137958
H16   H     H_    0.742485 0.583969 0.762305 0.122233
H17   H     H_    0.624426 0.704560 0.836018 0.132172
H18   H     H_    0.550012 0.878486 0.772502 0.128948
H19   H     H_    0.597016 0.932651 0.636451 0.144045
H20   H     H_    0.713404 0.811716 0.561038 0.137119
H21   H     H_    0.121445 0.378633 0.649750 0.147342
H22   H     H_    0.057845 0.425253 0.738512 0.127845
H23   H     H_    0.249286 0.786013 0.521361 0.155717
H24   H     H_    0.297494 0.434105 0.729673 0.246654
H25   H     H_    0.234243 0.474372 0.819580 0.226192
H26   H     H_    0.198384 0.293977 0.838994 0.273190
H27   H     H_    0.342228 0.298706 0.844665 0.263531
H28   H     H_    0.259121 0.253474 0.747259 0.259983
H29   H     H_    0.948585 0.820608 0.656097 0.114190
H30   H     H_    0.010608 0.922725 0.786664 0.125629
H31   H     H_    0.054254 0.841186 0.933888 0.121323
H32   H     H_    0.034911 0.657050 0.950637 0.124535
H33   H     H_    0.971981 0.554337 0.821032 0.108978
H34   H     H_    0.316106 0.092391 0.505480 0.134685
H35   H     H_    0.383699 0.261722 0.013901 0.115986
H36   H     H_    0.224147 0.190434 0.044049 0.126741
H37   H     H_    0.066924 0.306897 0.077945 0.124582
H38   H     H_    0.069695 0.495906 0.081549 0.124129
H39   H     H_    0.228717 0.568780 0.051371 0.121009
H40   H     H_    0.195518 0.972403 0.530049 0.136727
H41   H     H_    0.557202 0.760208 0.381349 0.170398
H42   H     H_    0.254714 0.341364 0.356877 0.146586
H43   H     H_    0.067872 0.299640 0.317627 0.161996
H44   H     H_    0.176193 0.551648 0.544155 0.184678
N1    N     N_R   0.222180 0.444680 0.455580 -0.115773
N2    N     N_R   0.776980 0.554790 0.543960 -0.134636
O1    O     O_R   0.366730 0.627160 0.478790 -0.617530
O2    O     O_R   0.544830 0.662520 0.507160 -0.603375
O3    O     O_R   0.410960 0.482330 0.609040 -0.615875
O4    O     O_R   0.589060 0.517690 0.637410 -0.610060
O5    O     O_R   0.455170 0.337480 0.492840 -0.612344
O6    O     O_R   0.633270 0.372840 0.521210 -0.636358
O7    O     O_R   0.410940 0.482310 0.362590 -0.605815
O8    O     O_R   0.589040 0.517670 0.390960 -0.642491
O9    O     O_3   0.104603 0.538074 0.666300 -0.653580
Zn1   Zn    Zn3+2 0.381080 0.476390 0.481050 0.942433
Zn2   Zn    Zn3+2 0.618920 0.523610 0.518950 0.929348

loop_
_geom_bond_atom_site_label_1
_geom_bond_atom_site_label_2
_ccdc_geom_bond_type
C34   C56   S    
C8    C13   A    
C23   C45   S    
C27   C29   A    
C41   C42   A    
C19   C20   A    
C18   C26   A    
C16   O6    A    
C28   O8    A    
C7    C8    A    
C54   C60   A    
C52   C53   S    
C26   C27   A    
C62   C63   A    
N2    Zn2   S    
C18   H43   S    
C16   O5    A    
C51   H21   S    
C38   C39   A    
C28   O7    A    
C53   H26   S    
C27   C38   S    
C57   H30   S    
C12   C37   S    
C24   C29   A    
C11   H8    S    
C51   H22   S    
C46   C47   A    
C61   C66   A    
C45   C56   S    
C22   C25   A    
C40   H11   S    
C4    O4    A    
C52   H25   S    
C1    O1    A    
C35   C67   T    
C63   H36   S    
C2    C16   S    
C9    C10   A    
C31   N1    A    
C29   H3    S    
C33   C56   S    
C15   H7    S    
C37   H6    S    
C4    C35   S    
C59   C60   A    
C21   C22   A    
C53   H27   S    
C51   O9    S    
C49   H19   S    
C4    O3    A    
C69   H9    S    
C60   H33   S    
C44   C46   A    
C32   H2    S    
C62   H35   S    
C15   C69   A    
C12   C67   S    
C51   C52   S    
C59   H32   S    
C47   H17   S    
C58   H31   S    
C20   C54   S    
C43   H15   S    
C39   C40   A    
N1    Zn1   S    
O5    Zn1   S    
O8    Zn2   S    
C53   H28   S    
C58   C59   A    
C32   C37   S    
O6    Zn2   S    
C45   H5    S    
C32   C34   S    
C9    C14   A    
C10   C69   A    
C13   H41   S    
C50   H20   S    
C47   C48   A    
C19   N2    A    
C23   C34   S    
C48   H18   S    
C52   H24   S    
C1    O2    A    
C6    H34   S    
C2    C15   A    
C33   H1    S    
C48   C49   A    
O3    Zn1   S    
C65   C66   A    
O1    Zn1   S    
C55   C57   A    
C22   C24   A    
C42   C43   A    
C34   C68   S    
C19   C44   S    
C30   N1    A    
C44   C50   A    
C25   C30   A    
C7    C9    A    
C54   C55   A    
C40   C41   A    
C56   H4    S    
C42   H14   S    
C66   H39   S    
C12   C45   S    
C3    C5    A    
C36   C68   T    
C64   H37   S    
C6    C7    A    
C1    C17   S    
C8    C17   A    
C64   C65   A    
C46   H16   S    
O7    Zn1   S    
C25   C26   A    
C38   C43   A    
C23   C37   S    
C32   C33   S    
C11   C13   A    
C57   C58   A    
C5    C6    A    
C5    H40   S    
C21   O9    S    
C41   H13   S    
C55   H29   S    
C3    C17   A    
C61   C62   A    
C2    C14   A    
C10   C11   A    
C63   C64   A    
O4    Zn2   S    
C23   C61   S    
C20   C21   A    
C28   C36   S    
C24   N2    A    
C49   C50   A    
C31   H42   S    
C3    H23   S    
O2    Zn2   S    
C18   C31   A    
C14   H12   S    
C12   C33   S    
C65   H38   S    
C39   H10   S    
C30   H44   S    
