data_mof_unit_28671.cif
_audit_creation_date              2013-03-05T15:41:33-0500
_audit_creation_method            fapswitch 2.2
_symmetry_space_group_name_H-M    P1
_symmetry_Int_Tables_number       1
_space_group_crystal_system       triclinic
_cell_length_a                    24.821909
_cell_length_b                    17.622742
_cell_length_c                    15.518864
_cell_angle_alpha                 90.028286
_cell_angle_beta                  129.42739
_cell_angle_gamma                 90.000886
_cell_volume                      5243.57713251

loop_
_atom_site_label
_atom_site_type_symbol
_atom_site_description
_atom_site_fract_x
_atom_site_fract_y
_atom_site_fract_z
_atom_type_partial_charge
C1    C     C_R   0.333888 0.392393 0.198809 -0.138068
C2    C     C_R   0.334781 0.610563 0.200980 -0.125547
C3    C     C_R   0.834504 0.890400 0.200128 -0.126946
C4    C     C_R   0.833953 0.107890 0.199117 -0.136750
H1    H     H_    0.281893 0.394728 0.172470 0.111121
H2    H     H_    0.282756 0.609488 0.174657 0.110309
H3    H     H_    0.782470 0.891851 0.173727 0.110633
H4    H     H_    0.781969 0.105611 0.172835 0.110492
N1    N     N_R   0.389430 0.421450 0.294590 -0.058963
N2    N     N_R   0.389430 0.578550 0.294590 -0.057422
N3    N     N_R   0.889430 0.921450 0.294590 -0.055736
N4    N     N_R   0.889430 0.078550 0.294590 -0.057717
C5    C     C_R   0.652841 0.364588 0.763073 -0.075242
C6    C     C_R   0.651784 0.636536 0.761083 -0.075757
C7    C     C_R   0.151923 0.863656 0.761141 -0.071189
C8    C     C_R   0.152794 0.135520 0.762957 -0.075664
H5    H     H_    0.700409 0.351441 0.777405 0.113690
H6    H     H_    0.699696 0.649608 0.776621 0.100542
H7    H     H_    0.199637 0.850566 0.776010 0.100732
H8    H     H_    0.200368 0.148677 0.777307 0.113894
N5    N     N_R   0.612200 0.424040 0.705410 -0.053904
N6    N     N_R   0.612200 0.575960 0.705410 -0.053580
N7    N     N_R   0.112200 0.924040 0.705410 -0.053261
N8    N     N_R   0.112200 0.075960 0.705410 -0.053774
C9    C     C_R   0.612041 0.389582 0.407095 0.357268
C10   C     C_R   0.611275 0.612695 0.407714 0.313561
C11   C     C_R   0.113264 0.890736 0.408580 0.307288
C12   C     C_R   0.111872 0.110669 0.407127 0.352038
N9    N     N_R   0.581780 0.422390 0.443390 -0.094895
N10   N     N_R   0.581780 0.577610 0.443390 -0.090959
N11   N     N_R   0.081780 0.922390 0.443390 -0.096501
N12   N     N_R   0.081780 0.077610 0.443390 -0.099330
C13   C     C_R   0.405270 0.366446 0.594130 -0.132393
C14   C     C_R   0.397527 0.622280 0.594789 -0.128408
C15   C     C_R   0.899498 0.874909 0.594809 -0.127091
C16   C     C_R   0.904970 0.133040 0.594378 -0.133399
H9    H     H_    0.424425 0.361517 0.678463 0.105813
H10   H     H_    0.418617 0.624753 0.680572 0.108814
H11   H     H_    0.920203 0.872298 0.680326 0.108350
H12   H     H_    0.924223 0.137803 0.678797 0.106305
N13   N     N_R   0.419850 0.423100 0.556610 -0.042716
N14   N     N_R   0.419850 0.576900 0.556610 -0.044519
N15   N     N_R   0.919850 0.923100 0.556610 -0.043985
N16   N     N_R   0.919850 0.076900 0.556610 -0.042951
C17   C     C_R   0.687909 0.395422 0.591952 -0.054270
C18   C     C_R   0.686777 0.607431 0.593352 -0.071124
C19   C     C_R   0.187861 0.895545 0.593573 -0.078763
C20   C     C_R   0.187798 0.105031 0.591871 -0.056732
H13   H     H_    0.734910 0.396667 0.677920 0.135838
H14   H     H_    0.733441 0.606258 0.679549 0.144885
H15   H     H_    0.234306 0.896935 0.679990 0.144866
H16   H     H_    0.234870 0.103892 0.677778 0.135584
N17   N     N_R   0.627410 0.423100 0.556610 -0.077626
N18   N     N_R   0.627410 0.576900 0.556610 -0.075897
N19   N     N_R   0.127410 0.923100 0.556610 -0.073226
N20   N     N_R   0.127410 0.076900 0.556610 -0.077344
C21   C     C_R   0.334051 0.361787 0.407721 -0.028891
C22   C     C_R   0.324883 0.627838 0.407670 -0.052880
C23   C     C_R   0.827449 0.868831 0.407640 -0.051028
C24   C     C_R   0.833610 0.137761 0.407906 -0.030801
H17   H     H_    0.290690 0.350125 0.321475 0.119297
H18   H     H_    0.281247 0.639037 0.321333 0.140800
H19   H     H_    0.784269 0.856770 0.321343 0.138875
H20   H     H_    0.790129 0.149337 0.321712 0.120580
N21   N     N_R   0.374220 0.422390 0.443390 -0.044999
N22   N     N_R   0.374220 0.577610 0.443390 -0.049061
N23   N     N_R   0.874220 0.922390 0.443390 -0.047165
N24   N     N_R   0.874220 0.077610 0.443390 -0.045059
C25   C     C_R   0.564997 0.365568 0.769838 -0.118653
C26   C     C_R   0.562356 0.637003 0.764113 -0.115335
C27   C     C_R   0.062955 0.863505 0.765293 -0.114830
C28   C     C_R   0.064895 0.134630 0.769578 -0.117984
H21   H     H_    0.534737 0.352938 0.795685 0.109549
H22   H     H_    0.529336 0.651996 0.784050 0.111559
H23   H     H_    0.030691 0.848991 0.786825 0.111442
H24   H     H_    0.034537 0.147425 0.795198 0.109500
N25   N     N_R   0.555000 0.424040 0.705410 -0.049532
N26   N     N_R   0.555000 0.575960 0.705410 -0.050826
N27   N     N_R   0.055000 0.924040 0.705410 -0.050552
N28   N     N_R   0.055000 0.075960 0.705410 -0.049538
C29   C     C_R   0.421982 0.394056 0.194555 0.002429
C30   C     C_R   0.423693 0.610465 0.197912 -0.068628
C31   C     C_R   0.923225 0.891226 0.196736 -0.074527
C32   C     C_R   0.922018 0.106338 0.194787 -0.014755
H25   H     H_    0.447318 0.400467 0.158750 0.174981
H26   H     H_    0.450159 0.607940 0.163703 0.186304
H27   H     H_    0.949258 0.896053 0.161972 0.173541
H28   H     H_    0.947101 0.100010 0.158625 0.172789
N29   N     N_R   0.446630 0.421450 0.294590 -0.060199
N30   N     N_R   0.446630 0.578550 0.294590 -0.059092
N31   N     N_R   0.946630 0.921450 0.294590 -0.061053
N32   N     N_R   0.946630 0.078550 0.294590 -0.061984
C33   C     C_R   0.352573 0.374676 0.134289 0.089342
C34   C     C_R   0.354413 0.630702 0.138287 0.109648
C35   C     C_R   0.853836 0.871198 0.136733 0.116833
C36   C     C_R   0.852668 0.125839 0.134739 0.096405
C37   C     C_R   0.623211 0.325516 0.801312 0.137682
C38   C     C_R   0.620708 0.677066 0.795860 0.135930
C39   C     C_R   0.121201 0.823443 0.796725 0.135621
C40   C     C_R   0.123111 0.174714 0.801027 0.137551
C41   C     C_R   0.679698 0.371808 0.499585 -0.047235
C42   C     C_R   0.678168 0.631945 0.501510 -0.041595
C43   C     C_R   0.180596 0.873184 0.502230 -0.006980
C44   C     C_R   0.179455 0.128683 0.499363 -0.034615
C45   C     C_R   0.353750 0.324399 0.502262 0.054463
C46   C     C_R   0.339696 0.657752 0.502721 0.063392
C47   C     C_R   0.843123 0.837758 0.502694 0.055192
C48   C     C_R   0.853236 0.174844 0.502659 0.054298
Ni1   Ni    Ni4+2 0.382890 0.500000 0.370170 0.250591
Ni2   Ni    Ni4+2 0.882890 0.000000 0.370170 0.252698
Ni3   Ni    Ni4+2 0.618740 0.500000 0.629830 0.232677
Ni4   Ni    Ni4+2 0.118740 0.000000 0.629830 0.232930
Ni5   Ni    Ni4+2 0.514090 0.500000 0.370170 0.299523
Ni6   Ni    Ni4+2 0.014090 0.000000 0.370170 0.286535
Ni7   Ni    Ni4+2 0.487550 0.500000 0.629830 0.237304
Ni8   Ni    Ni4+2 0.987550 0.000000 0.629830 0.238716
C49   C     C_3   0.352934 0.224614 0.614282 -0.525899
C50   C     C_3   0.335781 0.740300 0.626946 -0.530377
C51   C     C_3   0.837586 0.757240 0.626493 -0.527920
C52   C     C_3   0.852690 0.273972 0.615798 -0.528622
H29   H     H_    0.374378 0.262720 0.686613 0.158219
H30   H     H_    0.337486 0.692288 0.675311 0.167739
H31   H     H_    0.840655 0.805778 0.675478 0.167525
H32   H     H_    0.872995 0.235401 0.687189 0.158885
H33   H     H_    0.398241 0.196592 0.628691 0.234550
H34   H     H_    0.390690 0.757330 0.669448 0.228012
H35   H     H_    0.891975 0.738364 0.668454 0.228881
H36   H     H_    0.898753 0.301283 0.631830 0.233993
C53   C     C_3   0.796093 0.693991 0.627231 0.398248
C54   C     C_3   0.805693 0.332787 0.612455 0.415719
C55   C     C_3   0.305579 0.166492 0.611202 0.412148
C56   C     C_3   0.296011 0.805782 0.627813 0.400203
H37   H     H_    0.310913 0.175815 0.687057 0.113269
H38   H     H_    0.286380 0.790034 0.686348 0.108309
H39   H     H_    0.787683 0.710916 0.686909 0.109705
H40   H     H_    0.810610 0.323735 0.687963 0.112519
H41   H     H_    0.279977 0.354612 0.567905 0.145234
H42   H     H_    0.235630 0.630523 0.506495 0.162156
H43   H     H_    0.740801 0.870919 0.507178 0.161894
H44   H     H_    0.778348 0.144582 0.566240 0.146049
C57   C     C_3   0.252426 0.316149 0.494069 0.108351
C58   C     C_3   0.226015 0.680947 0.455004 0.120182
C59   C     C_3   0.729353 0.819708 0.455719 0.116055
C60   C     C_3   0.751473 0.183672 0.493230 0.106244
C61   C     C_3   0.278871 0.211224 0.408199 -0.380465
C62   C     C_3   0.292753 0.785870 0.440024 -0.370535
C63   C     C_3   0.792170 0.711055 0.438297 -0.352057
C64   C     C_3   0.779816 0.288772 0.410145 -0.375991
C65   C     C_3   0.309874 0.270226 0.503175 0.089945
C66   C     C_3   0.298737 0.714861 0.504667 0.079998
C67   C     C_3   0.800861 0.782593 0.504274 0.080299
C68   C     C_3   0.809667 0.229162 0.503917 0.091444
H45   H     H_    0.774200 0.725008 0.353869 0.193803
H46   H     H_    0.755691 0.263172 0.327550 0.190644
H47   H     H_    0.254229 0.237414 0.325813 0.192009
H48   H     H_    0.274947 0.771625 0.355741 0.195822
H49   H     H_    0.320994 0.173670 0.426091 0.209286
H50   H     H_    0.344898 0.813005 0.485797 0.213300
H51   H     H_    0.843399 0.682010 0.482944 0.211499
H52   H     H_    0.822455 0.326236 0.429709 0.209507
C69   C     C_3   0.724911 0.684548 0.506286 0.038958
C70   C     C_3   0.728410 0.321609 0.503541 0.014279
C71   C     C_3   0.228264 0.178372 0.502878 0.008998
C72   C     C_3   0.225634 0.817541 0.506669 0.021096
C73   C     C_3   0.687030 0.763305 0.466593 0.128687
C74   C     C_3   0.705436 0.238273 0.498470 0.144370
C75   C     C_3   0.205989 0.261867 0.498773 0.143692
C76   C     C_3   0.184832 0.740362 0.464459 0.122854
C77   C     C_3   0.740303 0.657183 0.428435 -0.353545
C78   C     C_3   0.725226 0.336248 0.401273 -0.352348
C79   C     C_3   0.224473 0.163704 0.399973 -0.342676
C80   C     C_3   0.242209 0.842221 0.429558 -0.326639
H53   H     H_    0.761287 0.598339 0.449517 0.236797
H54   H     H_    0.732149 0.397427 0.392857 0.228641
H55   H     H_    0.231425 0.102521 0.391596 0.235324
H56   H     H_    0.264504 0.900489 0.450236 0.243151
H57   H     H_    0.692764 0.656517 0.340053 0.236068
H58   H     H_    0.674712 0.317839 0.323217 0.242382
H59   H     H_    0.173702 0.181726 0.321946 0.240342
H60   H     H_    0.194658 0.842414 0.341048 0.244145
H61   H     H_    0.634261 0.758085 0.385045 0.205088
H62   H     H_    0.650247 0.230579 0.423225 0.208702
H63   H     H_    0.150801 0.269959 0.423652 0.208431
H64   H     H_    0.132995 0.747796 0.381524 0.201033
H65   H     H_    0.214881 0.634271 0.995738 0.144177
H66   H     H_    0.213345 0.365936 0.995528 0.140676
H67   H     H_    0.713444 0.134523 0.995975 0.140887
H68   H     H_    0.714269 0.865985 0.995349 0.143918
H69   H     H_    0.714878 0.228231 0.826956 0.177111
H70   H     H_    0.715487 0.771859 0.826261 0.157804
H71   H     H_    0.215795 0.728681 0.826827 0.157309
H72   H     H_    0.214795 0.271980 0.826576 0.177329
C81   C     C_2   0.649512 0.255414 0.865957 -0.205455
C82   C     C_2   0.646800 0.747717 0.859625 -0.187937
C83   C     C_2   0.147476 0.753070 0.860870 -0.186612
C84   C     C_2   0.149369 0.244958 0.865505 -0.205006
C85   C     C_2   0.697504 0.213806 0.873837 -0.050055
C86   C     C_2   0.697122 0.787279 0.871433 -0.052296
C87   C     C_2   0.197625 0.713463 0.872334 -0.054142
C88   C     C_2   0.197391 0.286531 0.873390 -0.050931
H73   H     H_    0.331816 0.686704 0.992075 0.157089
H74   H     H_    0.329473 0.321865 0.985897 0.164018
H75   H     H_    0.829610 0.178778 0.986522 0.163999
H76   H     H_    0.830897 0.816696 0.989308 0.158069
C89   C     C_2   0.308292 0.659389 0.023880 -0.179344
C90   C     C_2   0.306082 0.347085 0.019202 -0.166957
C91   C     C_2   0.806206 0.153518 0.019763 -0.169359
C92   C     C_2   0.807471 0.843100 0.021852 -0.180635
C93   C     C_2   0.239190 0.660860 0.965036 -0.099750
C94   C     C_2   0.237456 0.341591 0.963176 -0.098928
C95   C     C_2   0.737576 0.158889 0.963689 -0.099317
C96   C     C_2   0.738461 0.840297 0.963897 -0.099161
H77   H     H_    0.632843 0.240615 0.913859 0.152280
H78   H     H_    0.629100 0.763568 0.905745 0.157158
H79   H     H_    0.130060 0.737466 0.907468 0.156851
H80   H     H_    0.132663 0.259887 0.913328 0.152231
Cl1   Cl    Cl    0.847139 0.608648 0.681887 -0.566611
Cl2   Cl    Cl    0.836905 0.426736 0.622960 -0.574793
Cl3   Cl    Cl    0.335689 0.072031 0.620894 -0.574085
Cl4   Cl    Cl    0.349652 0.889303 0.684396 -0.564776
Cl5   Cl    Cl    0.671526 0.800544 0.557342 -0.655006
Cl6   Cl    Cl    0.707847 0.213939 0.613638 -0.679107
Cl7   Cl    Cl    0.208719 0.286108 0.614318 -0.680810
Cl8   Cl    Cl    0.165710 0.705779 0.551724 -0.654877
N33   N     N_R   0.209947 0.363971 0.393813 0.245335
O1    O     O_R   0.167388 0.334284 0.294572 -0.379423
O2    O     O_R   0.212201 0.437350 0.404419 -0.316603
N34   N     N_R   0.185274 0.655363 0.338618 0.233791
O3    O     O_R   0.161108 0.703471 0.257901 -0.392010
O4    O     O_R   0.167092 0.584485 0.313946 -0.289451
N35   N     N_R   0.688514 0.844572 0.339015 0.233803
O5    O     O_R   0.662324 0.795814 0.258321 -0.386261
O6    O     O_R   0.672452 0.915838 0.314194 -0.292816
N36   N     N_R   0.708696 0.136750 0.391977 0.244921
O7    O     O_R   0.666944 0.167295 0.293290 -0.380859
O8    O     O_R   0.709562 0.063350 0.401113 -0.312156
N37   N     N_R   0.573829 0.359539 0.297029 0.195840
O9    O     O_R   0.541755 0.294818 0.271854 -0.401921
O10   O     O_R   0.571044 0.396121 0.221562 -0.377101
N38   N     N_R   0.585011 0.609318 0.294963 0.195650
O11   O     O_R   0.567962 0.544118 0.245011 -0.389206
O12   O     O_R   0.565108 0.670856 0.235640 -0.402806
N39   N     N_R   0.088816 0.897117 0.297214 0.199180
O13   O     O_R   0.059130 0.839255 0.230131 -0.406715
O14   O     O_R   0.110430 0.953098 0.271745 -0.377495
N40   N     N_R   0.074014 0.137917 0.295844 0.192705
O15   O     O_R   0.068903 0.096955 0.221286 -0.377855
O16   O     O_R   0.044079 0.204087 0.268321 -0.402668

loop_
_geom_bond_atom_site_label_1
_geom_bond_atom_site_label_2
_geom_bond_distance
_ccdc_geom_bond_type
C22   H18   1.078997 S    
C21   C45   1.384021 A    
C61   C79   1.523720 S    
C46   C66   1.444436 S    
C2    C34   1.382957 A    
C62   C80   1.525759 S    
N19   Ni4   1.866308 S    
C26   N26   1.344699 A    
N9    Ni5   1.887161 S    
C6    H6    1.077602 S    
C25   N25   1.344967 A    
N26   Ni7   1.864067 S    
C14   N14   1.309276 A    
C3    N3    1.329548 A    
C4    H4    1.079086 S    
C63   H51   1.113683 S    
C15   N15   1.307193 A    
C74   Cl6   1.801856 S    
C44   C71   1.467476 S    
C27   N27   1.344842 A    
C73   Cl5   1.802686 S    
C82   C86   1.337526 D    
C7    H7    1.078017 S    
N7    Ni4   1.854021 S    
C18   C42   1.370218 A    
C32   N32   1.345659 A    
C43   C72   1.455437 S    
C64   H46   1.108842 S    
C78   H58   1.102320 S    
C1    H1    1.079074 S    
C41   C70   1.467713 S    
H71   C87   1.085734 S    
N4    Ni2   1.887254 S    
C3    H3    1.079146 S    
N16   N24   1.357363 A    
C50   H30   1.114135 S    
C84   H80   1.087509 S    
N34   O4    1.300171 A    
C16   C48   1.377356 A    
N39   O13   1.300408 A    
C20   C44   1.378612 A    
C39   C83   1.459758 S    
C61   H49   1.113435 S    
C38   C82   1.460676 S    
N2    Ni1   1.887254 S    
C55   Cl3   1.791606 S    
C64   H52   1.113481 S    
N30   Ni5   1.898103 S    
C37   C81   1.458821 S    
C50   C66   1.558936 S    
C49   H29   1.111127 S    
C59   C73   1.531477 S    
C16   H12   1.075373 S    
C53   Cl1   1.795296 S    
C23   N23   1.314447 A    
C4    C36   1.379802 A    
H43   C59   1.115334 S    
N8    N28   1.419813 A    
C75   H63   1.107989 S    
H76   C92   1.087418 S    
C76   H64   1.107222 S    
C74   H62   1.107488 S    
C26   H22   1.076728 S    
C64   C78   1.522572 S    
C12   N40   1.426752 S    
C25   H21   1.075824 S    
C55   C71   1.566936 S    
C4    N4    1.329680 A    
C9    C41   1.384659 A    
C86   C96   1.453723 S    
N11   Ni6   1.887161 S    
C83   H79   1.087521 S    
C24   C48   1.384122 A    
C28   H24   1.075742 S    
C47   C67   1.441813 S    
C54   C70   1.567414 S    
C7    N7    1.330538 A    
C63   C77   1.527013 S    
C17   N17   1.322107 A    
C8    N8    1.330637 A    
C48   C68   1.453647 S    
N37   O9    1.300690 A    
N3    Ni2   1.886409 S    
C91   C95   1.336159 D    
C69   C77   1.556903 S    
C79   H59   1.103357 S    
C89   C93   1.336820 D    
C2    H2    1.079240 S    
C34   C89   1.462054 S    
N36   O8    1.300017 A    
C76   Cl8   1.802230 S    
C49   C55   1.536767 S    
C33   C90   1.462589 S    
C77   H57   1.103629 S    
N34   O3    1.301663 A    
N5    Ni3   1.854021 S    
C22   N22   1.314820 A    
C29   H25   1.077456 S    
C6    C38   1.387401 A    
C83   C87   1.336872 D    
C45   C65   1.455086 S    
C40   C84   1.459043 S    
H66   C94   1.084322 S    
C9    N9    1.323949 A    
N40   O16   1.300653 A    
C64   C68   1.549906 S    
C57   C75   1.534909 S    
C19   C43   1.368200 A    
N13   Ni7   1.877387 S    
C5    N5    1.330581 A    
C14   C46   1.374248 A    
C32   H28   1.076450 S    
C12   N12   1.322208 A    
C1    N1    1.329882 A    
C90   C94   1.336295 D    
N6    N26   1.419813 A    
H42   C58   1.115172 S    
N1    N29   1.419813 A    
C84   C88   1.336863 D    
C70   C74   1.559180 S    
C8    C40   1.386189 A    
C36   C91   1.462443 S    
C19   H15   1.079048 S    
C73   H61   1.104563 S    
N39   O14   1.298833 A    
C30   H26   1.076283 S    
C79   H55   1.112455 S    
C23   C47   1.378063 A    
C28   N28   1.345093 A    
C60   C74   1.535026 S    
C87   C93   1.452398 S    
N1    Ni1   1.886409 S    
C61   H47   1.108641 S    
N17   Ni3   1.866308 S    
C10   N38   1.428697 S    
C15   H11   1.077594 S    
C56   C72   1.567757 S    
N15   N23   1.357346 A    
C85   C95   1.452576 S    
N3    N31   1.419813 A    
N15   Ni8   1.877387 S    
C57   N33   1.469772 S    
C29   C33   1.382965 A    
C12   C44   1.383234 A    
N23   Ni2   1.876226 S    
C70   C78   1.559723 S    
N29   Ni5   1.897222 S    
C9    N37   1.427848 S    
C71   C75   1.558904 S    
C8    H8    1.078754 S    
C31   C35   1.385877 A    
C53   H39   1.111553 S    
C18   N18   1.310916 A    
N38   O12   1.300373 A    
C17   H13   1.079082 S    
C53   C69   1.568347 S    
N35   O6    1.300017 A    
C5    C37   1.386331 A    
N24   Ni2   1.875411 S    
C21   H17   1.077953 S    
N21   Ni1   1.876226 S    
C17   C41   1.377579 A    
C56   Cl4   1.795510 S    
N11   N19   1.357346 A    
C72   C76   1.568797 S    
C56   H38   1.111492 S    
C75   Cl7   1.802018 S    
H67   C95   1.084280 S    
C10   N10   1.319086 A    
C52   C68   1.556288 S    
N37   O10   1.299969 A    
C11   N11   1.322758 A    
C6    N6    1.331261 A    
C52   C54   1.536577 S    
C16   N16   1.316489 A    
N36   O7    1.301566 A    
N5    N25   1.419813 A    
C30   C34   1.385559 A    
C2    N2    1.329103 A    
C32   C36   1.382927 A    
C25   C37   1.388749 A    
C71   C79   1.560367 S    
H70   C86   1.085736 S    
C19   N19   1.312771 A    
C28   C40   1.388923 A    
H69   C85   1.085656 S    
C35   C92   1.463239 S    
C20   N20   1.322845 A    
C72   C80   1.554459 S    
H41   C57   1.115337 S    
N40   O15   1.299508 A    
H73   C89   1.087457 S    
C59   C67   1.564531 S    
C62   C66   1.551250 S    
N33   O1    1.301619 A    
C14   H10   1.078386 S    
N4    N32   1.419813 A    
C54   H40   1.109936 S    
H44   C60   1.115373 S    
C7    C39   1.387066 A    
C55   H37   1.109991 S    
C11   N39   1.426837 S    
C31   H27   1.076438 S    
C82   H78   1.087455 S    
N13   N21   1.357346 A    
C52   H36   1.113275 S    
N10   N18   1.357363 A    
C81   H77   1.087528 S    
C62   H50   1.113720 S    
C78   H54   1.112481 S    
C51   H31   1.114061 S    
C31   N31   1.343830 A    
C18   H14   1.078609 S    
C23   H19   1.078870 S    
C30   N30   1.344364 A    
C13   C45   1.378458 A    
C60   N36   1.469590 S    
C13   H9    1.075255 S    
C24   H20   1.078078 S    
C24   N24   1.318529 A    
C13   N13   1.317206 A    
C58   C66   1.562686 S    
C88   C94   1.452765 S    
C29   N29   1.345445 A    
C60   C68   1.565953 S    
N25   Ni7   1.864937 S    
C10   C42   1.385789 A    
C27   H23   1.076296 S    
C54   Cl2   1.790873 S    
H68   C96   1.084371 S    
C80   H60   1.104781 S    
C51   C53   1.522570 S    
C57   C65   1.566038 S    
N9    N17   1.357346 A    
C42   C69   1.449703 S    
C81   C85   1.336693 D    
C63   C67   1.549966 S    
C92   C96   1.337396 D    
N38   O11   1.297163 A    
N33   O2    1.300207 A    
C3    C35   1.382750 A    
N20   Ni4   1.867117 S    
N18   Ni3   1.867117 S    
C58   C76   1.534011 S    
H65   C93   1.084477 S    
H72   C88   1.085660 S    
N22   Ni1   1.875411 S    
C27   C39   1.389695 A    
C59   N35   1.472588 S    
C63   H45   1.110896 S    
C69   C73   1.566860 S    
N8    Ni4   1.853187 S    
C51   C67   1.559726 S    
C15   C47   1.374215 A    
C11   C43   1.384315 A    
C5    H5    1.078778 S    
C50   C56   1.524218 S    
C26   C38   1.390070 A    
N14   Ni7   1.878233 S    
C20   H16   1.079072 S    
N2    N30   1.419813 A    
C62   H48   1.111090 S    
N16   Ni8   1.878233 S    
C1    C33   1.380100 A    
N6    Ni3   1.853187 S    
H74   C90   1.087547 S    
C22   C46   1.378142 A    
N35   O5    1.301533 A    
N14   N22   1.357363 A    
C77   H53   1.112475 S    
C49   C65   1.556299 S    
H75   C91   1.087486 S    
C50   H34   1.113859 S    
N28   Ni8   1.864067 S    
N12   Ni6   1.886309 S    
N27   Ni8   1.864937 S    
C49   H33   1.113240 S    
N32   Ni6   1.898103 S    
C58   N34   1.472186 S    
N12   N20   1.357363 A    
N31   Ni6   1.897222 S    
C61   C65   1.550328 S    
C52   H32   1.111303 S    
C51   H35   1.113953 S    
C80   H56   1.112537 S    
C21   N21   1.318907 A    
N10   Ni5   1.886309 S    
N7    N27   1.419813 A    
