data_mof_unit_57580.cif
_audit_creation_date              2012-12-11T14:33:06-0500
_audit_creation_method            fapswitch 2.2
_symmetry_space_group_name_H-M    P1
_symmetry_Int_Tables_number       1
_space_group_crystal_system       triclinic
_cell_length_a                    6.933869
_cell_length_b                    13.918391
_cell_length_c                    17.806007
_cell_angle_alpha                 112.638299
_cell_angle_beta                  95.837716
_cell_angle_gamma                 90.242884
_cell_volume                      1576.04010771

loop_
_atom_site_label
_atom_site_type_symbol
_atom_type_description
_atom_site_fract_x
_atom_site_fract_y
_atom_site_fract_z
_atom_type_partial_charge
O1    O     O_R   0.484560 0.544530 0.414330 -0.536859
O2    O     O_R   0.197040 0.638810 0.585080 -0.539868
O3    O     O_R   0.026800 0.455470 0.585670 -0.541706
C1    C     C_R   0.374310 0.679976 0.609232 0.677478
O4    O     O_R   0.155000 0.556150 0.414940 -0.543458
O5    O     O_R   0.984450 0.372220 0.414320 -0.534825
C2    C     C_R   0.317398 0.565095 0.386502 0.757093
O6    O     O_R   0.526900 0.627780 0.585680 -0.538522
O7    O     O_3   0.339170 0.439750 0.499990 -0.373115
V1    V     V_3+5 0.064350 0.511180 0.500000 1.368910
O8    O     O_R   0.654880 0.361190 0.414920 -0.544062
C3    C     C_R   0.816885 0.324453 0.387096 0.769588
O9    O     O_R   0.696930 0.443850 0.585060 -0.540108
C4    C     C_R   0.874049 0.433242 0.612851 0.692374
V2    V     V_3+5 0.564340 0.488820 0.500000 1.370274
O10   O     O_3   0.839390 0.560250 0.500010 -0.374009
C5    C     C_R   0.039390 0.863318 0.821860 -0.062013
C6    C     C_R   0.909555 0.396593 0.681478 -0.102646
C7    C     C_R   0.922135 0.827060 0.679827 -0.132838
C8    C     C_R   0.972783 0.793625 0.742581 -0.145779
C9    C     C_R   0.050105 0.970303 0.837318 -0.212951
C10   C     C_R   0.996639 0.007199 0.773647 0.098273
C11   C     C_R   0.933701 0.932477 0.694272 0.124708
C12   C     C_R   0.001754 0.114898 0.785595 0.064246
C13   C     C_R   0.945779 0.145006 0.717910 0.077886
C14   C     C_R   0.886938 0.066458 0.640552 -0.180043
C15   C     C_R   0.880953 0.962548 0.629282 -0.222257
C16   C     C_R   0.060699 0.193399 0.862930 -0.171681
C17   C     C_R   0.067292 0.297248 0.874130 -0.210608
C18   C     C_R   0.014959 0.327330 0.809100 0.064425
C19   C     C_R   0.951278 0.252744 0.729873 0.097714
C20   C     C_R   0.028033 0.432665 0.823540 -0.100956
C21   C     C_R   0.978537 0.467065 0.761064 0.187578
C22   C     C_R   0.897601 0.289693 0.666333 -0.242664
H1    H     H_    0.833222 0.904803 0.568728 0.118928
H2    H     H_    0.849008 0.238045 0.604395 0.104403
H3    H     H_    0.115464 0.354932 0.934660 0.114958
H4    H     H_    0.871799 0.769698 0.619472 0.135028
H5    H     H_    0.957067 0.712470 0.726922 0.106613
H6    H     H_    0.097379 0.021898 0.899410 0.089558
H7    H     H_    0.843345 0.082396 0.586936 0.123375
H8    H     H_    0.104343 0.177456 0.916539 0.120307
H9    H     H_    0.079111 0.489373 0.884108 0.145453
H10   H     H_    0.110075 0.223480 0.307154 0.142581
C23   C     C_2   0.131349 0.035982 0.185798 -0.343828
C24   C     C_2   0.973302 0.069532 0.226764 0.240460
H11   H     H_    0.673708 0.175537 0.303968 0.126564
C25   C     C_2   0.812177 0.219222 0.322683 -0.355498
C26   C     C_2   0.973758 0.177432 0.288960 -0.189173
H12   H     H_    0.260863 0.087057 0.201227 0.081779
C27   C     C_R   0.410629 0.786897 0.676236 -0.058883
C28   C     C_R   0.538155 0.471165 0.826671 -0.058209
C29   C     C_R   0.530631 0.889733 0.817999 -0.126497
C30   C     C_R   0.479284 0.793556 0.754660 -0.139483
C31   C     C_R   0.399027 0.880998 0.662044 -0.207791
C32   C     C_R   0.452486 0.981575 0.726672 0.096737
C33   C     C_R   0.517082 0.982971 0.805184 0.118977
C34   C     C_R   0.445865 0.080554 0.717095 0.064240
C35   C     C_R   0.501484 0.177578 0.785999 0.067141
C36   C     C_R   0.561507 0.172196 0.862074 -0.178312
C37   C     C_R   0.569366 0.077301 0.871147 -0.218446
C38   C     C_R   0.385889 0.085926 0.641013 -0.178663
C39   C     C_R   0.378558 0.180784 0.631881 -0.214588
C40   C     C_R   0.431240 0.275093 0.697798 0.118855
C41   C     C_R   0.495199 0.276541 0.776385 0.100496
C42   C     C_R   0.419087 0.368247 0.684818 -0.135735
C43   C     C_R   0.471227 0.464373 0.748061 -0.138046
C44   C     C_R   0.548558 0.377142 0.841018 -0.218865
H13   H     H_    0.618405 0.077782 0.931083 0.116960
H14   H     H_    0.596212 0.384968 0.902701 0.092615
H15   H     H_    0.457847 0.534352 0.735476 0.090440
H16   H     H_    0.329865 0.180280 0.571907 0.118461
H17   H     H_    0.582771 0.891224 0.877863 0.139162
H18   H     H_    0.494600 0.723480 0.767028 0.091087
H19   H     H_    0.350386 0.873239 0.600460 0.092817
H20   H     H_    0.604995 0.240737 0.916185 0.122893
H21   H     H_    0.342361 0.017392 0.586903 0.123396
H22   H     H_    0.367739 0.366728 0.624868 0.143680
H23   H     H_    0.334207 0.667742 0.194427 0.153568
H24   H     H_    0.615108 0.591001 0.308505 0.154485
C45   C     C_2   0.313655 0.602496 0.318789 -0.353021
C46   C     C_2   0.476460 0.611190 0.285524 -0.130489
H25   H     H_    0.773957 0.636149 0.207400 0.124841
C47   C     C_2   0.635577 0.656088 0.184003 -0.352424
C48   C     C_2   0.472868 0.647524 0.217374 -0.131844
H26   H     H_    0.175314 0.622428 0.295352 0.125780
O11   O     O_R   0.421600 0.630430 0.917010 -0.530433
O12   O     O_R   0.793840 0.702190 0.087630 -0.542573
O13   O     O_R   0.964010 0.886170 0.088190 -0.507728
C49   C     C_R   0.631586 0.693322 0.116197 0.766300
O14   O     O_R   0.751460 0.619510 0.917500 -0.528605
O15   O     O_R   0.921330 0.802900 0.916840 -0.537106
C50   C     C_R   0.574258 0.578183 0.893587 0.679577
O16   O     O_R   0.464290 0.713700 0.088350 -0.540660
O17   O     O_3   0.609200 0.818520 0.002630 -0.371732
V3    V     V_3+5 0.884140 0.747190 0.002530 1.424068
O18   O     O_R   0.251150 0.814630 0.917340 -0.540096
C51   C     C_R   0.074057 0.825091 0.889506 0.720515
O19   O     O_R   0.293530 0.897310 0.087470 -0.551828
C52   C     C_R   0.131526 0.932764 0.117394 0.778287
V4    V     V_3+5 0.384070 0.769710 0.002370 1.400246
O20   O     O_3   0.109180 0.698190 0.002460 -0.370347
N1    N     N_3   0.805923 0.000396 0.211806 -0.623255
H27   H     H_    0.687095 0.029729 0.187869 0.223736
H28   H     H_    0.776603 0.997388 0.267325 0.214723
N2    N     N_3   0.998830 0.575543 0.780865 -0.649407
H29   H     H_    0.099149 0.586391 0.744537 0.206401
H30   H     H_    0.861351 0.599017 0.767184 0.203491

loop_
_geom_bond_atom_site_label_1
_geom_bond_atom_site_label_2
_ccdc_geom_bond_type
H10   C26   S    
C34   C38   A    
C31   C32   A    
O12   V3    S    
C13   C19   A    
V4    O20   S    
V3    O20   S    
C4    C6    S    
C38   H21   S    
O2    C1    A    
O17   V3    S    
C1    O6    A    
C45   C46   D    
O15   C51   A    
C23   C24   D    
C24   C26   S    
C14   C15   A    
C38   C39   A    
C16   C17   A    
O5    C3    A    
C18   C19   A    
N2    H29   S    
V2    O10   S    
O18   C51   A    
O15   V3    S    
C5    C8    A    
C32   C33   A    
O14   V3    S    
C30   H18   S    
O8    V2    S    
H11   C25   S    
O16   V4    S    
O1    V2    S    
C11   C15   A    
O7    V1    S    
C43   H15   S    
C45   H26   S    
C28   C44   A    
C3    C25   S    
C31   H19   S    
C42   C43   A    
C35   C36   A    
O11   V4    S    
O9    C4    A    
C47   C49   S    
C49   O16   A    
C42   H22   S    
C1    C27   S    
C12   C13   A    
H24   C46   S    
O4    C2    A    
C8    H5    S    
C29   C33   A    
O13   C52   A    
C15   H1    S    
C13   C14   A    
C29   C30   A    
C36   H20   S    
C5    C9    A    
C36   C37   A    
C40   C42   A    
C7    C11   A    
C17   C18   A    
C7    H4    S    
O14   C50   A    
H25   C47   S    
C41   C44   A    
C19   C22   A    
C28   C50   S    
N1    H28   S    
C47   C48   D    
C6    C22   A    
C28   C43   A    
C25   C26   D    
O19   V4    S    
O12   C49   A    
O6    V2    S    
O9    V2    S    
C10   C12   A    
O2    V1    S    
H23   C48   S    
C5    C51   S    
C37   H13   S    
C2    C45   S    
O1    C2    A    
C29   H17   S    
C21   N2    S    
C12   C16   A    
C23   C52   S    
O5    V1    S    
O8    C3    A    
C33   C37   A    
O3    C4    A    
C46   C48   S    
C24   N1    S    
O19   C52   A    
C27   C30   A    
C20   C21   A    
C7    C8    A    
C34   C35   A    
O4    V1    S    
O3    V1    S    
V1    O10   S    
C35   C41   A    
C18   C20   A    
C9    H6    S    
N2    H30   S    
C23   H12   S    
O13   V3    S    
O11   C50   A    
C40   C41   A    
C16   H8    S    
C20   H9    S    
C32   C34   A    
C27   C31   A    
O7    V2    S    
C6    C21   A    
C39   C40   A    
C39   H16   S    
C22   H2    S    
C44   H14   S    
C17   H3    S    
N1    H27   S    
C10   C11   A    
C9    C10   A    
O18   V4    S    
O17   V4    S    
C14   H7    S    
