data_mof_unit_47814.cif
_audit_creation_date              2012-12-10T20:31:50-0500
_audit_creation_method            fapswitch 2.2
_symmetry_space_group_name_H-M    P1
_symmetry_Int_Tables_number       1
_space_group_crystal_system       triclinic
_cell_length_a                    9.834583
_cell_length_b                    10.880452
_cell_length_c                    15.458213
_cell_angle_alpha                 90.423948
_cell_angle_beta                  69.743917
_cell_angle_gamma                 87.00259
_cell_volume                      1549.10567342

loop_
_atom_site_label
_atom_site_type_symbol
_atom_type_description
_atom_site_fract_x
_atom_site_fract_y
_atom_site_fract_z
_atom_type_partial_charge
C1    C     C_R   0.499551 0.740201 0.495505 0.965871
C2    C     C_R   0.381196 0.540435 0.924875 -0.070798
C3    C     C_R   0.239785 0.501147 0.974846 -0.195927
C4    C     C_R   0.464278 0.593158 0.972629 0.022831
C5    C     C_R   0.427672 0.574065 0.066718 -0.053018
C6    C     C_R   0.284887 0.545205 0.117810 0.191072
C7    C     C_R   0.194006 0.502100 0.073131 0.424572
C8    C     C_R   0.578082 0.670922 0.930735 -0.083138
C9    C     C_R   0.669227 0.708453 0.977028 0.406283
C10   C     C_R   0.656061 0.657813 0.062687 0.035269
C11   C     C_R   0.536049 0.586490 0.106069 0.087764
C12   C     C_R   0.410844 0.493302 0.676294 0.991862
C13   C     C_R   0.758756 0.674687 0.106022 -0.045814
C14   C     C_R   0.744249 0.618030 0.189460 -0.089284
C15   C     C_R   0.532530 0.520753 0.183621 -0.102220
C16   C     C_R   0.375535 0.947334 0.529519 -0.042434
C17   C     C_R   0.501715 0.872345 0.486098 -0.192548
C18   C     C_R   0.636442 0.927578 0.444123 0.238631
C19   C     C_R   0.642893 0.055910 0.449663 0.268332
C20   C     C_R   0.512778 0.128525 0.489980 -0.192512
C21   C     C_R   0.381969 0.072761 0.524701 -0.075172
C22   C     C_3   0.246287 0.093250 0.502142 0.522279
C23   C     C_R   0.505974 0.260247 0.494780 0.961679
C24   C     C_3   0.227531 0.956273 0.519840 0.425587
C25   C     C_R   0.886335 0.552901 0.571685 0.205093
C26   C     C_R   0.968416 0.440416 0.432017 -0.004534
C27   C     C_R   0.112736 0.441274 0.431655 0.028211
C28   C     C_R   0.027915 0.543250 0.575412 0.130172
C29   C     C_3   0.016771 0.668659 0.612541 0.210912
C30   C     C_3   0.876713 0.688151 0.592461 0.157796
C31   C     C_R   0.588301 0.504704 0.324511 0.886641
C32   C     C_R   0.354551 0.485845 0.778687 -0.319981
C33   C     C_R   0.630841 0.540333 0.228267 -0.046201
C34   C     C_R   0.153159 0.461655 0.923848 0.415414
C35   C     C_R   0.211239 0.453075 0.826947 0.333108
C36   C     C_R   0.443292 0.513901 0.829557 0.340348
H1    H     H_    0.849888 0.731276 0.076223 0.205858
H2    H     H_    0.946963 0.394728 0.376128 0.212199
H3    H     H_    0.200401 0.396661 0.375312 0.204357
H4    H     H_    0.449420 0.455847 0.211721 0.182896
H5    H     H_    0.109311 0.716898 0.568238 0.154189
H6    H     H_    0.891750 0.742694 0.529622 0.157700
H7    H     H_    0.819025 0.637309 0.224586 0.218349
H8    H     H_    0.592338 0.706187 0.863567 0.244315
N1    N     N_R   0.856900 0.500860 0.500610 -0.141983
N2    N     N_R   0.142540 0.500820 0.500610 -0.146177
O1    O     O_R   0.385310 0.683210 0.499990 -0.614635
O2    O     O_R   0.614650 0.683240 0.500000 -0.587743
O3    O     O_R   0.319830 0.499970 0.632240 -0.563650
O4    O     O_R   0.549170 0.500000 0.632250 -0.550605
O5    O     O_R   0.385350 0.316760 0.500000 -0.584283
O6    O     O_R   0.614690 0.316790 0.500010 -0.589022
O7    O     O_R   0.450830 0.500000 0.367750 -0.616988
O8    O     O_R   0.680170 0.500030 0.367760 -0.601174
Zn1   Zn    Zn3+2 0.346870 0.499980 0.499990 1.059135
Zn2   Zn    Zn3+2 0.653130 0.500020 0.500010 1.079130
Cl1   Cl    Cl    0.039199 0.430511 0.145250 -0.495700
Br1   Br    Br    0.809649 0.832292 0.368576 -0.370443
Br2   Br    Br    0.826831 0.129374 0.392464 -0.288661
Br3   Br    Br    0.098085 0.208261 0.585347 -0.225702
Cl2   Cl    Cl    0.285689 0.136192 0.384178 -0.520067
Cl3   Cl    Cl    0.091910 0.933356 0.630101 -0.430236
Br4   Br    Br    0.206701 0.859035 0.418344 -0.336213
Cl4   Cl    Cl    0.000089 0.665556 0.731222 -0.336375
Cl5   Cl    Cl    0.718912 0.742382 0.684985 -0.441565
Cl6   Cl    Cl    0.798968 0.815831 0.924979 -0.395114
Cl7   Cl    Cl    0.966563 0.433726 0.975028 -0.399438
Cl8   Cl    Cl    0.108116 0.382660 0.768509 -0.356803
Cl9   Cl    Cl    0.632757 0.472939 0.783195 -0.435674
Br5   Br    Br    0.197834 0.603382 0.244299 -0.426021

loop_
_geom_bond_atom_site_label_1
_geom_bond_atom_site_label_2
_ccdc_geom_bond_type
N2    Zn1   S    
C34   Cl7   S    
C12   O4    A    
C3    C7    A    
C31   C33   S    
C1    O2    A    
C12   O3    A    
C29   C30   S    
O8    Zn2   S    
C9    C10   A    
C23   O5    A    
C19   C20   A    
C3    C34   A    
C20   C23   S    
O2    Zn2   S    
C4    C8    A    
C19   Br2   S    
C20   C21   A    
C14   C33   A    
C17   C18   A    
C26   C27   A    
C29   Cl4   S    
C10   C13   A    
C16   C24   S    
O3    Zn1   S    
C21   C22   S    
C12   C32   S    
C25   C28   A    
C24   Cl3   S    
C28   N2    A    
C23   O6    A    
C6    C7    A    
C11   C15   A    
C35   Cl8   S    
C30   H6    S    
C2    C4    A    
C32   C36   A    
C27   N2    A    
C1    O1    A    
C28   C29   S    
C15   C33   A    
C5    C11   A    
C24   Br4   S    
O5    Zn1   S    
O7    Zn1   S    
C31   O8    A    
C22   Br3   S    
C5    C6    A    
C22   C24   S    
C15   H4    S    
C31   O7    A    
C30   Cl5   S    
C16   C17   A    
C10   C11   A    
C1    C17   S    
C32   C35   A    
C25   N1    A    
C4    C5    A    
C18   C19   A    
C36   Cl9   S    
C8    C9    A    
O1    Zn1   S    
C34   C35   A    
C2    C36   A    
C25   C30   S    
C6    Br5   S    
C16   C21   A    
C9    Cl6   S    
C26   H2    S    
C2    C3    A    
C26   N1    A    
C29   H5    S    
C13   C14   A    
C13   H1    S    
C7    Cl1   S    
O4    Zn2   S    
C18   Br1   S    
O6    Zn2   S    
N1    Zn2   S    
C27   H3    S    
C14   H7    S    
C22   Cl2   S    
C8    H8    S    
