data_mof_unit_27116.cif
_audit_creation_date              2012-12-11T14:17:48-0500
_audit_creation_method            fapswitch 2.2
_symmetry_space_group_name_H-M    P1
_symmetry_Int_Tables_number       1
_space_group_crystal_system       triclinic
_cell_length_a                    11.09276
_cell_length_b                    11.092795
_cell_length_c                    18.747569
_cell_angle_alpha                 90.0
_cell_angle_beta                  89.999876
_cell_angle_gamma                 120.000126
_cell_volume                      1997.81672647

loop_
_atom_site_label
_atom_site_type_symbol
_atom_type_description
_atom_site_fract_x
_atom_site_fract_y
_atom_site_fract_z
_atom_type_partial_charge
C1    C     C_R   0.519674 0.459916 0.147925 0.544114
C2    C     C_R   0.005199 0.393452 0.537317 -0.143297
C3    C     C_R   0.388236 0.994757 0.537305 -0.143293
C4    C     C_R   0.606529 0.611759 0.537310 -0.143287
C5    C     C_R   0.745767 0.062121 0.567152 -0.080647
C6    C     C_R   0.937747 0.683549 0.567201 -0.080637
C7    C     C_R   0.316405 0.254215 0.567173 -0.080636
C8    C     C_R   0.062072 0.745750 0.432872 -0.080863
C9    C     C_R   0.683584 0.937798 0.432822 -0.080851
C10   C     C_R   0.254228 0.316378 0.432847 -0.080852
C11   C     C_R   0.839332 0.035085 0.532632 -0.142625
C12   C     C_R   0.540086 0.059762 0.147924 0.544114
C13   C     C_R   0.964822 0.804187 0.532709 -0.142573
C14   C     C_R   0.195786 0.160651 0.532667 -0.142612
C15   C     C_R   0.035069 0.839324 0.467404 -0.142923
C16   C     C_R   0.804200 0.964840 0.467327 -0.142867
C17   C     C_R   0.160655 0.195777 0.467364 -0.142904
C18   C     C_R   0.518141 0.458963 0.353365 0.534822
C19   C     C_R   0.541033 0.059172 0.353363 0.534829
C20   C     C_R   0.940815 0.481857 0.353368 0.534818
C21   C     C_R   0.458969 0.518137 0.646639 0.536925
C22   C     C_R   0.059161 0.541026 0.646642 0.536932
C23   C     C_R   0.940241 0.480327 0.147925 0.544116
C24   C     C_R   0.481862 0.940826 0.646637 0.536922
C25   C     C_R   0.493092 0.972927 0.929171 0.006039
C26   C     C_R   0.027067 0.520157 0.929172 0.006037
C27   C     C_R   0.479841 0.506914 0.929172 0.006038
C28   C     C_R   0.006585 0.498265 0.077908 -0.003680
C29   C     C_R   0.491681 0.993426 0.077906 -0.003675
C30   C     C_R   0.501739 0.508326 0.077908 -0.003678
C31   C     C_R   0.408920 0.019956 0.961055 0.017861
C32   C     C_R   0.980080 0.388960 0.961062 0.017854
C33   C     C_R   0.611042 0.591110 0.961060 0.017855
C34   C     C_R   0.454266 0.520763 0.854114 0.530852
C35   C     C_R   0.984627 0.381054 0.036243 0.029379
C36   C     C_R   0.396461 0.015420 0.036235 0.029388
C37   C     C_R   0.618953 0.603566 0.036240 0.029384
C38   C     C_R   0.569493 0.942104 0.045317 -0.147824
C39   C     C_R   0.057860 0.627394 0.045313 -0.147804
C40   C     C_R   0.372605 0.430498 0.045317 -0.147810
C41   C     C_R   0.070999 0.638655 0.972297 -0.134354
C42   C     C_R   0.567613 0.928959 0.972301 -0.134372
C43   C     C_R   0.361343 0.432378 0.972301 -0.134361
C44   C     C_R   0.335176 0.069154 0.920166 -0.097339
C45   C     C_R   0.066493 0.545731 0.854114 0.530847
C46   C     C_R   0.930905 0.266008 0.920180 -0.097340
C47   C     C_R   0.733990 0.664882 0.920174 -0.097327
C48   C     C_R   0.965117 0.255757 0.066609 -0.085809
C49   C     C_R   0.290691 0.034966 0.066594 -0.085797
C50   C     C_R   0.744254 0.709354 0.066603 -0.085802
C51   C     C_R   0.238808 0.097212 0.952169 -0.128773
C52   C     C_R   0.902877 0.141597 0.952191 -0.128777
C53   C     C_R   0.858401 0.761277 0.952181 -0.128782
C54   C     C_R   0.921745 0.137244 0.025102 -0.135078
C55   C     C_R   0.215579 0.078360 0.025080 -0.135076
C56   C     C_R   0.479238 0.933503 0.854115 0.530851
C57   C     C_R   0.862760 0.784501 0.025092 -0.135088
C58   C     C_R   0.501730 0.002532 0.574970 -0.015773
C59   C     C_R   0.997401 0.499150 0.574989 -0.015785
C60   C     C_R   0.500825 0.498263 0.574978 -0.015787
C61   C     C_R   0.002498 0.501718 0.425041 -0.015008
C62   C     C_R   0.499172 0.997434 0.425022 -0.015020
C63   C     C_R   0.498271 0.500806 0.425030 -0.015023
C64   C     C_R   0.616371 0.019828 0.535818 0.044191
C65   C     C_R   0.980038 0.596461 0.535847 0.044172
C66   C     C_R   0.403497 0.383605 0.535831 0.044184
C67   C     C_R   0.393461 0.005215 0.462691 -0.143035
C68   C     C_R   0.019767 0.616345 0.464197 0.044616
C69   C     C_R   0.596498 0.980100 0.464168 0.044595
C70   C     C_R   0.383625 0.403467 0.464181 0.044607
C71   C     C_R   0.994739 0.388230 0.462702 -0.143032
C72   C     C_R   0.611763 0.606523 0.462695 -0.143026
Cr1   Cr    Cr6+3 0.768550 0.541320 0.250660 1.000671
Cr2   Cr    Cr6+3 0.458680 0.227230 0.250660 1.000671
Cr3   Cr    Cr6+3 0.772770 0.231450 0.250660 1.000681
Cr4   Cr    Cr6+3 0.541320 0.768550 0.749340 1.000692
Cr5   Cr    Cr6+3 0.227230 0.458680 0.749340 1.000694
Cr6   Cr    Cr6+3 0.231450 0.772770 0.749340 1.000700
H1    H     H_    0.636988 0.917562 0.076201 0.130671
H2    H     H_    0.987661 0.248147 0.121895 0.129232
H3    H     H_    0.260525 0.012430 0.121877 0.129257
H4    H     H_    0.751869 0.739508 0.121889 0.129237
H5    H     H_    0.180717 0.131860 0.920149 0.119032
H6    H     H_    0.868237 0.048848 0.920178 0.119027
H7    H     H_    0.951145 0.819393 0.920164 0.119005
H8    H     H_    0.901923 0.041553 0.050098 0.100483
H9    H     H_    0.139722 0.098208 0.050069 0.100493
H10   H     H_    0.958450 0.860377 0.050085 0.100466
H11   H     H_    0.316620 0.019941 0.434700 0.145029
H12   H     H_    0.082370 0.719434 0.076192 0.130674
H13   H     H_    0.980045 0.296682 0.434705 0.145034
H14   H     H_    0.703326 0.683362 0.434702 0.145051
H15   H     H_    0.019950 0.316625 0.565305 0.145157
H16   H     H_    0.296676 0.980037 0.565300 0.145159
H17   H     H_    0.683358 0.703332 0.565301 0.145177
H18   H     H_    0.935450 0.065432 0.559087 0.101622
H19   H     H_    0.934524 0.869974 0.559191 0.101615
H20   H     H_    0.130011 0.064540 0.559132 0.101612
H21   H     H_    0.065444 0.935456 0.440960 0.101111
H22   H     H_    0.869975 0.934513 0.440856 0.101103
H23   H     H_    0.280562 0.362990 0.076199 0.130653
H24   H     H_    0.064534 0.130010 0.440906 0.101101
H25   H     H_    0.772468 0.111306 0.619163 0.120127
H26   H     H_    0.888580 0.661048 0.619217 0.120107
H27   H     H_    0.338900 0.227529 0.619186 0.120112
H28   H     H_    0.111264 0.772461 0.380862 0.119069
H29   H     H_    0.661087 0.888624 0.380808 0.119047
H30   H     H_    0.227533 0.338868 0.380835 0.119052
H31   H     H_    0.116511 0.742128 0.949677 0.152905
H32   H     H_    0.625539 0.883416 0.949683 0.152921
H33   H     H_    0.257869 0.374439 0.949681 0.152906
H34   H     H_    0.352063 0.087863 0.863489 0.128109
H35   H     H_    0.912182 0.264167 0.863502 0.128115
H36   H     H_    0.735829 0.647995 0.863497 0.128110
O1    O     O_R   0.910960 0.572410 0.171010 -0.520964
O2    O     O_R   0.528530 0.639750 0.824400 -0.513749
O3    O     O_R   0.111220 0.471470 0.824400 -0.513750
O4    O     O_R   0.360250 0.888780 0.824400 -0.513742
O5    O     O_R   0.909330 0.572400 0.331540 -0.521836
O6    O     O_R   0.427600 0.336930 0.331540 -0.521818
O7    O     O_R   0.663070 0.090670 0.331540 -0.521815
O8    O     O_R   0.572400 0.909330 0.668460 -0.519238
O9    O     O_R   0.336930 0.427600 0.668460 -0.519222
O10   O     O_R   0.090670 0.663070 0.668460 -0.519217
O11   O     O_R   0.638240 0.528520 0.324410 -0.504681
O12   O     O_R   0.427590 0.338550 0.171010 -0.520968
O13   O     O_R   0.471480 0.109720 0.324410 -0.504674
O14   O     O_R   0.890280 0.361760 0.324410 -0.504672
O15   O     O_R   0.528520 0.638240 0.675590 -0.502319
O16   O     O_R   0.109720 0.471480 0.675590 -0.502313
O17   O     O_R   0.361760 0.890280 0.675590 -0.502309
O18   O     O_3   0.666667 0.333333 0.250630 -0.235635
O19   O     O_3   0.333333 0.666667 0.749370 -0.239924
O20   O     O_R   0.661450 0.089040 0.171010 -0.520960
O21   O     O_R   0.572410 0.910960 0.828990 -0.530608
O22   O     O_R   0.338550 0.427590 0.828990 -0.530613
O23   O     O_R   0.089040 0.661450 0.828990 -0.530608
O24   O     O_R   0.639750 0.528530 0.175600 -0.513828
O25   O     O_R   0.471470 0.111220 0.175600 -0.513843
O26   O     O_R   0.888780 0.360250 0.175600 -0.513824

loop_
_geom_bond_atom_site_label_1
_geom_bond_atom_site_label_2
_ccdc_geom_bond_type
C11   H18   S    
C25   C31   A    
C47   H36   S    
C5    H25   S    
C26   C32   A    
Cr1   O5    S    
Cr2   O18   S    
C12   C29   S    
C10   H30   S    
C61   C68   A    
C25   C56   S    
C17   H24   S    
Cr3   O20   S    
C39   C41   A    
Cr2   O12   S    
C27   C33   A    
C48   C54   A    
C29   C36   A    
C43   H33   S    
C62   C67   A    
Cr6   O4    S    
C9    C16   A    
C9    C69   A    
C20   O14   A    
Cr5   O3    S    
Cr3   O26   S    
C18   O11   A    
C72   H14   S    
C18   C63   S    
Cr1   O24   S    
C19   C62   S    
C34   O2    A    
C46   C52   A    
C67   H11   S    
C10   C70   A    
Cr3   O14   S    
C11   C16   A    
C49   H3    S    
C20   C61   S    
C52   H6    S    
C26   C45   S    
C40   H23   S    
C18   O6    A    
C7    C14   A    
C28   C35   A    
C29   C38   A    
C7    H27   S    
Cr5   O22   S    
C6    H26   S    
Cr6   O10   S    
C39   H12   S    
C47   C53   A    
C61   C71   A    
Cr1   O18   S    
C60   C66   A    
C41   H31   S    
C22   O16   A    
C13   H19   S    
C14   C17   A    
Cr5   O19   S    
C35   C48   A    
C24   O8    A    
Cr4   O21   S    
C52   C54   A    
C14   H20   S    
C62   C69   A    
C6    C65   A    
C27   C34   S    
C58   C64   A    
C31   C44   A    
C32   C35   A    
C23   O26   A    
C1    O12   A    
C21   C60   S    
C22   C59   S    
C54   H8    S    
C53   C57   A    
C2    C59   A    
C16   H22   S    
C28   C39   A    
C49   C55   A    
C33   C37   A    
C30   C37   A    
C21   O9    A    
Cr6   O17   S    
C3    C58   A    
Cr5   O9    S    
C4    H17   S    
Cr4   O15   S    
Cr2   O13   S    
C63   C70   A    
C34   O22   A    
C65   C68   A    
C4    C60   A    
C45   O23   A    
C12   O25   A    
C30   C40   A    
C23   C28   S    
C21   O15   A    
C44   H34   S    
C44   C51   A    
C8    C68   A    
C8    C15   A    
C13   C15   A    
C5    C11   A    
C33   C47   A    
C2    C71   A    
Cr6   O23   S    
C51   H5    S    
C4    C72   A    
C56   O21   A    
Cr2   O6    S    
Cr3   O18   S    
C50   H4    S    
C45   O3    A    
C19   O7    A    
C46   H35   S    
Cr3   O7    S    
C50   C57   A    
C32   C46   A    
C2    H15   S    
C3    C67   A    
C15   H21   S    
C8    H28   S    
C25   C42   A    
C53   H7    S    
Cr4   O19   S    
C22   O10   A    
C9    H29   S    
C64   C69   A    
Cr2   O25   S    
Cr1   O1    S    
C57   H10   S    
Cr4   O8    S    
C40   C43   A    
C48   H2    S    
C42   H32   S    
C59   C65   A    
C7    C66   A    
C56   O4    A    
C37   C50   A    
C24   O17   A    
C66   C70   A    
Cr1   O11   S    
C19   O13   A    
C1    C30   S    
Cr4   O2    S    
C3    H16   S    
C51   C55   A    
Cr5   O16   S    
C55   H9    S    
Cr6   O19   S    
C36   C49   A    
C23   O1    A    
C38   C42   A    
C27   C43   A    
C71   H13   S    
C63   C72   A    
C5    C64   A    
C24   C58   S    
C38   H1    S    
C31   C36   A    
C12   O20   A    
C10   C17   A    
C20   O5    A    
C1    O24   A    
C26   C41   A    
C6    C13   A    
