data_mof_unit_18599.cif
_audit_creation_date              2012-10-26T20:03:39-0400
_audit_creation_method            fapswitch 2.2
_symmetry_space_group_name_H-M    P1
_symmetry_Int_Tables_number       1
_space_group_crystal_system       triclinic
_cell_length_a                    12.322713
_cell_length_b                    13.303845
_cell_length_c                    15.843342
_cell_angle_alpha                 77.322227
_cell_angle_beta                  101.693587
_cell_angle_gamma                 117.16386
_cell_volume                      2238.76479238

loop_
_atom_site_label
_atom_site_type_symbol
_atom_type_description
_atom_site_fract_x
_atom_site_fract_y
_atom_site_fract_z
_atom_type_partial_charge
C1    C     C_R   0.854038 0.287426 0.503260 0.525707
C2    C     C_R   0.227089 0.836796 0.472357 0.020556
C3    C     C_R   0.812245 0.082882 0.528223 -0.119459
C4    C     C_R   0.999976 0.499660 0.660025 0.548038
C5    C     C_R   0.731937 0.967478 0.533478 -0.125322
C6    C     C_R   0.606876 0.933484 0.507966 -0.094421
C7    C     C_R   0.560403 0.014889 0.471598 0.046425
C8    C     C_R   0.642875 0.132271 0.460263 0.000945
C9    C     C_R   0.432552 0.983415 0.453734 0.023037
C10   C     C_R   0.389208 0.068133 0.436349 0.026397
C11   C     C_R   0.469318 0.180562 0.407600 0.075825
C12   C     C_3   0.001381 0.499839 0.917389 0.046912
C13   C     C_R   0.594602 0.210404 0.415362 -0.092527
C14   C     C_R   0.345712 0.870306 0.452256 0.034434
C15   C     C_R   0.188972 0.922631 0.472485 0.058974
C16   C     C_R   0.145360 0.713814 0.487324 0.586318
C17   C     C_R   0.769131 0.166692 0.494725 -0.005732
C18   C     C_R   0.347339 0.331091 0.640416 -0.143271
C19   C     C_R   0.758335 0.642409 0.381148 0.079843
C20   C     C_R   0.658976 0.668958 0.352354 -0.131754
C21   C     C_R   0.554978 0.612884 0.396020 -0.107052
C22   C     C_R   0.549915 0.531139 0.470544 0.015161
C23   C     C_3   0.105349 0.587026 0.029293 -0.081507
C24   C     C_R   0.652898 0.504769 0.496344 0.193862
C25   C     C_R   0.445949 0.472824 0.519037 0.006342
C26   C     C_R   0.446806 0.388686 0.591307 0.043790
C27   C     C_R   0.546682 0.362211 0.614068 -0.165479
C28   C     C_R   0.000186 0.500547 0.339980 0.560943
C29   C     C_R   0.647321 0.418897 0.567669 -0.087874
C30   C     C_R   0.340497 0.494233 0.499418 0.063747
C31   C     C_R   0.247620 0.357735 0.618522 0.047504
C32   C     C_3   0.993876 0.400122 0.046578 -0.094747
C33   C     C_3   0.896853 0.414472 0.971585 -0.120353
C34   C     C_3   0.000291 0.501128 0.082951 0.033215
C35   C     C_1   0.000449 0.499420 0.749898 -0.033461
C36   C     C_1   0.000008 0.500984 0.250158 -0.006722
C37   C     C_3   0.097491 0.486066 0.991327 0.020137
C38   C     C_3   0.014934 0.711807 0.900396 -0.255533
C39   C     C_3   0.019692 0.793487 0.957263 -0.299294
C40   C     C_3   0.027237 0.905694 0.902464 -0.446342
C41   C     C_3   0.207792 0.469235 0.979451 -0.264564
C42   C     C_3   0.285055 0.458339 0.066904 -0.289639
C43   C     C_3   0.395251 0.441532 0.055108 -0.437524
C44   C     C_3   0.007502 0.599367 0.954957 0.019635
C45   C     C_3   0.902673 0.515028 0.009747 -0.096993
C46   C     C_1   0.000982 0.499362 0.825598 -0.073330
C47   C     C_1   0.999972 0.501203 0.174524 -0.050524
C48   C     C_R   0.267121 0.036923 0.446918 -0.089023
Cu1   Cu    Cu3+1 0.098270 0.475420 0.519690 0.963276
Cu2   Cu    Cu3+1 0.901730 0.524580 0.480310 0.952907
H1    H     H_    0.811683 0.343892 0.946809 0.107914
H2    H     H_    0.838500 0.685348 0.346540 0.144223
H3    H     H_    0.988573 0.318129 0.085664 0.114285
H4    H     H_    0.478977 0.633000 0.368871 0.144315
H5    H     H_    0.661866 0.731994 0.295420 0.121351
H6    H     H_    0.718474 0.391723 0.590001 0.179960
H7    H     H_    0.822683 0.527385 0.018605 0.104632
H8    H     H_    0.190570 0.657724 0.053905 0.107786
H9    H     H_    0.234141 0.101185 0.440780 0.178719
H10   H     H_    0.111573 0.948752 0.869080 0.156469
H11   H     H_    0.945390 0.889834 0.852977 0.156835
H12   H     H_    0.907885 0.106412 0.553371 0.150080
H13   H     H_    0.030431 0.963123 0.945218 0.146262
H14   H     H_    0.935970 0.753355 0.991265 0.162872
H15   H     H_    0.101395 0.811943 0.007163 0.170219
H16   H     H_    0.098670 0.751877 0.866439 0.150497
H17   H     H_    0.933132 0.693182 0.850603 0.153638
H18   H     H_    0.364035 0.362219 0.026575 0.156070
H19   H     H_    0.455315 0.515579 0.011721 0.146007
H20   H     H_    0.449466 0.434143 0.119385 0.179865
H21   H     H_    0.318760 0.536761 0.097256 0.172981
H22   H     H_    0.227866 0.384186 0.111782 0.186213
H23   H     H_    0.546694 0.843315 0.519990 0.144175
H24   H     H_    0.173904 0.390772 0.949162 0.145290
H25   H     H_    0.264891 0.543525 0.934663 0.146432
H26   H     H_    0.766031 0.903915 0.561365 0.150948
H27   H     H_    0.651873 0.294886 0.385534 0.177022
H28   H     H_    0.170789 0.314126 0.656455 0.121242
H29   H     H_    0.547367 0.296980 0.668690 0.107360
H30   H     H_    0.347068 0.266393 0.695658 0.092583
H31   H     H_    0.330974 0.554706 0.444919 0.152036
I1    I     I_    0.367175 0.784468 0.362668 -0.458235
I2    I     I_    0.017305 0.892384 0.507180 -0.422819
I3    I     I_    0.405640 0.304395 0.341904 -0.466185
N1    N     N_R   0.246280 0.438200 0.549540 -0.234076
N2    N     N_R   0.754330 0.561180 0.450980 -0.231797
O1    O     O_R   0.972510 0.318130 0.524770 -0.501763
O2    O     O_R   0.806530 0.359650 0.491510 -0.538705
O3    O     O_R   0.082970 0.479240 0.637550 -0.502287
O4    O     O_R   0.916990 0.520750 0.604290 -0.506424
O5    O     O_R   0.193470 0.640350 0.508490 -0.484936
O6    O     O_R   0.027490 0.681870 0.475230 -0.468170
O7    O     O_R   0.083010 0.479250 0.395710 -0.481239
O8    O     O_R   0.917030 0.520760 0.362450 -0.513125

loop_
_geom_bond_atom_site_label_1
_geom_bond_atom_site_label_2
_ccdc_geom_bond_type
C1    O1    A    
C23   H8    S    
C8    C13   A    
C31   N1    A    
C27   C29   A    
C33   C45   S    
C41   C42   S    
Cu1   O1    S    
C19   C20   A    
C18   C26   A    
C19   N2    A    
C7    C8    A    
C39   H14   S    
C45   H7    S    
C26   C27   A    
C40   H13   S    
C6    H23   S    
C40   H10   S    
C5    C6    A    
C27   H29   S    
C38   C39   S    
C36   C47   T    
C28   O8    A    
C12   C37   S    
C24   C29   A    
C41   H24   S    
C19   H2    S    
Cu2   O4    S    
C38   H16   S    
C43   H18   S    
C22   C25   A    
C2    C16   S    
C9    C10   A    
Cu2   O2    S    
C1    O2    A    
C4    C35   S    
C43   H19   S    
C21   C22   A    
C39   H15   S    
C15   C48   A    
Cu1   O5    S    
C20   H5    S    
C4    O4    A    
C13   H27   S    
Cu1   N1    S    
C12   C46   S    
C39   C40   S    
Cu2   O8    S    
C15   I2    S    
C25   C26   A    
C23   C37   S    
C40   H11   S    
C28   O7    A    
C32   C34   S    
C9    C14   A    
C38   C44   S    
C41   H25   S    
C23   C34   S    
C42   H22   S    
C48   H9    S    
C34   C45   S    
C32   C37   S    
C38   H17   S    
C30   N1    A    
C2    C15   A    
Cu2   O6    S    
C16   O6    A    
C43   H20   S    
C10   C48   A    
C22   C24   A    
C42   C43   S    
C14   I1    S    
C32   H3    S    
C44   C45   S    
C31   H28   S    
C4    O3    A    
C3    H12   S    
C25   C30   A    
C7    C9    A    
Cu1   O3    S    
C3    C5    A    
C6    C7    A    
C34   C47   S    
C29   H6    S    
C11   I3    S    
C33   H1    S    
C1    C17   S    
C8    C17   A    
C32   C33   S    
C30   H31   S    
C12   C44   S    
C11   C13   A    
C21   H4    S    
C5    H26   S    
C42   H21   S    
C3    C17   A    
C37   C41   S    
C2    C14   A    
C10   C11   A    
Cu2   N2    S    
C20   C21   A    
C28   C36   S    
C16   O5    A    
C18   H30   S    
Cu1   Cu2   S    
C18   C31   A    
Cu1   O7    S    
C12   C33   S    
C35   C46   T    
C24   N2    A    
C23   C44   S    
