data_mof_unit_41029.cif
_audit_creation_date              2012-10-26T21:19:13-0400
_audit_creation_method            fapswitch 2.2
_symmetry_space_group_name_H-M    P1
_symmetry_Int_Tables_number       1
_space_group_crystal_system       triclinic
_cell_length_a                    15.851131
_cell_length_b                    15.867656
_cell_length_c                    17.146047
_cell_angle_alpha                 91.069805
_cell_angle_beta                  95.391389
_cell_angle_gamma                 93.218329
_cell_volume                      4285.48486059

loop_
_atom_site_label
_atom_site_type_symbol
_atom_type_description
_atom_site_fract_x
_atom_site_fract_y
_atom_site_fract_z
_atom_type_partial_charge
C1    C     C_R   0.509388 0.496711 0.651421 0.549482
C2    C     C_R   0.399895 0.513751 0.137136 -0.003292
C3    C     C_R   0.592630 0.498446 0.781408 -0.167095
C4    C     C_R   0.407369 0.511368 0.219036 -0.166909
C5    C     C_R   0.250986 0.555336 0.524734 0.021860
C6    C     C_R   0.748594 0.447182 0.471259 0.022879
C7    C     C_R   0.162144 0.554961 0.530614 -0.018196
C8    C     C_R   0.837330 0.448445 0.464725 -0.018020
C9    C     C_R   0.110250 0.482772 0.502559 0.181172
C10   C     C_R   0.889250 0.519323 0.495889 0.180771
C11   C     C_R   0.149341 0.416244 0.469381 -0.155496
C12   C     C_R   0.490592 0.504911 0.348775 0.547497
C13   C     C_R   0.850468 0.583417 0.533180 -0.155645
C14   C     C_R   0.236928 0.420791 0.461575 0.101833
C15   C     C_R   0.763124 0.577456 0.541961 0.102065
C16   C     C_R   0.500305 0.660148 0.500165 0.549296
C17   C     C_R   0.499720 0.339821 0.499844 0.552129
C18   C     C_3   0.576486 0.032815 0.528232 0.045483
C19   C     C_3   0.423855 0.966936 0.471849 0.044365
C20   C     C_3   0.518816 0.973567 0.574081 -0.173292
C21   C     C_3   0.481534 0.026217 0.426016 -0.174729
C22   C     C_1   0.500883 0.749594 0.500195 0.031062
C23   C     C_R   0.439059 0.481308 0.778314 -0.051177
C24   C     C_1   0.499319 0.250323 0.499897 0.037457
C25   C     C_3   0.558517 0.975045 0.454717 0.045537
C26   C     C_3   0.441794 0.024732 0.545398 0.043356
C27   C     C_3   0.500653 0.916479 0.499655 -0.015264
C28   C     C_3   0.499730 0.083353 0.500466 -0.016779
C29   C     C_1   0.501015 0.824989 0.500127 0.048515
C30   C     C_1   0.499392 0.174901 0.500022 0.050773
C31   C     C_R   0.512900 0.491279 0.737774 -0.013417
C32   C     C_R   0.487080 0.516046 0.262975 -0.014654
C33   C     C_R   0.270016 0.348782 0.421050 0.074036
C34   C     C_R   0.560958 0.531919 0.223417 -0.049153
C35   C     C_R   0.289055 0.355658 0.343269 -0.069551
C36   C     C_R   0.317581 0.286546 0.303558 -0.126317
C37   C     C_R   0.324088 0.209121 0.340517 -0.108172
C38   C     C_R   0.301040 0.200624 0.416751 -0.093620
C39   C     C_R   0.273550 0.269932 0.456775 -0.081739
C40   C     C_R   0.731288 0.643349 0.591189 0.075237
C41   C     C_R   0.729235 0.630425 0.671557 -0.081041
C42   C     C_R   0.704586 0.694122 0.720577 -0.119746
C43   C     C_R   0.685101 0.772461 0.689925 -0.109164
C44   C     C_R   0.692020 0.787569 0.610676 -0.103628
C45   C     C_R   0.447140 0.486272 0.859975 -0.102756
C46   C     C_R   0.716314 0.723693 0.561625 -0.076379
C47   C     C_2   0.662852 0.068258 0.560093 0.596880
C48   C     C_2   0.337908 0.930662 0.439516 0.595635
C49   C     C_2   0.376068 0.050975 0.596973 0.588348
C50   C     C_2   0.624439 0.948717 0.403409 0.597114
C51   C     C_R   0.646955 0.553002 0.263041 0.047922
C52   C     C_R   0.663016 0.626436 0.310517 -0.046640
C53   C     C_R   0.746240 0.652193 0.338973 -0.104170
C54   C     C_R   0.813892 0.605829 0.319386 -0.106673
C55   C     C_R   0.798439 0.533414 0.271509 -0.118384
C56   C     C_R   0.553315 0.532984 0.141754 -0.101715
C57   C     C_R   0.715449 0.506556 0.244057 -0.098130
C58   C     C_R   0.352392 0.460697 0.740168 0.051832
C59   C     C_R   0.286023 0.511630 0.756035 -0.096906
C60   C     C_R   0.202072 0.485882 0.731111 -0.116249
C61   C     C_R   0.183540 0.409974 0.688841 -0.103966
C62   C     C_R   0.249091 0.359034 0.672539 -0.102444
C63   C     C_R   0.333291 0.383902 0.698339 -0.045879
C64   C     C_R   0.686412 0.516161 0.906092 0.041330
C65   C     C_R   0.705556 0.582300 0.961853 -0.086762
C66   C     C_R   0.786518 0.592891 0.002034 -0.117968
C67   C     C_R   0.526805 0.499976 0.903019 0.204443
C68   C     C_R   0.849313 0.538288 0.986376 -0.105144
C69   C     C_R   0.831289 0.473069 0.930398 -0.114022
C70   C     C_R   0.750302 0.462006 0.890295 -0.099782
C71   C     C_R   0.314148 0.507024 0.093234 0.048137
C72   C     C_R   0.291825 0.564488 0.034278 -0.076614
C73   C     C_R   0.211423 0.557362 0.992688 -0.117362
C74   C     C_R   0.152227 0.493547 0.010035 -0.101843
C75   C     C_R   0.173339 0.436743 0.069027 -0.109264
C76   C     C_R   0.253814 0.443356 0.110506 -0.097794
C77   C     C_R   0.872023 0.376340 0.423834 0.040500
C78   C     C_R   0.473949 0.520912 0.098048 0.202179
C79   C     C_R   0.929049 0.389519 0.366468 -0.068734
C80   C     C_R   0.960728 0.320961 0.328572 -0.127975
C81   C     C_R   0.935677 0.238570 0.347191 -0.099400
C82   C     C_R   0.878766 0.224583 0.403670 -0.090889
C83   C     C_R   0.846986 0.292961 0.441766 -0.100283
C84   C     C_R   0.127639 0.629232 0.568297 0.041695
C85   C     C_R   0.152741 0.711357 0.546721 -0.099178
C86   C     C_R   0.121864 0.781792 0.582362 -0.088968
C87   C     C_R   0.065817 0.771113 0.640043 -0.097536
C88   C     C_R   0.040685 0.689986 0.662252 -0.131216
C89   C     C_R   0.600487 0.504375 0.863282 -0.007083
C90   C     C_R   0.071387 0.619389 0.626722 -0.071700
Cu1   Cu    Cu3+1 0.584780 0.504040 0.503820 0.961655
Cu2   Cu    Cu3+1 0.415220 0.495960 0.496180 0.962181
H1    H     H_    0.534223 0.951466 0.634548 0.131860
H2    H     H_    0.291063 0.607839 0.550505 0.145569
H3    H     H_    0.279639 0.413892 0.313222 0.100946
H4    H     H_    0.333588 0.292632 0.243883 0.109534
H5    H     H_    0.345888 0.155495 0.309805 0.129222
H6    H     H_    0.305022 0.140585 0.445144 0.184850
H7    H     H_    0.255680 0.262240 0.515559 0.115552
H8    H     H_    0.749349 0.571817 0.696204 0.096744
H9    H     H_    0.701956 0.683184 0.782456 0.117586
H10   H     H_    0.666232 0.821925 0.727810 0.124279
H11   H     H_    0.678635 0.848729 0.587226 0.168221
H12   H     H_    0.466229 0.048243 0.365518 0.130592
H13   H     H_    0.722080 0.736452 0.500624 0.128887
H14   H     H_    0.740678 0.171463 0.587837 0.331565
H15   H     H_    0.261507 0.826804 0.410560 0.330919
H16   H     H_    0.317137 0.146050 0.644482 0.330587
H17   H     H_    0.684655 0.853719 0.357419 0.329935
H18   H     H_    0.611431 0.664601 0.323895 0.129159
H19   H     H_    0.758655 0.709265 0.374515 0.106739
H20   H     H_    0.878337 0.626561 0.340537 0.124512
H21   H     H_    0.850733 0.498923 0.254098 0.105450
H22   H     H_    0.704689 0.451047 0.205906 0.116874
H23   H     H_    0.110738 0.360469 0.448109 0.123112
H24   H     H_    0.299148 0.569853 0.790116 0.106983
H25   H     H_    0.151427 0.523984 0.746419 0.102161
H26   H     H_    0.118329 0.390022 0.669774 0.121436
H27   H     H_    0.234291 0.299105 0.642012 0.102475
H28   H     H_    0.383199 0.342411 0.687710 0.126626
H29   H     H_    0.658086 0.626042 0.973860 0.123246
H30   H     H_    0.800652 0.643655 0.045134 0.113582
H31   H     H_    0.911999 0.546644 0.017445 0.106312
H32   H     H_    0.880058 0.430938 0.918183 0.105984
H33   H     H_    0.737208 0.410760 0.847489 0.110852
H34   H     H_    0.889147 0.637830 0.557523 0.123441
H35   H     H_    0.336384 0.615152 0.020778 0.125487
H36   H     H_    0.194920 0.601533 0.947159 0.105354
H37   H     H_    0.089947 0.488236 0.977902 0.102077
H38   H     H_    0.127399 0.387376 0.082499 0.106300
H39   H     H_    0.269285 0.398275 0.155441 0.092442
H40   H     H_    0.949525 0.452715 0.351158 0.125728
H41   H     H_    0.004919 0.331773 0.284865 0.104925
H42   H     H_    0.960375 0.185573 0.317870 0.124142
H43   H     H_    0.859355 0.160708 0.418097 0.150870
H44   H     H_    0.803490 0.280778 0.485863 0.122432
H45   H     H_    0.610139 0.544704 0.112102 0.141630
H46   H     H_    0.195735 0.720890 0.501801 0.121122
H47   H     H_    0.141385 0.844681 0.565171 0.152080
H48   H     H_    0.041857 0.825687 0.667516 0.126120
H49   H     H_    0.997142 0.681725 0.706871 0.107328
H50   H     H_    0.050859 0.557191 0.644738 0.124802
H51   H     H_    0.390305 0.477457 0.890181 0.148943
H52   H     H_    0.649539 0.500659 0.751704 0.128498
H53   H     H_    0.350114 0.507227 0.248406 0.127117
H54   H     H_    0.708181 0.396039 0.443293 0.144012
N1    N     N_2   0.534722 0.505063 0.986117 -0.250434
N2    N     N_2   0.466680 0.515705 0.015017 -0.259906
N3    N     N_R   0.287870 0.489880 0.490440 -0.234083
N4    N     N_R   0.712130 0.510120 0.509560 -0.233866
N5    N     N_2   0.021031 0.471183 0.510608 -0.245899
N6    N     N_2   0.978367 0.531470 0.487751 -0.246173
O1    O     O_R   0.579470 0.503780 0.617500 -0.498166
O2    O     O_R   0.680197 0.155566 0.565692 -0.701189
O3    O     O_2   0.282507 0.977944 0.418169 -0.541312
O4    O     O_R   0.321515 0.843246 0.433701 -0.700472
O5    O     O_2   0.333841 0.997077 0.628519 -0.507862
O6    O     O_R   0.363439 0.136517 0.608873 -0.727605
O7    O     O_2   0.665632 0.002479 0.370677 -0.508170
O8    O     O_R   0.638598 0.863270 0.393287 -0.726846
O9    O     O_R   0.420530 0.496220 0.382500 -0.503974
O10   O     O_R   0.436280 0.496950 0.611050 -0.495285
O11   O     O_R   0.563720 0.503050 0.388950 -0.495577
O12   O     O_R   0.571580 0.624340 0.503230 -0.497725
O13   O     O_R   0.428420 0.375660 0.496770 -0.490731
O14   O     O_R   0.428390 0.617510 0.496780 -0.503955
O15   O     O_R   0.571610 0.382490 0.503220 -0.504463
O16   O     O_2   0.717878 0.020304 0.580866 -0.532261

loop_
_geom_bond_atom_site_label_1
_geom_bond_atom_site_label_2
_ccdc_geom_bond_type
Cu2   O9    S    
C23   C58   S    
C66   C68   A    
C87   C88   A    
C34   C56   A    
C23   C45   A    
C22   C29   T    
C27   C29   S    
C41   C42   A    
C35   C36   A    
C67   C89   A    
C87   H48   S    
C38   H6    S    
C49   O5    D    
C18   C47   S    
C14   C33   S    
C37   H5    S    
C81   C82   A    
C5    N3    A    
C81   H42   S    
C53   C54   A    
C16   O12   A    
C40   C46   A    
C34   C51   S    
C33   C39   A    
Cu1   O15   S    
C36   C37   A    
C19   C21   S    
Cu1   O1    S    
C38   C39   A    
C6    H54   S    
C76   H39   S    
H16   O6    S    
C4    H53   S    
C46   H13   S    
C1    C31   S    
C56   C78   A    
C73   C74   A    
C82   H43   S    
C19   C26   S    
C25   C50   S    
C63   H28   S    
C10   N6    S    
C12   O9    A    
C21   H12   S    
Cu2   O13   S    
N1    N2    D    
C16   O14   A    
C59   H24   S    
H14   O2    S    
C45   C67   A    
N5    N6    D    
C66   H30   S    
C51   C57   A    
C65   H29   S    
C19   C27   S    
H15   O4    S    
C75   H38   S    
C78   N2    S    
C72   C73   A    
C53   H19   S    
C7    C84   S    
C48   O4    S    
C59   C60   A    
C12   C32   S    
Cu1   O11   S    
C61   C62   A    
C18   C25   S    
C84   C90   A    
C64   C89   S    
C68   H31   S    
C44   H11   S    
C44   C46   A    
C5    H2    S    
C77   C79   A    
C17   C24   S    
C74   C75   A    
C72   H35   S    
C51   C52   A    
C18   C28   S    
C84   C85   A    
C17   O15   A    
C26   C49   S    
Cu1   Cu2   S    
C5    C7    A    
C19   C48   S    
C68   C69   A    
C6    C8    A    
C55   H21   S    
C69   H32   S    
C50   O8    S    
C58   C59   A    
C85   C86   A    
C80   H41   S    
C1    O1    A    
C60   C61   A    
C32   C34   A    
C2    C4    A    
C75   C76   A    
C37   C38   A    
C2    C78   A    
C47   O16   D    
C36   H4    S    
C39   H7    S    
C52   H18   S    
C62   C63   A    
C62   H27   S    
C41   H8    S    
C54   H20   S    
C60   H25   S    
C90   H50   S    
C3    C31   A    
C9    C11   A    
C83   H44   S    
C4    C32   A    
C86   H47   S    
C13   H34   S    
C70   H33   S    
C40   C41   A    
C20   C27   S    
C21   C28   S    
C88   C90   A    
C1    O10   A    
C82   C83   A    
C64   C70   A    
C55   C57   A    
C43   C44   A    
C67   N1    S    
C8    C77   S    
C49   O6    S    
C42   C43   A    
C2    C71   S    
C42   H9    S    
C88   H49   S    
C11   H23   S    
C52   C53   A    
Cu2   O10   S    
C58   C63   A    
C7    C9    A    
C21   C25   S    
C54   C55   A    
C9    N5    S    
C16   C22   S    
C61   H26   S    
C86   C87   A    
C48   O3    D    
C3    H52   S    
C80   C81   A    
C10   C13   A    
Cu1   N4    S    
C57   H22   S    
C47   O2    S    
C35   H3    S    
C50   O7    D    
C25   C27   S    
C73   H36   S    
C26   C28   S    
C3    C89   A    
C64   C65   A    
C13   C15   A    
C43   H10   S    
C71   C72   A    
C17   O13   A    
C12   O11   A    
C56   H45   S    
C33   C35   A    
C71   C76   A    
C20   C26   S    
C79   H40   S    
C14   N3    A    
C28   C30   S    
C11   C14   A    
C18   C20   S    
C69   C70   A    
Cu1   O12   S    
C20   H1    S    
C24   C30   T    
C15   C40   S    
C79   C80   A    
C6    N4    A    
Cu2   O14   S    
C8    C10   A    
C65   C66   A    
C74   H37   S    
Cu2   N3    S    
C45   H51   S    
C77   C83   A    
H17   O8    S    
C85   H46   S    
C15   N4    A    
C23   C31   A    
