data_mof_unit_6952.cif
_audit_creation_date              2012-12-10T17:59:39-0500
_audit_creation_method            fapswitch 2.2
_symmetry_space_group_name_H-M    P1
_symmetry_Int_Tables_number       1
_space_group_crystal_system       triclinic
_cell_length_a                    18.408588
_cell_length_b                    18.408554
_cell_length_c                    34.327366
_cell_angle_alpha                 90.052437
_cell_angle_beta                  90.052947
_cell_angle_gamma                 90.367344
_cell_volume                      11632.4538598

loop_
_atom_site_label
_atom_site_type_symbol
_atom_type_description
_atom_site_fract_x
_atom_site_fract_y
_atom_site_fract_z
_atom_type_partial_charge
C1    C     C_R   0.968189 0.554001 0.418157 0.401673
C2    C     C_R   0.028081 0.440050 0.582345 0.471503
C3    C     C_R   0.438297 0.024663 0.418040 0.481810
C4    C     C_R   0.557695 0.960605 0.582066 0.438058
C5    C     C_R   0.039183 0.442153 0.417927 0.438229
C6    C     C_R   0.975517 0.561776 0.581956 0.481504
C7    C     C_R   0.559858 0.971744 0.417657 0.471669
C8    C     C_R   0.446127 0.032043 0.581837 0.401672
C9    C     C_R   0.468029 0.053914 0.918161 0.401688
C10   C     C_R   0.528168 0.940100 0.082345 0.471735
C11   C     C_R   0.938229 0.524496 0.918043 0.481557
C12   C     C_R   0.057857 0.460842 0.082072 0.438114
C13   C     C_R   0.539328 0.942257 0.917934 0.438102
C14   C     C_R   0.475407 0.061731 0.081960 0.481724
C15   C     C_R   0.059926 0.471870 0.917656 0.471570
C16   C     C_R   0.945983 0.531796 0.081845 0.401709
C17   C     C_R   0.001766 0.497340 0.398075 -0.245833
C18   C     C_R   0.000285 0.500406 0.602059 -0.261991
C19   C     C_R   0.499591 0.999715 0.397939 -0.262240
C20   C     C_R   0.502652 0.998233 0.601920 -0.245801
C21   C     C_R   0.501768 0.997346 0.898079 -0.245830
C22   C     C_R   0.500281 0.000407 0.102061 -0.262209
C23   C     C_R   0.999590 0.499708 0.897940 -0.262028
C24   C     C_R   0.002658 0.498236 0.101925 -0.245757
C25   C     C_R   0.073908 0.386576 0.480451 0.426517
C26   C     C_R   0.952125 0.623803 0.519619 0.464740
C27   C     C_R   0.617694 0.935859 0.479122 0.437233
C28   C     C_R   0.376136 0.044204 0.521214 0.409940
C29   C     C_R   0.956383 0.624066 0.478773 0.410002
C30   C     C_R   0.063579 0.381998 0.520872 0.437415
C31   C     C_R   0.376428 0.048459 0.480369 0.464675
C32   C     C_R   0.613061 0.925560 0.519541 0.426423
C33   C     C_R   0.574281 0.886833 0.980459 0.426447
C34   C     C_R   0.451705 0.123636 0.019629 0.464689
C35   C     C_R   0.117931 0.436283 0.979127 0.437359
C36   C     C_R   0.875940 0.543651 0.021223 0.409954
C37   C     C_R   0.455959 0.123920 0.978784 0.409958
C38   C     C_R   0.563972 0.882213 0.020879 0.437237
C39   C     C_R   0.876215 0.547926 0.980378 0.464765
C40   C     C_R   0.113360 0.426004 0.019551 0.426513
C41   C     C_R   0.499808 0.000037 0.355689 0.867810
C42   C     C_R   0.502079 0.999798 0.644263 0.953671
C43   C     C_R   0.000201 0.497923 0.355735 0.953885
C44   C     C_R   0.999963 0.500192 0.644310 0.867659
C45   C     C_R   0.999808 0.500036 0.855690 0.867700
C46   C     C_R   0.002078 0.499800 0.144264 0.953644
C47   C     C_R   0.500202 0.997921 0.855737 0.953720
C48   C     C_R   0.499962 0.000191 0.144311 0.867895
C49   C     C_R   0.359798 0.140207 0.249999 0.895332
C50   C     C_R   0.640144 0.859856 0.750000 0.908303
C51   C     C_R   0.860338 0.360350 0.249980 1.034246
C52   C     C_R   0.140462 0.640438 0.750018 0.888049
C53   C     C_R   0.640181 0.859814 0.249999 0.896825
C54   C     C_R   0.359867 0.140134 0.750000 0.929445
C55   C     C_R   0.139654 0.639658 0.250018 1.034182
C56   C     C_R   0.859560 0.359540 0.749983 0.888091
C57   C     C_R   0.360340 0.860348 0.749981 1.034231
C58   C     C_R   0.640466 0.140433 0.250021 0.888164
C59   C     C_R   0.859795 0.640205 0.750000 0.895185
C60   C     C_R   0.140146 0.359858 0.249998 0.908042
C61   C     C_R   0.639652 0.139659 0.750019 1.034253
C62   C     C_R   0.359554 0.859546 0.249987 0.888072
C63   C     C_R   0.140184 0.359816 0.750000 0.896708
C64   C     C_R   0.859865 0.640132 0.249999 0.929275
C65   C     C_R   0.266016 0.783287 0.214597 0.229728
C66   C     C_R   0.719730 0.224140 0.785526 0.262803
C67   C     C_R   0.186979 0.238985 0.228020 0.243842
C68   C     C_R   0.803407 0.751838 0.778743 0.242279
C69   C     C_R   0.734083 0.216380 0.214690 0.231713
C70   C     C_R   0.280589 0.775867 0.785569 0.248034
C71   C     C_R   0.812806 0.760834 0.227889 0.249117
C72   C     C_R   0.196803 0.248433 0.778815 0.239535
C73   C     C_R   0.239139 0.187161 0.772084 0.249282
C74   C     C_R   0.751526 0.803164 0.221165 0.239485
C75   C     C_R   0.216756 0.733942 0.785419 0.230260
C76   C     C_R   0.775839 0.280280 0.214482 0.263118
C77   C     C_R   0.761048 0.813062 0.771945 0.243999
C78   C     C_R   0.248212 0.196634 0.221232 0.242208
C79   C     C_R   0.783622 0.265911 0.785317 0.232419
C80   C     C_R   0.224115 0.719442 0.214441 0.248191
C81   C     C_R   0.766038 0.283262 0.714587 0.230254
C82   C     C_R   0.219698 0.724165 0.285532 0.262757
C83   C     C_R   0.686938 0.738953 0.728059 0.244009
C84   C     C_R   0.303402 0.251837 0.278743 0.242251
C85   C     C_R   0.234087 0.716379 0.714686 0.231929
C86   C     C_R   0.780630 0.275832 0.285572 0.247844
C87   C     C_R   0.312844 0.260864 0.727923 0.249333
C88   C     C_R   0.696813 0.748443 0.278819 0.239548
C89   C     C_R   0.739148 0.687168 0.272093 0.249192
C90   C     C_R   0.251572 0.303200 0.721189 0.239496
C91   C     C_R   0.716802 0.233895 0.285430 0.230586
C92   C     C_R   0.275852 0.780273 0.714477 0.262979
C93   C     C_R   0.261043 0.313061 0.271948 0.243946
C94   C     C_R   0.748161 0.696595 0.721259 0.242293
C95   C     C_R   0.283584 0.765950 0.285330 0.232621
C96   C     C_R   0.724119 0.219427 0.714434 0.248063
C97   C     C_R   0.041245 0.443269 0.459103 -0.106328
C98   C     C_R   0.977628 0.562953 0.540833 -0.133806
C99   C     C_R   0.558581 0.966155 0.458565 -0.122450
C100  C     C_R   0.439256 0.021901 0.541323 -0.140490
C101  C     C_R   0.978370 0.560832 0.458670 -0.140511
C102  C     C_R   0.033602 0.441273 0.541432 -0.122285
C103  C     C_R   0.437138 0.022627 0.459162 -0.133905
C104  C     C_R   0.556540 0.958511 0.540891 -0.106252
C105  C     C_R   0.541412 0.943403 0.959109 -0.106255
C106  C     C_R   0.477450 0.062890 0.040838 -0.133874
C107  C     C_R   0.058691 0.466329 0.958568 -0.122335
C108  C     C_R   0.939159 0.521632 0.041329 -0.140497
C109  C     C_R   0.478177 0.060770 0.958676 -0.140485
C110  C     C_R   0.533757 0.941369 0.041436 -0.122417
C111  C     C_R   0.937049 0.522384 0.959166 -0.133813
C112  C     C_R   0.056707 0.458732 0.040897 -0.106240
C113  C     C_R   0.195292 0.695214 0.249999 -0.380479
C114  C     C_R   0.802682 0.302550 0.749959 -0.373954
C115  C     C_R   0.303532 0.196495 0.249993 -0.408488
C116  C     C_R   0.696293 0.803707 0.750001 -0.412852
C117  C     C_R   0.804799 0.304695 0.250009 -0.380472
C118  C     C_R   0.197456 0.697311 0.750045 -0.374210
C119  C     C_R   0.696455 0.803525 0.249995 -0.409126
C120  C     C_R   0.303699 0.196303 0.750002 -0.410528
C121  C     C_R   0.196466 0.303535 0.750001 -0.409159
C122  C     C_R   0.803690 0.696296 0.249993 -0.410509
C123  C     C_R   0.304795 0.804699 0.750007 -0.380485
C124  C     C_R   0.697471 0.197295 0.250051 -0.374151
C125  C     C_R   0.803519 0.696482 0.750000 -0.408522
C126  C     C_R   0.196304 0.303717 0.249989 -0.412808
C127  C     C_R   0.695299 0.195206 0.749995 -0.380490
C128  C     C_R   0.302661 0.802573 0.249969 -0.374143
C129  C     C_R   0.009598 0.502460 0.479475 -0.131994
C130  C     C_R   0.007938 0.502730 0.520624 -0.150710
C131  C     C_R   0.497229 0.992070 0.479372 -0.150785
C132  C     C_R   0.497486 0.990411 0.520520 -0.131909
C133  C     C_R   0.509588 0.002497 0.979480 -0.131929
C134  C     C_R   0.507927 0.002757 0.020628 -0.150783
C135  C     C_R   0.997252 0.492038 0.979375 -0.150721
C136  C     C_R   0.997521 0.490386 0.020525 -0.131958
O1    O     O_3   0.500000 0.000000 0.250000 -0.595434
O2    O     O_3   0.500000 1.000000 0.750000 -0.578979
O3    O     O_3   1.000000 0.500000 0.250000 -0.579018
O4    O     O_3   0.000000 0.500000 0.750000 -0.595429
O5    O     O_R   0.500000 0.939270 0.337550 -0.572411
O6    O     O_R   0.500000 0.060730 0.662450 -0.606506
O7    O     O_R   0.060730 0.500000 0.337550 -0.648530
O8    O     O_R   0.939270 0.500000 0.662450 -0.570171
O9    O     O_R   0.500000 0.060730 0.337550 -0.570040
O10   O     O_R   0.500000 0.939270 0.662450 -0.648680
O11   O     O_R   0.939270 0.500000 0.337550 -0.606580
O12   O     O_R   0.060730 0.500000 0.662450 -0.572494
O13   O     O_R   0.000000 0.439270 0.837550 -0.572488
O14   O     O_R   0.000000 0.560730 0.162450 -0.606579
O15   O     O_R   0.560730 1.000000 0.837550 -0.648632
O16   O     O_R   0.439270 0.000000 0.162450 -0.570143
O17   O     O_R   0.000000 0.560730 0.837550 -0.570134
O18   O     O_R   0.000000 0.439270 0.162450 -0.648580
O19   O     O_R   0.439270 1.000000 0.837550 -0.606536
O20   O     O_R   0.560730 0.000000 0.162450 -0.572454
O21   O     O_R   0.414490 0.146150 0.273020 -0.571604
O22   O     O_R   0.585510 0.853850 0.726980 -0.593909
O23   O     O_R   0.853850 0.414490 0.273020 -0.575585
O24   O     O_R   0.146150 0.585510 0.726980 -0.573953
O25   O     O_R   0.585510 0.853850 0.273020 -0.571359
O26   O     O_R   0.414490 0.146150 0.726980 -0.575227
O27   O     O_R   0.146150 0.585510 0.273020 -0.570550
O28   O     O_R   0.853850 0.414490 0.726980 -0.573771
O29   O     O_R   0.414490 0.853850 0.726980 -0.570586
O30   O     O_R   0.585510 0.146150 0.273020 -0.573613
O31   O     O_R   0.853850 0.585510 0.726980 -0.571599
O32   O     O_R   0.146150 0.414490 0.273020 -0.593821
O33   O     O_R   0.585510 0.146150 0.726980 -0.575599
O34   O     O_R   0.414490 0.853850 0.273020 -0.573631
O35   O     O_R   0.146150 0.414490 0.726980 -0.571398
O36   O     O_R   0.853850 0.585510 0.273020 -0.575237
O37   O     O_R   0.914490 0.646150 0.773020 -0.571614
O38   O     O_R   0.085510 0.353850 0.226980 -0.593792
O39   O     O_R   0.353850 0.914490 0.773020 -0.575595
O40   O     O_R   0.646150 0.085510 0.226980 -0.574110
O41   O     O_R   0.085510 0.353850 0.773020 -0.571345
O42   O     O_R   0.914490 0.646150 0.226980 -0.575237
O43   O     O_R   0.646150 0.085510 0.773020 -0.570572
O44   O     O_R   0.353850 0.914490 0.226980 -0.574057
O45   O     O_R   0.914490 0.353850 0.226980 -0.570562
O46   O     O_R   0.085510 0.646150 0.773020 -0.573752
O47   O     O_R   0.353850 0.085510 0.226980 -0.571656
O48   O     O_R   0.646150 0.914490 0.773020 -0.593883
O49   O     O_R   0.085510 0.646150 0.226980 -0.575590
O50   O     O_R   0.914490 0.353850 0.773020 -0.573723
O51   O     O_R   0.646150 0.914490 0.226980 -0.571432
O52   O     O_R   0.353850 0.085510 0.773020 -0.575244
Zn1   Zn    Zn3+2 0.413190 0.000000 0.217350 1.097166
Zn2   Zn    Zn3+2 0.586810 0.000000 0.782650 1.106115
Zn3   Zn    Zn3+2 0.000000 0.413190 0.217350 1.106171
Zn4   Zn    Zn3+2 0.000000 0.586810 0.782650 1.097187
Zn5   Zn    Zn3+2 0.586810 0.000000 0.217350 1.096364
Zn6   Zn    Zn3+2 0.413190 0.000000 0.782650 1.133418
Zn7   Zn    Zn3+2 0.000000 0.586810 0.217350 1.133410
Zn8   Zn    Zn3+2 1.000000 0.413190 0.782650 1.096426
Zn9   Zn    Zn3+2 0.913190 0.500000 0.717350 1.097182
Zn10  Zn    Zn3+2 0.086810 0.500000 0.282650 1.106180
Zn11  Zn    Zn3+2 0.500000 0.913190 0.717350 1.106065
Zn12  Zn    Zn3+2 0.500000 0.086810 0.282650 1.097357
Zn13  Zn    Zn3+2 0.086810 0.500000 0.717350 1.096306
Zn14  Zn    Zn3+2 0.913190 0.500000 0.282650 1.133447
Zn15  Zn    Zn3+2 0.500000 0.086810 0.717350 1.133414
Zn16  Zn    Zn3+2 0.500000 0.913190 0.282650 1.096535
O53   O     O_3   0.113193 0.332879 0.461858 -0.583697
C137  C     C_3   0.187882 0.343965 0.469600 -0.196097
H1    H     H_    0.206060 0.399229 0.460519 0.149964
H2    H     H_    0.219461 0.303930 0.452512 0.212736
H3    H     H_    0.201160 0.334875 0.500780 0.219667
O54   O     O_3   0.913501 0.678136 0.538391 -0.518707
C138  C     C_3   0.952965 0.744209 0.538439 -0.176634
H4    H     H_    0.012989 0.736753 0.539465 0.103464
H5    H     H_    0.937463 0.775531 0.564716 0.181286
H6    H     H_    0.937304 0.777924 0.513087 0.192217
O55   O     O_3   0.678696 0.911526 0.459513 -0.544416
C139  C     C_3   0.737806 0.958557 0.467539 -0.193200
H7    H     H_    0.723145 0.016806 0.463982 0.135445
H8    H     H_    0.781963 0.946744 0.446550 0.180893
H9    H     H_    0.759866 0.949137 0.497200 0.205252
O56   O     O_3   0.314648 0.066145 0.541130 -0.573241
C140  C     C_3   0.277202 0.003803 0.554790 -0.175586
H10   H     H_    0.307823 0.975576 0.578137 0.222900
H11   H     H_    0.265050 0.964641 0.530917 0.108705
H12   H     H_    0.224622 0.021170 0.567374 0.191402
O57   O     O_3   0.934783 0.685672 0.458852 -0.573341
C141  C     C_3   0.997329 0.722760 0.445179 -0.175058
H13   H     H_    0.025302 0.692023 0.421788 0.223251
H14   H     H_    0.036626 0.734603 0.469033 0.108783
H15   H     H_    0.980271 0.775485 0.432646 0.191293
O58   O     O_3   0.087494 0.320821 0.540473 -0.544878
C142  C     C_3   0.040047 0.262042 0.532448 -0.194499
H16   H     H_    0.981910 0.277106 0.536039 0.136013
H17   H     H_    0.051584 0.217778 0.553418 0.180817
H18   H     H_    0.049263 0.239951 0.502776 0.205359
O59   O     O_3   0.322360 0.087446 0.461595 -0.518667
C143  C     C_3   0.256031 0.048420 0.461534 -0.176027
H19   H     H_    0.263085 0.988344 0.460514 0.103165
H20   H     H_    0.224842 0.064125 0.435246 0.181412
H21   H     H_    0.222403 0.064316 0.486877 0.192193
O60   O     O_3   0.666501 0.885920 0.538125 -0.583857
C144  C     C_3   0.654849 0.811300 0.530419 -0.195980
H22   H     H_    0.599489 0.793532 0.539559 0.149830
H23   H     H_    0.694715 0.779449 0.547475 0.213037
H24   H     H_    0.663728 0.797927 0.499232 0.219596
O61   O     O_3   0.613839 0.833333 0.961874 -0.583824
C145  C     C_3   0.688475 0.844860 0.969586 -0.195997
H25   H     H_    0.706334 0.900198 0.960457 0.149866
H26   H     H_    0.720264 0.804954 0.952524 0.212967
H27   H     H_    0.701828 0.835937 0.000772 0.219605
O62   O     O_3   0.412803 0.177765 0.038403 -0.518636
C146  C     C_3   0.451934 0.244033 0.038462 -0.176056
H28   H     H_    0.511999 0.236883 0.039485 0.103197
H29   H     H_    0.436275 0.275249 0.064748 0.181410
H30   H     H_    0.436095 0.277684 0.013118 0.192167
O63   O     O_3   0.179044 0.412218 0.959522 -0.544690
C147  C     C_3   0.237936 0.459534 0.967532 -0.193999
H31   H     H_    0.222998 0.517709 0.963961 0.135809
H32   H     H_    0.282144 0.447912 0.946543 0.180809
H33   H     H_    0.260047 0.450244 0.997193 0.205336
O64   O     O_3   0.814339 0.565270 0.041141 -0.573378
C148  C     C_3   0.777217 0.502735 0.054802 -0.175061
H34   H     H_    0.807959 0.474701 0.078170 0.223175
H35   H     H_    0.765318 0.463480 0.030937 0.108746
H36   H     H_    0.724519 0.519819 0.067358 0.191349
O65   O     O_3   0.434105 0.185439 0.958867 -0.573263
C149  C     C_3   0.496498 0.222797 0.945206 -0.175501
H37   H     H_    0.524670 0.192143 0.921854 0.222987
H38   H     H_    0.535687 0.234878 0.969077 0.108718
H39   H     H_    0.479207 0.275409 0.932631 0.191379
O66   O     O_3   0.588211 0.821173 0.040489 -0.544484
C150  C     C_3   0.541095 0.762132 0.032457 -0.193308
H40   H     H_    0.482866 0.776881 0.036001 0.135522
H41   H     H_    0.552827 0.717963 0.053453 0.180885
H42   H     H_    0.550504 0.740051 0.002801 0.205262
O67   O     O_3   0.821925 0.586609 0.961606 -0.518722
C151  C     C_3   0.755816 0.547206 0.961549 -0.176573
H43   H     H_    0.763212 0.487173 0.960519 0.103427
H44   H     H_    0.724517 0.562748 0.935272 0.181293
H45   H     H_    0.722110 0.562896 0.986899 0.192244
O68   O     O_3   0.166992 0.386636 0.038144 -0.583837
C152  C     C_3   0.155698 0.311958 0.030461 -0.196083
H46   H     H_    0.100413 0.293938 0.039593 0.149985
H47   H     H_    0.195699 0.280317 0.047539 0.212883
H48   H     H_    0.164670 0.298593 0.999281 0.219599
S1    S     S_3+6 0.264865 0.840769 0.172468 0.137320
O69   O     O_2   0.340005 0.846048 0.155736 -0.294370
O70   O     O_2   0.213982 0.814249 0.141266 -0.166022
O71   O     O_3   0.236912 0.924127 0.185408 -0.430780
H49   H     H_    0.189865 0.916072 0.198757 0.360331
S2    S     S_3+6 0.665427 0.215332 0.828448 0.081375
O72   O     O_2   0.682328 0.144843 0.848465 -0.193852
O73   O     O_2   0.679812 0.277218 0.856076 -0.262346
O74   O     O_3   0.576680 0.215391 0.816770 -0.577278
H50   H     H_    0.568012 0.264162 0.805611 0.363078
S3    S     S_3+6 0.100206 0.202749 0.214665 0.120460
O75   O     O_2   0.075006 0.236406 0.177203 -0.214744
O76   O     O_2   0.104221 0.121842 0.209280 -0.209776
O77   O     O_3   0.038971 0.220189 0.249719 -0.529262
H51   H     H_    0.060613 0.200342 0.273868 0.333207
S4    S     S_3+6 0.842546 0.740762 0.825844 0.141920
O78   O     O_2   0.921667 0.760978 0.824790 -0.119952
O79   O     O_2   0.804970 0.787974 0.855236 -0.262103
O80   O     O_3   0.834060 0.653795 0.839984 -0.487528
H52   H     H_    0.781174 0.643637 0.839147 0.326111
S5    S     S_3+6 0.735960 0.158373 0.172734 0.135522
O81   O     O_2   0.661133 0.152823 0.155561 -0.295237
O82   O     O_2   0.787348 0.184644 0.141784 -0.169941
O83   O     O_3   0.763771 0.075190 0.186040 -0.431794
H53   H     H_    0.810558 0.083451 0.199668 0.360241
S6    S     S_3+6 0.335165 0.784992 0.828430 0.103068
O84   O     O_2   0.317821 0.855277 0.848594 -0.188499
O85   O     O_2   0.321511 0.722894 0.855951 -0.239114
O86   O     O_3   0.423832 0.785691 0.816665 -0.566156
H54   H     H_    0.432898 0.736872 0.805626 0.363626
S7    S     S_3+6 0.899423 0.796661 0.214040 0.123541
O87   O     O_2   0.924191 0.761657 0.176838 -0.208996
O88   O     O_2   0.895409 0.877374 0.207943 -0.211143
O89   O     O_3   0.961023 0.780368 0.249123 -0.531379
H55   H     H_    0.939702 0.801140 0.273128 0.333614
S8    S     S_3+6 0.158329 0.260218 0.825985 0.146420
O90   O     O_2   0.079115 0.240299 0.825240 -0.122746
O91   O     O_2   0.196138 0.213315 0.855421 -0.245484
O92   O     O_3   0.167383 0.347367 0.839764 -0.488453
H56   H     H_    0.220302 0.357278 0.838790 0.328965
S9    S     S_3+6 0.203295 0.100525 0.785883 0.123445
O93   O     O_2   0.238240 0.075709 0.823092 -0.209040
O94   O     O_2   0.122573 0.104528 0.791944 -0.211337
O95   O     O_3   0.219652 0.038974 0.750785 -0.531488
H57   H     H_    0.198910 0.060322 0.726780 0.333674
S10   S     S_3+6 0.739682 0.841597 0.173990 0.146431
O96   O     O_2   0.759602 0.920812 0.174706 -0.122589
O97   O     O_2   0.786543 0.803760 0.144545 -0.245544
O98   O     O_3   0.652513 0.832531 0.160248 -0.488528
H58   H     H_    0.642606 0.779612 0.161234 0.328935
S11   S     S_3+6 0.159315 0.735011 0.827565 0.137063
O99   O     O_2   0.154008 0.659828 0.844239 -0.294724
O100  O     O_2   0.185875 0.785792 0.858804 -0.166330
O101  O     O_3   0.075964 0.763039 0.814659 -0.430954
H59   H     H_    0.084004 0.810287 0.801512 0.360680
S12   S     S_3+6 0.784607 0.334607 0.171566 0.081336
O102  O     O_2   0.855099 0.317752 0.151541 -0.193826
O103  O     O_2   0.722722 0.320202 0.143940 -0.262417
O104  O     O_3   0.784506 0.423348 0.183257 -0.577234
H60   H     H_    0.735738 0.431983 0.194427 0.363049
S13   S     S_3+6 0.797312 0.899859 0.785229 0.120315
O105  O     O_2   0.763758 0.925123 0.822705 -0.214854
O106  O     O_2   0.878234 0.895855 0.790553 -0.209979
O107  O     O_3   0.779770 0.961034 0.750159 -0.529380
H61   H     H_    0.799552 0.939351 0.726005 0.333288
S14   S     S_3+6 0.259371 0.157564 0.174121 0.141937
O108  O     O_2   0.239160 0.078439 0.175129 -0.119693
O109  O     O_2   0.212213 0.195182 0.144720 -0.262091
O110  O     O_3   0.346365 0.166080 0.160036 -0.487727
H62   H     H_    0.356512 0.218966 0.160895 0.325977
S15   S     S_3+6 0.841642 0.264040 0.827269 0.135274
O111  O     O_2   0.847233 0.338877 0.844426 -0.295320
O112  O     O_2   0.815376 0.212688 0.858238 -0.170418
O113  O     O_3   0.924801 0.236184 0.813952 -0.432239
H63   H     H_    0.916581 0.189051 0.800664 0.360824
S16   S     S_3+6 0.214998 0.664891 0.171572 0.103188
O114  O     O_2   0.144681 0.682191 0.151428 -0.188230
O115  O     O_2   0.277059 0.678620 0.144038 -0.239067
O116  O     O_3   0.214382 0.576216 0.183321 -0.566139
H64   H     H_    0.263214 0.567184 0.194352 0.363552
S17   S     S_3+6 0.764933 0.340724 0.672450 0.137054
O117  O     O_2   0.840100 0.346042 0.655757 -0.294644
O118  O     O_2   0.714123 0.314181 0.641220 -0.166417
O119  O     O_3   0.736914 0.424067 0.685377 -0.431046
H65   H     H_    0.689625 0.416030 0.698483 0.360756
S18   S     S_3+6 0.165359 0.715365 0.328443 0.081282
O120  O     O_2   0.182281 0.644902 0.348481 -0.193872
O121  O     O_2   0.179687 0.777282 0.356060 -0.262412
O122  O     O_3   0.076621 0.715367 0.316744 -0.577279
H66   H     H_    0.067936 0.764122 0.305569 0.363007
S19   S     S_3+6 0.600138 0.702679 0.714785 0.120326
O123  O     O_2   0.574860 0.736213 0.677307 -0.214901
O124  O     O_2   0.604147 0.621754 0.709473 -0.209967
O125  O     O_3   0.538974 0.720233 0.749858 -0.529392
H67   H     H_    0.560665 0.700464 0.774013 0.333279
S20   S     S_3+6 0.342524 0.240741 0.325847 0.141904
O126  O     O_2   0.421651 0.260937 0.324802 -0.120053
O127  O     O_2   0.304950 0.287947 0.355241 -0.262019
O128  O     O_3   0.334010 0.153770 0.339973 -0.487609
H68   H     H_    0.281122 0.143629 0.339131 0.325926
S21   S     S_3+6 0.235966 0.658361 0.672734 0.135444
O129  O     O_2   0.161135 0.652785 0.655570 -0.295345
O130  O     O_2   0.287334 0.684630 0.641774 -0.170076
O131  O     O_3   0.263802 0.575194 0.686049 -0.431845
H69   H     H_    0.310665 0.583460 0.699601 0.360387
S22   S     S_3+6 0.835252 0.284937 0.328417 0.103122
O132  O     O_2   0.817888 0.355188 0.348611 -0.188329
O133  O     O_2   0.821666 0.222799 0.355921 -0.239046
O134  O     O_3   0.923908 0.285704 0.316626 -0.566196
H70   H     H_    0.932999 0.236894 0.305582 0.363547
S23   S     S_3+6 0.399484 0.296717 0.714138 0.123437
O135  O     O_2   0.424318 0.261793 0.676927 -0.209040
O136  O     O_2   0.395480 0.377443 0.708089 -0.211315
O137  O     O_3   0.461022 0.280344 0.749241 -0.531529
H71   H     H_    0.439667 0.301077 0.773246 0.333667
S24   S     S_3+6 0.658368 0.760263 0.325993 0.146422
O138  O     O_2   0.579148 0.740363 0.325266 -0.122809
O139  O     O_2   0.696184 0.713377 0.355434 -0.245516
O140  O     O_3   0.667454 0.847421 0.339748 -0.488550
H72   H     H_    0.720375 0.857316 0.338761 0.328840
S25   S     S_3+6 0.703327 0.600544 0.285933 0.123442
O141  O     O_2   0.738318 0.575774 0.323138 -0.209042
O142  O     O_2   0.622611 0.604547 0.292020 -0.211329
O143  O     O_3   0.719645 0.538953 0.250849 -0.531378
H73   H     H_    0.698881 0.560277 0.226843 0.333669
S26   S     S_3+6 0.239800 0.341682 0.674019 0.146414
O144  O     O_2   0.259725 0.420894 0.674770 -0.122680
O145  O     O_2   0.286709 0.303875 0.644586 -0.245482
O146  O     O_3   0.152654 0.332638 0.660231 -0.488437
H74   H     H_    0.142737 0.279719 0.661203 0.329008
S27   S     S_3+6 0.659421 0.234867 0.327601 0.136895
O147  O     O_2   0.654134 0.159645 0.344226 -0.294844
O148  O     O_2   0.686024 0.285570 0.358866 -0.166516
O149  O     O_3   0.576051 0.262929 0.314751 -0.431138
H75   H     H_    0.584048 0.310341 0.301766 0.360941
S28   S     S_3+6 0.284642 0.834587 0.671558 0.081398
O150  O     O_2   0.355133 0.817708 0.651538 -0.193893
O151  O     O_2   0.222756 0.820191 0.643930 -0.262297
O152  O     O_3   0.284560 0.923331 0.683242 -0.577300
H76   H     H_    0.235799 0.931976 0.694417 0.363065
S29   S     S_3+6 0.297288 0.399853 0.285261 0.120343
O153  O     O_2   0.263694 0.425086 0.322733 -0.214720
O154  O     O_2   0.378205 0.395852 0.290606 -0.209996
O155  O     O_3   0.279776 0.461053 0.250198 -0.529327
H77   H     H_    0.299574 0.439385 0.226044 0.333245
S30   S     S_3+6 0.759230 0.657455 0.674157 0.141916
O156  O     O_2   0.739012 0.578335 0.675213 -0.119940
O157  O     O_2   0.712014 0.695031 0.644767 -0.262154
O158  O     O_3   0.846196 0.665936 0.660013 -0.487504
H78   H     H_    0.856360 0.718820 0.660857 0.326125
S31   S     S_3+6 0.341557 0.764158 0.327303 0.135188
O159  O     O_2   0.347124 0.839028 0.344422 -0.295397
O160  O     O_2   0.315262 0.712863 0.358291 -0.170482
O161  O     O_3   0.424737 0.736286 0.314030 -0.432293
H79   H     H_    0.416542 0.689097 0.300793 0.360896
S32   S     S_3+6 0.714988 0.164868 0.671568 0.103042
O162  O     O_2   0.644690 0.182205 0.651414 -0.188576
O163  O     O_2   0.777070 0.178549 0.644040 -0.239123
O164  O     O_3   0.714314 0.076196 0.683323 -0.566169
H80   H     H_    0.763135 0.067138 0.694360 0.363603
O165  O     O_3   0.927554 0.603919 0.397376 -0.598052
C153  C     C_3   0.853239 0.585993 0.401417 -0.020924
H81   H     H_    0.835057 0.589803 0.432233 0.163042
H82   H     H_    0.841056 0.530757 0.389849 0.178657
H83   H     H_    0.821019 0.625497 0.384358 0.222126
O166  O     O_3   0.054960 0.381854 0.603399 -0.510806
C154  C     C_3   0.996935 0.338627 0.617492 -0.117901
H84   H     H_    0.948066 0.338751 0.598251 0.154775
H85   H     H_    0.982110 0.355901 0.647377 0.152199
H86   H     H_    0.015656 0.281623 0.619575 0.174413
O167  O     O_3   0.380377 0.053215 0.397383 -0.513159
C155  C     C_3   0.337561 0.996172 0.381763 -0.149853
H87   H     H_    0.333257 0.948205 0.401467 0.156055
H88   H     H_    0.358431 0.979688 0.352835 0.157870
H89   H     H_    0.281767 0.016548 0.376889 0.166662
O168  O     O_3   0.619527 0.939824 0.602341 -0.573908
C156  C     C_3   0.610832 0.869493 0.618363 -0.046210
H90   H     H_    0.560063 0.840400 0.609466 0.150033
H91   H     H_    0.613255 0.873261 0.650533 0.187783
H92   H     H_    0.657841 0.835736 0.609909 0.202581
O169  O     O_3   0.059843 0.380304 0.397633 -0.573556
C157  C     C_3   0.130229 0.388861 0.381658 -0.046988
H93   H     H_    0.159464 0.439495 0.390644 0.149997
H94   H     H_    0.126519 0.386609 0.349483 0.187760
H95   H     H_    0.163824 0.341709 0.390069 0.202244
O170  O     O_3   0.946993 0.619721 0.602607 -0.513286
C158  C     C_3   0.004044 0.662410 0.618317 -0.149010
H96   H     H_    0.052090 0.666667 0.598668 0.156244
H97   H     H_    0.020380 0.641467 0.647253 0.157479
H98   H     H_    0.983737 0.718226 0.623202 0.166726
O171  O     O_3   0.618033 0.944818 0.396607 -0.510547
C159  C     C_3   0.661394 0.002812 0.382595 -0.118439
H99   H     H_    0.661367 0.051598 0.401898 0.154587
H100  H     H_    0.644163 0.017805 0.352727 0.152582
H101  H     H_    0.718359 0.983981 0.380498 0.174311
O172  O     O_3   0.396390 0.072906 0.602614 -0.598033
C160  C     C_3   0.414642 0.147143 0.598563 -0.020264
H102  H     H_    0.411023 0.165311 0.567738 0.162830
H103  H     H_    0.469887 0.159104 0.610181 0.178693
H104  H     H_    0.375210 0.179548 0.615566 0.222385
O173  O     O_3   0.427232 0.103703 0.897383 -0.598047
C161  C     C_3   0.352973 0.085539 0.901427 -0.020427
H105  H     H_    0.334797 0.089202 0.932249 0.162909
H106  H     H_    0.340952 0.030299 0.889820 0.178688
H107  H     H_    0.320621 0.124996 0.884410 0.222307
O174  O     O_3   0.555011 0.881888 0.103397 -0.510660
C162  C     C_3   0.496955 0.838603 0.117403 -0.118661
H108  H     H_    0.448193 0.838665 0.098084 0.154626
H109  H     H_    0.481942 0.855878 0.147261 0.152548
H110  H     H_    0.515725 0.781620 0.119523 0.174376
O175  O     O_3   0.880289 0.553026 0.897390 -0.513266
C163  C     C_3   0.837584 0.495979 0.881689 -0.149135
H111  H     H_    0.833333 0.447928 0.901335 0.156223
H112  H     H_    0.858506 0.479646 0.852747 0.157517
H113  H     H_    0.781765 0.516289 0.876816 0.166699
O176  O     O_3   0.119762 0.440290 0.102351 -0.573603
C164  C     C_3   0.111296 0.369953 0.118398 -0.046811
H114  H     H_    0.060676 0.340640 0.109462 0.150162
H115  H     H_    0.113593 0.373776 0.150569 0.187413
H116  H     H_    0.158469 0.336376 0.109998 0.202361
O177  O     O_3   0.560069 0.880416 0.897655 -0.573801
C165  C     C_3   0.630410 0.889070 0.881639 -0.046441
H117  H     H_    0.659546 0.939804 0.890555 0.150035
H118  H     H_    0.626648 0.886687 0.849468 0.187743
H119  H     H_    0.664124 0.842023 0.890082 0.202496
O178  O     O_3   0.446905 0.119676 0.102617 -0.513188
C166  C     C_3   0.503981 0.162432 0.118248 -0.149654
H120  H     H_    0.551967 0.166687 0.098556 0.156076
H121  H     H_    0.520421 0.141544 0.147179 0.157836
H122  H     H_    0.483658 0.218247 0.123120 0.166721
O179  O     O_3   0.118121 0.444990 0.896602 -0.510750
C167  C     C_3   0.161379 0.503013 0.882535 -0.118139
H123  H     H_    0.161282 0.551853 0.901798 0.154747
H124  H     H_    0.144110 0.517894 0.852657 0.152346
H125  H     H_    0.218372 0.484266 0.880444 0.174366
O180  O     O_3   0.896060 0.572422 0.102627 -0.598076
C168  C     C_3   0.913988 0.646739 0.098597 -0.020794
H126  H     H_    0.910195 0.664932 0.067783 0.163068
H127  H     H_    0.969219 0.658919 0.110171 0.178706
H128  H     H_    0.874473 0.678950 0.115652 0.222138

loop_
_geom_bond_atom_site_label_1
_geom_bond_atom_site_label_2
_ccdc_geom_bond_type
O18   Zn3   S    
S2    O74   S    
C60   O38   A    
S29   O153  D    
C71   C122  A    
C78   C115  A    
C14   O178  S    
C139  H9    S    
O172  C160  S    
C159  H100  S    
O98   H58   S    
O28   Zn9   S    
C152  H48   S    
C66   C79   A    
C27   C99   A    
C7    C99   A    
C8    C20   A    
C9    O173  S    
S28   O150  D    
C52   O46   A    
O13   Zn8   S    
C150  H40   S    
C147  H33   S    
C65   S1    S    
S16   O114  D    
C74   S10   S    
C153  H83   S    
O175  C163  S    
O27   Zn10  S    
C32   C104  A    
C3    C19   A    
O95   H57   S    
C5    O169  S    
C37   C109  A    
O38   Zn3   S    
C39   C111  A    
C28   O56   S    
O61   C145  S    
O51   Zn5   S    
C162  H109  S    
O46   Zn4   S    
O49   Zn7   S    
O47   Zn1   S    
O119  H65   S    
O3    Zn7   S    
O1    Zn5   S    
C62   O34   A    
S6    O85   D    
S10   O96   D    
C109  C133  A    
O92   H56   S    
C34   C106  A    
S8    O92   S    
C146  H28   S    
S12   O102  D    
C92   C123  A    
O24   Zn13  S    
S11   O100  D    
C137  H1    S    
C72   C73   A    
S22   O133  D    
C165  H117  S    
C163  H113  S    
C96   C127  A    
O55   C139  S    
C17   C43   S    
C18   C44   S    
C57   C123  S    
C20   C42   S    
S15   O111  D    
C30   C102  A    
C13   C21   A    
C34   O62   S    
S13   O107  S    
O32   Zn10  S    
C80   S16   S    
S24   O139  D    
C49   C115  S    
C61   O43   A    
C7    C19   A    
C142  H17   S    
S29   O155  S    
S17   O119  S    
C61   O33   A    
O77   H51   S    
C11   O175  S    
O128  H68   S    
C1    C101  A    
O152  H76   S    
C59   O31   A    
S4    O78   D    
C105  C133  A    
C3    C103  A    
C68   C77   A    
C153  H82   S    
S28   O152  S    
C50   O48   A    
C102  C130  A    
C167  H123  S    
C51   O45   A    
C3    O167  S    
S19   O123  D    
C100  C132  A    
O1    Zn16  S    
O164  H80   S    
C90   S26   S    
C32   O60   S    
O134  H70   S    
C56   O28   A    
C91   S27   S    
C33   C38   A    
C24   C46   S    
C92   S28   S    
C89   S25   S    
C35   C40   A    
C55   O27   A    
S1    O70   D    
S25   O141  D    
C9    C21   A    
C4    C104  A    
C11   C23   A    
O107  H61   S    
C86   C117  A    
C84   C93   A    
S14   O108  D    
S30   O157  D    
C35   C107  A    
S11   O99   D    
C4    C20   A    
C5    C17   A    
C88   C89   A    
C157  H93   S    
O125  H67   S    
S17   O117  D    
C31   C103  A    
S20   O126  D    
S21   O130  D    
C73   S9    S    
C52   O24   A    
C36   C108  A    
C6    O170  S    
S12   O104  S    
S18   O120  D    
C40   C112  A    
C156  H90   S    
C50   O22   A    
C68   S4    S    
O74   H50   S    
C94   S30   S    
O50   Zn8   S    
C139  H8    S    
O44   Zn1   S    
C158  H97   S    
C148  H34   S    
C89   C122  A    
C2    C102  A    
C143  H19   S    
C161  H107  S    
C144  H22   S    
S9    O94   D    
C93   C126  A    
C57   O39   A    
C95   C128  A    
C72   S8    S    
C87   S23   S    
O131  H69   S    
S5    O82   D    
C147  H32   S    
C81   C114  A    
S27   O148  D    
O40   Zn5   S    
C84   S20   S    
S4    O80   S    
C154  H86   S    
O2    Zn11  S    
C166  H122  S    
C164  H114  S    
C35   O63   S    
C49   O21   A    
C161  H105  S    
C112  C136  A    
C167  H125  S    
O56   C140  S    
C85   C92   A    
O169  C157  S    
S17   O118  D    
C16   O180  S    
O68   C152  S    
C94   C125  A    
S25   O143  S    
O170  C158  S    
C146  H30   S    
O89   H55   S    
C31   O59   S    
C54   O26   A    
S8    O91   D    
O173  C161  S    
O59   C143  S    
C163  H112  S    
C160  H102  S    
C26   O54   S    
O143  H73   S    
O36   Zn14  S    
C168  H127  S    
C77   S13   S    
S26   O144  D    
C149  H38   S    
S20   O128  S    
C25   C97   A    
S15   O112  D    
C5    C97   A    
C90   C121  A    
O48   Zn2   S    
C4    O168  S    
S13   O106  D    
C166  H120  S    
C12   C112  A    
O155  H77   S    
C129  C130  A    
C156  H92   S    
C39   O67   S    
C138  H5    S    
C145  H25   S    
S7    O89   S    
C82   C95   A    
C85   S21   S    
O34   Zn16  S    
C86   S22   S    
C36   C39   A    
C82   C113  A    
O64   C148  S    
C149  H39   S    
O158  H78   S    
C148  H36   S    
S8    O90   D    
C59   C125  S    
C12   C24   A    
C1    C17   A    
C143  H21   S    
O21   Zn12  S    
C7    O171  S    
C14   C22   A    
S28   O151  D    
C8    C100  A    
C85   C118  A    
O19   Zn6   S    
S3    O76   D    
C96   S32   S    
C155  H89   S    
O60   C144  S    
C51   C117  S    
C36   O64   S    
C58   O30   A    
O14   Zn7   S    
C110  C134  A    
C154  H84   S    
O167  C155  S    
C138  H6    S    
C80   C113  A    
C82   S18   S    
C141  H13   S    
C164  H116  S    
C70   C75   A    
S31   O160  D    
C103  C131  A    
C68   C125  A    
S16   O116  S    
O179  C167  S    
C21   C47   S    
C145  H27   S    
C101  C129  A    
C150  H42   S    
C22   C48   S    
O146  H74   S    
C23   C45   S    
C72   C121  A    
C34   C37   A    
O25   Zn16  S    
C43   O7    A    
O67   C151  S    
O5    Zn16  S    
O110  H62   S    
O3    Zn10  S    
C135  C136  A    
C10   C22   A    
S10   O97   D    
C6    C98   A    
S12   O103  D    
C140  H12   S    
O3    Zn3   S    
C86   C91   A    
S23   O137  S    
C137  H2    S    
S19   O125  S    
C57   O29   A    
C165  H118  S    
C160  H104  S    
C15   O179  S    
S32   O162  D    
S2    O72   D    
C15   C107  A    
O161  H79   S    
C107  C135  A    
C49   O47   A    
O15   Zn2   S    
O8    Zn9   S    
S10   O98   S    
O116  H64   S    
C33   O61   S    
C38   C110  A    
C165  H119  S    
C48   O20   A    
S7    O87   D    
C73   C120  A    
C54   O52   A    
C27   O55   S    
S29   O154  D    
C75   C118  A    
C78   S14   S    
S24   O140  S    
C25   O53   S    
C30   O58   S    
C159  H99   S    
S4    O79   D    
O2    Zn6   S    
C9    C109  A    
C46   O18   A    
S19   O124  D    
C11   C111  A    
C65   C128  A    
C33   C105  A    
O9    Zn12  S    
C167  H124  S    
C67   C126  A    
S3    O75   D    
C81   C96   A    
S24   O138  D    
O23   Zn14  S    
C69   C124  A    
C12   O176  S    
O62   C146  S    
C83   C94   A    
C75   S11   S    
C88   S24   S    
C64   O36   A    
O4    Zn9   S    
O16   Zn1   S    
C64   O42   A    
O2    Zn15  S    
C63   O35   A    
C138  H4    S    
C151  H45   S    
C98   C130  A    
C50   C116  S    
O22   Zn11  S    
O31   Zn9   S    
C29   C101  A    
O3    Zn14  S    
C60   O32   A    
C161  H106  S    
C38   O66   S    
S30   O158  S    
C13   C105  A    
C47   O15   A    
C157  H94   S    
C48   O16   A    
C133  C134  A    
C162  H110  S    
C152  H47   S    
C131  C132  A    
C42   O10   A    
S20   O127  D    
S21   O129  D    
C83   S19   S    
C25   C30   A    
O7    Zn10  S    
S6    O84   D    
C27   C32   A    
C28   C31   A    
C81   S17   S    
C8    O172  S    
S11   O101  S    
S18   O121  D    
S23   O135  D    
S22   O132  D    
C157  H95   S    
O37   Zn4   S    
C76   C117  A    
S14   O110  S    
S32   O164  S    
O26   Zn15  S    
C144  H24   S    
O165  C153  S    
S25   O142  D    
O58   C142  S    
O4    Zn13  S    
O6    Zn15  S    
O45   Zn3   S    
C111  C135  A    
O86   H54   S    
C143  H20   S    
C10   C110  A    
S9    O93   D    
S18   O122  S    
C14   C106  A    
C41   O9    A    
O168  C156  S    
C40   O68   S    
C155  H88   S    
S5    O81   D    
C104  C132  A    
C87   C90   A    
C67   S3    S    
O66   C150  S    
C69   S5    S    
C70   S6    S    
C159  H101  S    
C19   C41   S    
C154  H85   S    
S6    O86   S    
C52   C118  S    
C95   S31   S    
O104  H60   S    
C166  H121  S    
C153  H81   S    
O41   Zn8   S    
C54   C120  S    
C2    C18   A    
O140  H72   S    
C29   O57   S    
C158  H96   S    
S22   O134  S    
S16   O115  D    
O53   C137  S    
O176  C164  S    
C74   C119  A    
O177  C165  S    
S1    O69   D    
C69   C76   A    
C108  C136  A    
S1    O71   S    
O29   Zn11  S    
C62   O44   A    
C146  H29   S    
C66   C127  A    
O10   Zn11  S    
S30   O156  D    
C71   C74   A    
C160  H103  S    
C70   C123  A    
O80   H52   S    
O180  C168  S    
C42   O6    A    
C162  H108  S    
C77   C116  A    
C13   O177  S    
C168  H126  S    
O39   Zn6   S    
C45   O13   A    
S21   O131  S    
C28   C100  A    
C15   C23   A    
O166  C154  S    
O52   Zn6   S    
C16   C24   A    
C65   C80   A    
O2    Zn2   S    
C67   C78   A    
C63   C121  S    
O12   Zn13  S    
S3    O77   S    
C156  H91   S    
C6    C18   A    
C145  H26   S    
S7    O88   D    
C139  H7    S    
S26   O146  S    
C61   C127  S    
C149  H37   S    
C158  H98   S    
O171  C159  S    
C148  H35   S    
C155  H87   S    
C37   O65   S    
C55   C113  S    
C152  H46   S    
C144  H23   S    
C1    O165  S    
O35   Zn13  S    
S9    O95   S    
S14   O109  D    
C41   O5    A    
O178  C166  S    
O33   Zn15  S    
C140  H10   S    
S27   O147  D    
O1    Zn12  S    
C106  C134  A    
C44   O8    A    
S5    O83   S    
C147  H31   S    
C76   S12   S    
O57   C141  S    
S27   O149  S    
C151  H43   S    
O4    Zn8   S    
C93   S29   S    
C26   C98   A    
O1    Zn1   S    
C88   C119  A    
C46   O14   A    
C151  H44   S    
O54   C138  S    
C84   C115  A    
C141  H14   S    
C91   C124  A    
C164  H115  S    
O4    Zn4   S    
O63   C147  S    
O83   H53   S    
O149  H75   S    
O65   C149  S    
C79   S15   S    
C150  H41   S    
S26   O145  D    
C83   C116  A    
O11   Zn14  S    
C58   O40   A    
C56   O50   A    
C59   O37   A    
C53   C119  S    
C141  H15   S    
O42   Zn7   S    
C58   C124  S    
C63   O41   A    
C99   C131  A    
O71   H49   S    
S31   O161  S    
C60   C126  S    
O20   Zn5   S    
C53   O51   A    
C97   C129  A    
C87   C120  A    
C140  H11   S    
O122  H66   S    
C62   C128  S    
S23   O136  D    
C137  H3    S    
C53   O25   A    
O43   Zn2   S    
C47   O19   A    
C64   C122  S    
C51   O23   A    
C163  H111  S    
C44   O12   A    
S32   O163  D    
S2    O73   D    
C55   O49   A    
O113  H63   S    
C168  H128  S    
O30   Zn12  S    
C10   O174  S    
C43   O11   A    
C142  H18   S    
C16   C108  A    
S31   O159  D    
S15   O113  S    
C45   O17   A    
C66   S2    S    
C26   C29   A    
O101  H59   S    
O174  C162  S    
C79   C114  A    
C142  H16   S    
C56   C114  S    
O137  H71   S    
S13   O105  D    
C71   S7    S    
C2    O166  S    
O17   Zn4   S    
