data_mof_unit_58883.cif
_audit_creation_date              2012-12-10T19:50:51-0500
_audit_creation_method            fapswitch 2.2
_symmetry_space_group_name_H-M    P1
_symmetry_Int_Tables_number       1
_space_group_crystal_system       triclinic
_cell_length_a                    23.508222
_cell_length_b                    10.823099
_cell_length_c                    22.179408
_cell_angle_alpha                 90.347294
_cell_angle_beta                  89.693011
_cell_angle_gamma                 89.855522
_cell_volume                      5642.94393822

loop_
_atom_site_label
_atom_site_type_symbol
_atom_type_description
_atom_site_fract_x
_atom_site_fract_y
_atom_site_fract_z
_atom_type_partial_charge
C1    C     C_R   0.500175 0.262113 0.499709 0.856376
C2    C     C_R   0.499835 0.737883 0.500293 0.856263
C3    C     C_R   0.238440 0.476821 0.553961 0.199259
C4    C     C_R   0.761559 0.523241 0.446041 0.198843
C5    C     C_R   0.297986 0.476925 0.553712 -0.275002
C6    C     C_R   0.702014 0.523108 0.446289 -0.276388
C7    C     C_R   0.328220 0.502723 0.500507 -0.039614
C8    C     C_R   0.671781 0.497331 0.499496 -0.038916
C9    C     C_R   0.298280 0.530071 0.447603 -0.177372
C10   C     C_R   0.701722 0.470044 0.552407 -0.177547
C11   C     C_R   0.239022 0.530140 0.447734 -0.189932
C12   C     C_R   0.760979 0.470007 0.552278 -0.189736
C13   C     C_R   0.208957 0.503124 0.500647 0.372068
C14   C     C_R   0.791043 0.496993 0.499361 0.372225
C15   C     C_R   0.322275 0.224238 0.426276 -0.115615
C16   C     C_R   0.677880 0.776196 0.573596 -0.115403
C17   C     C_R   0.364615 0.160567 0.457252 -0.193260
C18   C     C_R   0.635499 0.839922 0.542709 -0.194135
C19   C     C_R   0.416809 0.133191 0.429087 0.107917
C20   C     C_R   0.583246 0.866785 0.570871 0.107395
C21   C     C_R   0.426328 0.170846 0.368624 0.272999
C22   C     C_R   0.573714 0.828544 0.631246 0.274531
C23   C     C_R   0.390716 0.500631 0.500156 0.868184
C24   C     C_R   0.609284 0.499382 0.499845 0.868088
C25   C     C_R   0.383622 0.236684 0.338623 -0.112992
C26   C     C_R   0.616471 0.762690 0.661159 -0.113240
C27   C     C_R   0.331877 0.262881 0.367206 -0.162094
C28   C     C_R   0.668273 0.737023 0.632580 -0.162581
C29   C     C_R   0.458742 0.935108 0.465793 -0.039909
C30   C     C_R   0.541226 0.064877 0.534268 -0.039654
C31   C     C_R   0.498919 0.871713 0.501220 -0.164360
C32   C     C_R   0.501081 0.128275 0.498800 -0.164053
C33   C     C_R   0.539571 0.935646 0.536067 -0.101492
C34   C     C_R   0.460430 0.064335 0.463957 -0.101594
C35   C     C_R   0.540532 0.568285 0.872216 0.605909
C36   C     C_R   0.459888 0.431830 0.127806 0.595531
C37   C     C_R   0.460395 0.433786 0.871287 0.605476
C38   C     C_R   0.539872 0.566745 0.128728 0.606797
C39   C     C_R   0.459052 0.430981 0.935504 -0.012072
C40   C     C_R   0.541260 0.569421 0.064511 -0.011014
C41   C     C_R   0.500081 0.499954 0.967844 -0.057420
C42   C     C_R   0.500266 0.500347 0.032172 -0.057344
C43   C     C_R   0.541043 0.568634 0.935922 -0.029650
C44   C     C_R   0.459348 0.431546 0.064097 -0.028334
C45   C     C_R   0.879903 0.608696 0.501473 0.561345
C46   C     C_R   0.120097 0.391424 0.498532 0.561319
C47   C     C_R   0.418198 0.362213 0.968496 0.159918
C48   C     C_R   0.582130 0.638145 0.031521 0.161954
C49   C     C_R   0.418818 0.363333 0.031832 -0.210448
C50   C     C_R   0.581567 0.636863 0.968186 -0.211028
C51   C     C_R   0.536664 0.415432 0.257090 -0.100482
C52   C     C_R   0.462304 0.582201 0.743004 -0.100814
C53   C     C_R   0.535606 0.421251 0.320796 0.026941
C54   C     C_R   0.463294 0.576262 0.679244 0.025281
C55   C     C_R   0.464306 0.575729 0.320090 0.055725
C56   C     C_R   0.536894 0.426987 0.679886 0.057249
C57   C     C_R   0.463877 0.574941 0.256874 -0.250715
C58   C     C_R   0.537511 0.428182 0.743100 -0.253262
C59   C     C_R   0.500142 0.495220 0.224428 0.290240
C60   C     C_R   0.500138 0.505393 0.775593 0.293583
C61   C     C_R   0.880860 0.387856 0.498868 0.553240
C62   C     C_R   0.119140 0.612264 0.501138 0.553762
C63   C     C_R   0.940532 0.386402 0.498885 -0.021711
C64   C     C_R   0.059468 0.613718 0.501120 -0.021869
C65   C     C_R   0.969985 0.499612 0.500073 -0.015760
C66   C     C_R   0.030014 0.500509 0.499931 -0.015788
C67   C     C_R   0.939550 0.611925 0.501407 -0.017026
C68   C     C_R   0.060450 0.388195 0.498597 -0.016989
C69   C     C_R   0.971306 0.274960 0.497556 -0.157336
C70   C     C_R   0.028694 0.725160 0.502448 -0.156947
C71   C     C_R   0.030655 0.275849 0.497401 -0.156740
C72   C     C_R   0.969344 0.724271 0.502602 -0.156983
Cu1   Cu    Cu3+1 0.500000 0.499970 0.559570 0.978526
Cu2   Cu    Cu3+1 0.500000 0.500030 0.440430 0.977811
H1    H     H_    0.949663 0.186744 0.496608 0.189236
H2    H     H_    0.050337 0.813376 0.503396 0.189368
H3    H     H_    0.390556 0.267338 0.292778 0.170240
H4    H     H_    0.609528 0.731584 0.706929 0.170498
H5    H     H_    0.387055 0.309812 0.055671 0.185541
H6    H     H_    0.613353 0.690322 0.944348 0.185773
H7    H     H_    0.562921 0.361563 0.346856 0.186750
H8    H     H_    0.435114 0.634219 0.653259 0.177569
H9    H     H_    0.435990 0.637098 0.344583 0.149899
H10   H     H_    0.566032 0.367472 0.655380 0.148524
H11   H     H_    0.435502 0.636505 0.233127 0.154172
H12   H     H_    0.566846 0.368724 0.766817 0.154369
H13   H     H_    0.053068 0.188292 0.496372 0.189916
H14   H     H_    0.946932 0.811828 0.503632 0.189799
H15   H     H_    0.320388 0.455780 0.594966 0.170840
H16   H     H_    0.679611 0.544210 0.405029 0.170174
H17   H     H_    0.320650 0.550964 0.406092 0.166528
H18   H     H_    0.679353 0.449168 0.593921 0.166006
H19   H     H_    0.216335 0.550570 0.406609 0.151551
H20   H     H_    0.783668 0.449617 0.593408 0.151696
H21   H     H_    0.299166 0.313389 0.343536 0.149442
H22   H     H_    0.701018 0.686484 0.656182 0.149628
H23   H     H_    0.282106 0.244611 0.448310 0.180404
H24   H     H_    0.718085 0.756185 0.551558 0.180495
H25   H     H_    0.356738 0.132180 0.503293 0.153755
H26   H     H_    0.643384 0.868728 0.496733 0.153209
N1    N     N_R   0.851991 0.497853 0.500005 -0.455374
N2    N     N_R   0.148009 0.502267 0.500001 -0.455541
N3    N     N_R   0.500372 0.502447 0.841144 -0.441828
N4    N     N_R   0.499938 0.497983 0.158869 -0.445824
N5    N     N_R   0.500010 0.500010 0.350920 -0.189004
N6    N     N_R   0.499990 0.499990 0.649080 -0.186921
O1    O     O_R   0.500000 0.319610 0.550310 -0.581219
O2    O     O_R   0.500000 0.680390 0.449690 -0.582472
O3    O     O_R   0.499990 0.319670 0.449690 -0.578813
O4    O     O_R   0.500010 0.680330 0.550310 -0.577771
O5    O     O_R   0.417880 0.499930 0.550320 -0.593146
O6    O     O_R   0.582120 0.500070 0.449680 -0.592725
O7    O     O_R   0.417880 0.499990 0.449700 -0.581964
O8    O     O_R   0.582120 0.500010 0.550300 -0.582860
O9    O     O_2   0.849957 0.715224 0.503112 -0.542171
O10   O     O_2   0.150042 0.284895 0.496891 -0.541608
O11   O     O_2   0.851855 0.280452 0.497380 -0.518835
O12   O     O_2   0.148145 0.719667 0.502626 -0.517793
O13   O     O_2   0.579646 0.634292 0.841576 -0.551696
O14   O     O_2   0.420851 0.365633 0.158456 -0.552371
O15   O     O_2   0.422101 0.368988 0.839052 -0.492804
O16   O     O_2   0.578103 0.631713 0.160968 -0.492484
N7    N     N_3   0.478452 0.144938 0.336702 -0.582791
H27   H     H_    0.508202 0.101127 0.364055 0.240221
H28   H     H_    0.468991 0.083240 0.301749 0.246767
N8    N     N_3   0.521507 0.853762 0.663144 -0.584479
H29   H     H_    0.491773 0.897839 0.635873 0.239335
H30   H     H_    0.530845 0.915042 0.698309 0.246968
C73   C     C_2   0.413188 0.867031 0.433069 0.846539
O17   O     O_2   0.384452 0.790381 0.459590 -0.610014
O18   O     O_R   0.403050 0.891180 0.372222 -0.776384
H31   H     H_    0.370853 0.839647 0.355283 0.327294
C74   C     C_2   0.586690 0.132962 0.567123 0.847339
O19   O     O_2   0.615517 0.209563 0.540679 -0.610635
O20   O     O_R   0.596623 0.108891 0.628016 -0.775004
H32   H     H_    0.628756 0.160462 0.645064 0.327256
N9    N     N_3   0.375622 0.290582 0.938392 -0.502156
H33   H     H_    0.335678 0.322352 0.952621 0.225749
H34   H     H_    0.379820 0.198703 0.952022 0.225630
N10   N     N_3   0.624677 0.709858 0.061625 -0.502038
H35   H     H_    0.620483 0.801704 0.047941 0.227014
H36   H     H_    0.664634 0.678072 0.047449 0.226425
C75   C     C_2   0.575521 0.325039 0.226941 0.871383
O21   O     O_2   0.573503 0.307595 0.172491 -0.578053
O22   O     O_R   0.614485 0.257987 0.261312 -0.769868
H37   H     H_    0.638375 0.199046 0.235996 0.348744
C76   C     C_2   0.422275 0.669538 0.773590 0.877126
O23   O     O_2   0.384208 0.718534 0.744822 -0.591847
O24   O     O_R   0.428098 0.697937 0.834817 -0.753704
H38   H     H_    0.398252 0.758645 0.849861 0.342977
N11   N     N_3   0.207677 0.450406 0.608213 -0.561859
H39   H     H_    0.219944 0.514566 0.641056 0.237033
H40   H     H_    0.219989 0.362732 0.622865 0.237350
N12   N     N_3   0.792321 0.549624 0.391785 -0.563269
H41   H     H_    0.780002 0.637280 0.377115 0.236325
H42   H     H_    0.780061 0.485430 0.358954 0.234331

loop_
_geom_bond_atom_site_label_1
_geom_bond_atom_site_label_2
_ccdc_geom_bond_type
C44   C49   A    
C16   C28   A    
C66   C68   A    
C63   C65   A    
C24   O8    A    
N8    H29   S    
C8    C24   S    
C41   C42   A    
C35   O13   S    
C76   O23   D    
C24   O6    A    
C9    H17   S    
Cu2   O3    S    
O22   H37   S    
N7    H27   S    
C39   C41   A    
C46   N2    A    
C26   H4    S    
C18   H26   S    
C55   N5    A    
C25   H3    S    
C59   N4    S    
C76   O24   S    
N10   H36   S    
C4    N12   S    
C28   H22   S    
C35   N3    A    
Cu2   O6    S    
Cu1   O1    S    
C58   C60   A    
C75   O21   D    
C75   O22   S    
C53   H7    S    
C67   C72   A    
Cu1   Cu2   S    
C69   C71   A    
C62   C64   A    
C52   C60   A    
C1    O3    A    
C27   H21   S    
C29   C73   S    
C63   C69   A    
C57   H11   S    
C65   C67   A    
C45   C67   A    
C38   N4    A    
N11   H39   S    
C31   C33   A    
C56   H10   S    
C64   C70   A    
C60   N3    S    
C35   C43   A    
N12   H42   S    
C3    C13   A    
C11   H19   S    
O20   H32   S    
C10   H18   S    
C38   C40   A    
C41   C43   A    
C12   H20   S    
C42   C44   A    
C15   H23   S    
C58   H12   S    
C72   H14   S    
C52   C54   A    
Cu1   O5    S    
C7    C9    A    
C48   N10   S    
C61   O11   S    
Cu1   O4    S    
N10   H35   S    
C47   C49   A    
C5    C7    A    
C54   N6    A    
C45   N1    A    
C14   N1    S    
C6    C8    A    
C6    H16   S    
Cu2   O7    S    
C29   C34   A    
C1    C32   S    
Cu1   O8    S    
C49   H5    S    
C2    C31   S    
C51   C53   A    
C64   C66   A    
C21   N7    S    
C61   N1    A    
C46   C68   A    
C23   O7    A    
N9    H34   S    
C45   O9    S    
C15   C27   A    
C29   C31   A    
C30   C74   S    
C47   N9    S    
C61   C63   A    
C16   C18   A    
C48   C50   A    
C17   H25   S    
C56   N6    A    
N12   H41   S    
C38   O16   S    
C10   C12   A    
C1    O1    A    
C71   H13   S    
C20   C33   S    
C4    C6    A    
C12   C14   A    
C52   C76   S    
C9    C11   A    
C70   H2    S    
C74   O19   D    
C37   O15   S    
C36   C44   A    
C57   C59   A    
C51   C59   A    
C55   H9    S    
O18   H31   S    
C54   H8    S    
C39   C47   A    
C73   O17   D    
C40   C48   A    
C21   C25   A    
C2    O4    A    
N8    H30   S    
C30   C33   A    
C19   C21   A    
C3    N11   S    
C20   C22   A    
C40   C42   A    
C3    C5    A    
C19   C34   S    
C50   H6    S    
C37   N3    A    
C43   C50   A    
C15   C17   A    
C51   C75   S    
C25   C27   A    
C23   O5    A    
N9    H33   S    
C26   C28   A    
C46   O10   S    
C36   N4    A    
C55   C57   A    
C37   C39   A    
O24   H38   S    
Cu2   N5    S    
C30   C32   A    
C11   C13   A    
C16   H24   S    
Cu1   N6    S    
C68   C71   A    
C7    C23   S    
C2    O2    A    
C17   C19   A    
C22   N8    S    
C56   C58   A    
C69   H1    S    
C18   C20   A    
N11   H40   S    
C4    C14   A    
C36   O14   S    
C62   O12   S    
N7    H28   S    
Cu2   O2    S    
C53   N5    A    
C8    C10   A    
C65   C66   A    
C22   C26   A    
C74   O20   S    
C70   C72   A    
C62   N2    A    
C13   N2    S    
C5    H15   S    
C32   C34   A    
C73   O18   S    
