data_mof_unit_44084.cif
_audit_creation_date              2013-03-05T15:53:41-0500
_audit_creation_method            fapswitch 2.2
_symmetry_space_group_name_H-M    P1
_symmetry_Int_Tables_number       1
_space_group_crystal_system       triclinic
_cell_length_a                    12.948832
_cell_length_b                    13.340467
_cell_length_c                    27.798263
_cell_angle_alpha                 93.928092
_cell_angle_beta                  90.914997
_cell_angle_gamma                 119.58145
_cell_volume                      4159.37925138

loop_
_atom_site_label
_atom_site_type_symbol
_atom_site_description
_atom_site_fract_x
_atom_site_fract_y
_atom_site_fract_z
_atom_type_partial_charge
O1    O     O_R   0.296680 0.802170 0.437540 -0.483727
O2    O     O_R   0.525380 0.838530 0.443500 -0.440454
C1    C     C_R   0.603267 0.927150 0.422190 0.566231
O3    O     O_R   0.702130 0.995190 0.446810 -0.518441
O4    O     O_R   0.661770 0.181390 0.458760 -0.546176
C2    C     C_R   0.600874 0.222231 0.440589 0.527961
O5    O     O_R   0.499820 0.198480 0.455280 -0.442133
O6    O     O_R   0.311660 0.976250 0.449080 -0.464989
C3    C     C_R   0.266714 0.876216 0.425967 0.553185
O7    O     O_R   0.297580 0.804960 0.544440 -0.494093
O8    O     O_R   0.526220 0.841130 0.542590 -0.472500
C4    C     C_R   0.627222 0.899000 0.565259 0.571055
O9    O     O_R   0.703030 0.997990 0.553710 -0.486634
O10   O     O_R   0.662610 0.183990 0.557860 -0.456907
C5    C     C_R   0.604770 0.227092 0.578090 0.564602
O11   O     O_R   0.500730 0.201280 0.562180 -0.514985
O12   O     O_R   0.312500 0.978850 0.548170 -0.479991
C6    C     C_R   0.272187 0.879046 0.563399 0.557834
Cr1   Cr    Cr6+3 0.416430 0.829200 0.492370 1.099780
Cr2   Cr    Cr6+3 0.674630 0.087020 0.504170 1.062869
Cr3   Cr    Cr6+3 0.408920 0.083740 0.503490 1.123609
O13   O     O_3   0.499990 0.999990 0.500010 -0.302206
C7    C     C_1   0.631459 0.269596 0.394863 0.055911
C8    C     C_R   0.618773 0.222978 0.269514 -0.043949
C9    C     C_R   0.628620 0.237399 0.220245 0.110299
C10   C     C_R   0.716544 0.446318 0.238956 0.101484
C11   C     C_R   0.707384 0.431096 0.288782 0.260428
C12   C     C_R   0.658663 0.318416 0.303762 0.023452
C13   C     C_R   0.678616 0.349447 0.204684 0.045465
C14   C     C_1   0.689176 0.366961 0.153866 0.034104
C15   C     C_1   0.647761 0.296763 0.354052 0.075483
C16   C     C_1   0.701125 0.392919 0.112820 0.071303
H1    H     H_    0.580343 0.136397 0.281226 0.137224
C17   C     C_R   0.147297 0.745311 0.353929 0.088418
C18   C     C_R   0.133703 0.735534 0.302610 0.052163
C19   C     C_R   0.137807 0.730047 0.200766 -0.016418
C20   C     C_R   0.098644 0.626732 0.223477 0.187079
C21   C     C_R   0.094231 0.629205 0.274120 0.087357
C22   C     C_R   0.150146 0.733135 0.150606 0.079969
C23   C     C_R   0.132660 0.813193 0.126886 0.026095
C24   C     C_R   0.200401 0.947366 0.357251 0.181156
C25   C     C_R   0.192850 0.942657 0.306347 -0.036539
C26   C     C_R   0.163064 0.837112 0.279014 -0.051446
C27   C     C_R   0.219686 0.042167 0.282121 0.221391
C28   C     C_R   0.211164 0.035795 0.231678 0.174251
C29   C     C_R   0.175365 0.929614 0.204042 -0.037106
C30   C     C_R   0.158537 0.832257 0.228040 -0.061119
C31   C     C_R   0.151033 0.915481 0.153280 0.167169
C32   C     C_R   0.198045 0.854746 0.379504 0.015471
C33   C     C_R   0.705033 0.997715 0.344642 0.057644
C34   C     C_R   0.709012 0.984339 0.293908 0.000334
C35   C     C_R   0.721993 0.946411 0.193810 -0.048561
C36   C     C_R   0.803812 0.053450 0.218373 0.190067
C37   C     C_R   0.799421 0.071517 0.268148 0.234682
C38   C     C_R   0.737318 0.921795 0.146079 -0.120932
H2    H     H_    0.809931 0.986949 0.127738 0.225775
C39   C     C_R   0.670733 0.810386 0.123255 -0.035364
C40   C     C_R   0.521330 0.810420 0.342151 0.073399
C41   C     C_R   0.528545 0.793872 0.292185 0.017505
C42   C     C_R   0.622014 0.879850 0.268100 -0.019800
C43   C     C_R   0.443618 0.691048 0.266035 -0.116091
C44   C     C_R   0.454292 0.667399 0.217605 0.084667
C45   C     C_R   0.549997 0.750018 0.193085 0.052630
C46   C     C_R   0.630330 0.859331 0.218207 -0.027761
C47   C     C_R   0.571627 0.725745 0.145116 0.200834
C48   C     C_R   0.611310 0.910422 0.369110 0.034649
H3    H     H_    0.368977 0.624465 0.282988 0.124366
C49   C     C_R   0.716213 0.256770 0.656070 0.096733
C50   C     C_R   0.724039 0.282881 0.706084 0.015700
C51   C     C_R   0.733571 0.328407 0.806588 0.036199
C52   C     C_R   0.786030 0.265343 0.786898 0.247752
C53   C     C_R   0.783064 0.245739 0.737016 -0.053053
C54   C     C_R   0.748601 0.363363 0.855938 -0.062056
H4    H     H_    0.800159 0.342198 0.879965 0.198588
H5    H     H_    0.825102 0.197996 0.723012 0.143692
C55   C     C_R   0.704939 0.433950 0.874220 0.017638
C56   C     C_R   0.607291 0.360603 0.644653 0.075700
C57   C     C_R   0.606317 0.379765 0.694886 0.006570
C58   C     C_R   0.665958 0.341058 0.725572 -0.028741
C59   C     C_R   0.540735 0.429469 0.715313 0.220496
C60   C     C_R   0.541104 0.446805 0.765379 0.222817
C61   C     C_R   0.614386 0.423138 0.795331 0.040550
C62   C     C_R   0.670234 0.363060 0.775836 -0.023291
C63   C     C_R   0.639331 0.465137 0.843852 0.128450
C64   C     C_R   0.648928 0.287534 0.626111 0.044885
C65   C     C_1   0.219237 0.860027 0.609363 0.040871
C66   C     C_R   0.099712 0.730287 0.718633 0.117090
C67   C     C_R   0.088955 0.721216 0.768812 0.302880
C68   C     C_R   0.193870 0.932553 0.782579 0.095622
C69   C     C_R   0.206404 0.940892 0.732516 0.168053
C70   C     C_R   0.159617 0.840033 0.700579 0.050659
C71   C     C_R   0.136232 0.822917 0.800902 0.022955
C72   C     C_1   0.122341 0.814120 0.852427 0.048846
C73   C     C_1   0.186806 0.849458 0.650130 0.028894
C74   C     C_1   0.100033 0.798515 0.894228 0.072106
C75   C     C_1   0.640909 0.869072 0.612556 0.037600
C76   C     C_R   0.731828 0.813335 0.726132 0.091238
C77   C     C_R   0.737117 0.805178 0.776224 0.274482
C78   C     C_R   0.580318 0.855398 0.785685 0.109470
C79   C     C_R   0.575044 0.863464 0.735561 0.274045
C80   C     C_R   0.651284 0.842916 0.705803 -0.018295
C81   C     C_R   0.661540 0.826815 0.806070 0.007725
C82   C     C_1   0.665077 0.814239 0.857256 0.048993
C83   C     C_1   0.647159 0.853491 0.654460 0.018471
C84   C     C_1   0.678685 0.799865 0.898736 0.045283
O14   O     O_R   0.820790 0.857990 0.068830 -0.492646
O15   O     O_R   0.016700 0.827330 0.062850 -0.451602
C85   C     C_R   0.066807 0.773250 0.079032 0.577945
O16   O     O_R   0.041970 0.673520 0.060040 -0.478964
O17   O     O_R   0.817980 0.483660 0.048840 -0.475733
C86   C     C_R   0.716359 0.440155 0.067015 0.561540
O18   O     O_R   0.637200 0.461990 0.052510 -0.452835
O19   O     O_R   0.664790 0.681920 0.057970 -0.442088
C87   C     C_R   0.718662 0.782733 0.080074 0.553053
O20   O     O_R   0.815840 0.852920 0.961840 -0.471412
O21   O     O_R   0.012100 0.822630 0.963670 -0.484137
C88   C     C_R   0.056302 0.766633 0.941216 0.548736
O22   O     O_R   0.037010 0.668460 0.953040 -0.485454
O23   O     O_R   0.813390 0.478970 0.949660 -0.487371
C89   C     C_R   0.727676 0.478940 0.924809 0.536297
O24   O     O_R   0.632250 0.456930 0.945520 -0.507830
O25   O     O_R   0.660200 0.677230 0.958780 -0.528620
C90   C     C_R   0.713478 0.779004 0.944591 0.533487
Cr4   Cr    Cr6+3 0.914010 0.832750 0.013970 1.143848
Cr5   Cr    Cr6+3 0.922310 0.578600 0.003000 1.112626
Cr6   Cr    Cr6+3 0.656280 0.574630 0.003870 1.124821
O26   O     O_3   0.830870 0.661990 0.006950 -0.310055
N1    N     N_R   0.249956 0.141851 0.209636 -0.085826
O27   O     O_R   0.347270 0.186733 0.186560 -0.000000
O28   O     O_R   0.347270 0.186733 0.186560 -0.000000
N2    N     N_R   0.271214 0.154524 0.307812 0.127350
O29   O     O_R   0.217151 0.214510 0.306058 -0.196631
O30   O     O_R   0.382687 0.206536 0.322720 -0.327821
N3    N     N_R   0.185688 0.032721 0.385992 0.107367
O31   O     O_R   0.081219 0.024186 0.386495 -0.273896
O32   O     O_R   0.276724 0.124820 0.407029 -0.234760
N4    N     N_3   0.798113 0.100020 0.370858 -0.527428
H6    H     H_    0.763043 0.144381 0.390544 0.255117
H7    H     H_    0.851083 0.079560 0.392228 0.306526
N5    N     N_R   0.896255 0.143175 0.193429 0.109373
O33   O     O_R   0.869502 0.189571 0.159169 -0.297873
O34   O     O_R   0.007521 0.180193 0.205531 -0.176192
N6    N     N_R   0.887586 0.180502 0.291538 0.133266
O35   O     O_R   0.863636 0.263646 0.299643 -0.363963
O36   O     O_R   0.989960 0.194966 0.306676 -0.205079
N7    N     N_R   0.498961 0.614052 0.119748 0.117267
O37   O     O_R   0.514992 0.528084 0.128749 -0.304191
O38   O     O_R   0.423994 0.600859 0.084848 -0.289605
N8    N     N_3   0.367072 0.557888 0.194221 -0.515127
H8    H     H_    0.367470 0.492445 0.212772 0.287021
H9    H     H_    0.284018 0.551552 0.197165 0.262745
N9    N     N_3   0.585666 0.136774 0.186726 -0.625378
H10   H     H_    0.655537 0.145471 0.165926 0.278608
H11   H     H_    0.519824 0.133671 0.163449 0.252400
N10   N     N_3   0.422536 0.724924 0.365866 -0.571007
H12   H     H_    0.423098 0.646660 0.362379 0.264371
H13   H     H_    0.344233 0.714550 0.349736 0.218583
N11   N     N_3   0.773103 0.195994 0.635431 -0.570303
H14   H     H_    0.864549 0.244411 0.644234 0.245519
H15   H     H_    0.737880 0.115223 0.649162 0.251124
N12   N     N_R   0.841624 0.219470 0.816776 0.075713
O39   O     O_R   0.784356 0.156995 0.851401 -0.357709
O40   O     O_R   0.938929 0.221691 0.803992 -0.260346
N13   N     N_3   0.617418 0.556540 0.859708 -0.556683
H16   H     H_    0.699259 0.625733 0.872878 0.242459
H17   H     H_    0.555856 0.529758 0.886417 0.289181
N14   N     N_R   0.457252 0.476643 0.785625 0.120284
O41   O     O_R   0.453588 0.567283 0.773422 -0.265626
O42   O     O_R   0.380478 0.409661 0.814818 -0.278867
N15   N     N_R   0.461504 0.449287 0.686084 0.129290
O43   O     O_R   0.354646 0.364934 0.673835 -0.287309
O44   O     O_R   0.493238 0.553058 0.674499 -0.282631
N16   N     N_3   0.572614 0.420341 0.612564 -0.554234
H18   H     H_    0.635643 0.454738 0.586560 0.226934
H19   H     H_    0.489411 0.363343 0.595526 0.295413
N17   N     N_3   0.048785 0.626890 0.686265 -0.544103
H20   H     H_    0.988163 0.629678 0.661849 0.226756
H21   H     H_    0.116680 0.625407 0.666926 0.266350
N18   N     N_3   0.759662 0.560224 0.223570 -0.548836
H22   H     H_    0.834519 0.581813 0.203705 0.261469
H23   H     H_    0.693580 0.559286 0.201122 0.253614
N19   N     N_R   0.031307 0.608473 0.786866 0.112643
O45   O     O_R   0.051684 0.527628 0.768905 -0.249526
O46   O     O_R   0.956886 0.585268 0.820832 -0.327421
N20   N     N_3   0.241978 0.036674 0.814374 -0.595951
H24   H     H_    0.304308 0.037072 0.838882 0.244365
H25   H     H_    0.172914 0.035681 0.833700 0.280238
N21   N     N_3   0.269595 0.052140 0.713884 -0.565011
H26   H     H_    0.356084 0.095689 0.729796 0.273877
H27   H     H_    0.227612 0.099425 0.724110 0.281172
N22   N     N_3   0.810827 0.793570 0.696434 -0.561359
H28   H     H_    0.759784 0.725560 0.670208 0.261300
H29   H     H_    0.863023 0.868151 0.679033 0.229413
N23   N     N_R   0.819319 0.774290 0.796504 0.090195
O47   O     O_R   0.828148 0.688242 0.776222 -0.304365
O48   O     O_R   0.889272 0.835055 0.833985 -0.355827
N24   N     N_3   0.503313 0.877886 0.815527 -0.551883
H30   H     H_    0.450626 0.804131 0.833333 0.260459
H31   H     H_    0.555790 0.946054 0.841462 0.253729
N25   N     N_R   0.489397 0.889394 0.715037 0.106946
O49   O     O_R   0.379216 0.832702 0.726360 -0.308698
O50   O     O_R   0.521354 0.971644 0.686365 -0.381853
N26   N     N_R   0.746325 0.529627 0.323637 0.098761
O51   O     O_R   0.683637 0.524465 0.360472 -0.299493
O52   O     O_R   0.842665 0.626432 0.317908 -0.295309
N27   N     N_3   0.194293 0.666990 0.124097 -0.551732
H32   H     H_    0.130102 0.579965 0.118178 0.322172
H33   H     H_    0.268512 0.675440 0.143339 0.252345
N28   N     N_3   0.109631 0.647239 0.381738 -0.567571
H34   H     H_    0.017602 0.593356 0.376511 0.300566
H35   H     H_    0.155113 0.602790 0.372818 0.265388
N29   N     N_R   0.042115 0.516608 0.195178 0.051985
O53   O     O_R   0.954685 0.491492 0.164217 -0.353751
O54   O     O_R   0.068443 0.436835 0.203438 -0.271959
N30   N     N_3   0.041757 0.522068 0.296029 -0.592856
H36   H     H_    0.093665 0.482731 0.290474 0.296854
H37   H     H_    0.956058 0.468799 0.280321 0.313330
N31   N     N_R   0.138189 0.000551 0.128982 0.105259
O55   O     O_R   0.054643 0.023805 0.140177 -0.261856
O56   O     O_R   0.202172 0.046400 0.092608 -0.297497

loop_
_geom_bond_atom_site_label_1
_geom_bond_atom_site_label_2
_geom_bond_distance
_ccdc_geom_bond_type
N23   O48   1.300902 A    
C66   C67   1.411536 A    
C45   C47   1.415531 A    
Cr6   O26   1.963494 S    
C16   C86   1.432660 S    
C66   C70   1.410284 A    
N10   H13   1.042448 S    
C36   N5    1.439443 S    
C54   H4    1.081303 S    
C86   O18   1.263235 A    
C59   N15   1.432923 S    
C21   N30   1.431444 S    
N26   O51   1.301211 A    
N1    O27   1.300534 A    
C55   C63   1.407724 A    
C76   C77   1.407333 A    
C69   C70   1.407096 A    
C33   N4    1.434577 S    
N31   O55   1.300883 A    
N14   O42   1.301292 A    
O4    Cr2   1.903709 S    
C31   N31   1.435130 S    
C36   C37   1.395058 A    
O21   C88   1.282550 A    
C27   N2    1.432687 S    
C66   N17   1.435286 S    
N26   O52   1.301263 A    
O8    Cr1   1.917836 S    
C10   C11   1.412002 A    
C55   C89   1.456418 S    
N15   O44   1.301030 A    
O14   C87   1.264848 A    
C9    N9    1.433348 S    
C11   N26   1.440948 S    
C19   C20   1.412355 A    
C44   N8    1.431701 S    
C20   C21   1.408650 A    
N5    O34   1.300823 A    
O19   C87   1.272688 A    
N8    H9    1.041367 S    
O4    C2    1.273946 A    
N27   H33   1.044419 S    
C38   H2    1.081052 S    
N20   H25   1.045556 S    
N15   O43   1.300756 A    
C28   N1    1.434028 S    
N19   O46   1.300223 A    
N6    O35   1.298008 A    
C22   N27   1.439043 S    
C85   O16   1.275982 A    
C77   N23   1.437458 S    
C19   C30   1.413001 A    
N21   H27   1.045557 S    
C17   C18   1.423725 A    
C24   C25   1.411809 A    
N24   H31   1.045434 S    
C23   C31   1.411984 A    
N19   O45   1.301339 A    
C79   C80   1.412887 A    
C65   C73   1.207934 T    
C81   C82   1.446724 S    
O17   C86   1.277107 A    
N31   O56   1.301560 A    
C40   C48   1.414002 A    
O21   Cr4   1.945964 S    
C67   C71   1.417019 A    
C49   C50   1.399594 A    
C58   C62   1.402454 A    
N25   O49   1.299305 A    
O15   C85   1.281059 A    
C3    C32   1.483927 S    
C51   C52   1.407768 A    
O22   Cr5   2.026779 S    
C13   C14   1.445237 S    
C18   C26   1.425521 A    
O18   Cr6   2.017361 S    
C63   N13   1.426061 S    
C35   C38   1.385904 A    
C56   C57   1.403654 A    
C23   C85   1.482816 S    
N17   H21   1.045524 S    
N23   O47   1.300615 A    
C56   C64   1.401944 A    
C41   C42   1.410386 A    
C72   C74   1.208930 T    
Cr3   O13   1.984423 S    
N11   H15   1.044732 S    
C49   C64   1.413434 A    
C78   N24   1.435299 S    
C43   C44   1.386326 A    
C25   C27   1.418114 A    
O15   Cr4   1.915812 S    
C53   H5    1.081016 S    
C49   N11   1.438278 S    
C24   C32   1.406557 A    
C24   N3    1.437219 S    
N12   O40   1.301386 A    
N12   O39   1.301340 A    
N10   H12   1.045568 S    
N7    O38   1.300908 A    
N16   H19   1.043454 S    
C9    C13   1.408074 A    
C29   C31   1.420128 A    
C41   C43   1.402811 A    
O1    Cr1   2.038320 S    
N22   H28   1.045669 S    
O10   Cr2   1.966442 S    
C12   C15   1.441895 S    
C18   C21   1.420523 A    
O20   C90   1.258420 A    
C8    C9    1.395174 A    
N28   H34   1.045141 S    
C35   C46   1.410883 A    
N14   O41   1.300668 A    
C57   C58   1.422578 A    
O6    C3    1.279129 A    
N3    O32   1.300279 A    
O19   Cr6   1.966344 S    
C60   C61   1.414207 A    
C33   C34   1.414364 A    
C40   C41   1.403267 A    
N16   H18   1.045825 S    
C74   C88   1.438618 S    
C1    O3    1.292572 A    
C45   C46   1.426855 A    
N1    O28   1.300533 A    
N21   H26   1.045949 S    
C7    C15   1.204726 T    
O25   Cr6   1.901465 S    
C50   C53   1.407234 A    
N30   H36   1.044726 S    
N22   H29   1.045543 S    
C20   N29   1.440297 S    
C10   N18   1.436223 S    
C44   C45   1.412984 A    
C17   N28   1.437979 S    
C77   C81   1.414721 A    
N4    H7    1.044934 S    
C43   H3    1.081427 S    
C67   N19   1.441573 S    
C78   C79   1.407982 A    
O10   C5    1.265758 A    
C76   N22   1.435597 S    
O7    Cr1   2.052326 S    
O23   C89   1.297755 A    
Cr1   O13   1.974688 S    
C51   C54   1.396988 A    
O12   C6    1.273772 A    
C60   N14   1.438650 S    
O1    C3    1.283680 A    
C82   C84   1.206058 T    
C6    C65   1.437960 S    
N5    O33   1.300779 A    
C68   C71   1.411415 A    
C51   C62   1.422380 A    
C33   C48   1.425167 A    
N3    O31   1.300716 A    
Cr4   O26   1.974205 S    
O23   Cr5   1.940799 S    
O16   Cr5   2.056142 S    
N17   H20   1.045708 S    
N9    H11   1.044570 S    
C80   C83   1.446497 S    
C61   C63   1.393320 A    
C38   C39   1.393921 A    
N11   H14   1.045549 S    
C54   C55   1.390651 A    
C50   C58   1.411791 A    
C1    C48   1.490159 S    
C25   C26   1.420015 A    
Cr2   O13   1.963727 S    
N2    O29   1.300091 A    
C79   N25   1.435528 S    
C22   C23   1.398985 A    
C47   N7    1.432990 S    
C35   C36   1.406177 A    
N7    O37   1.301406 A    
N6    O36   1.300050 A    
C29   C30   1.422425 A    
N13   H16   1.041459 S    
C17   C32   1.401522 A    
C56   N16   1.438856 S    
O20   Cr4   2.029921 S    
C52   N12   1.438066 S    
O9    Cr2   2.020272 S    
O2    Cr1   1.939668 S    
N27   H32   1.040432 S    
C68   N20   1.434759 S    
C19   C22   1.407100 A    
C27   C28   1.398259 A    
C8    C12   1.401102 A    
C39   C47   1.406912 A    
C59   C60   1.394643 A    
N2    O30   1.299752 A    
O6    Cr3   1.946530 S    
O8    C4    1.270328 A    
O11   Cr3   2.069021 S    
C2    O5    1.266841 A    
N4    H6    1.041549 S    
C8    H1    1.084863 S    
C5    C64   1.460159 S    
C42   C46   1.411363 A    
C34   C37   1.425653 A    
C75   C83   1.205580 T    
O2    C1    1.305210 A    
C68   C69   1.409260 A    
O24   Cr6   2.084655 S    
O5    Cr3   2.019167 S    
C88   O22   1.274459 A    
C70   C73   1.450069 S    
C14   C16   1.205269 T    
N20   H24   1.045607 S    
N29   O53   1.299829 A    
C39   C87   1.466721 S    
C69   N21   1.435357 S    
O7    C6    1.271892 A    
C2    C7    1.432080 S    
N13   H17   1.043265 S    
C71   C72   1.451929 S    
N28   H35   1.043676 S    
C37   N6    1.431065 S    
C57   C59   1.415280 A    
N24   H30   1.045625 S    
O12   Cr3   1.903206 S    
N30   H37   1.044279 S    
C40   N10   1.435740 S    
N29   O54   1.300262 A    
O17   Cr5   1.907811 S    
N18   H22   1.044367 S    
O3    Cr2   2.085960 S    
C28   C29   1.415191 A    
C52   C53   1.389722 A    
C78   C81   1.406841 A    
N9    H10   1.043353 S    
C10   C13   1.417266 A    
N25   O50   1.300974 A    
C61   C62   1.408627 A    
O14   Cr4   2.070226 S    
C11   C12   1.410271 A    
Cr5   O26   1.984816 S    
C89   O24   1.277573 A    
C4    C75   1.433123 S    
C34   C42   1.419012 A    
C84   C90   1.435012 S    
C4    O9    1.264450 A    
O25   C90   1.277568 A    
N8    H8    1.046033 S    
C26   C30   1.412988 A    
C76   C80   1.407445 A    
C5    O11   1.277181 A    
N18   H23   1.045492 S    
