data_mof_unit_23822.cif
_audit_creation_date              2012-12-10T18:47:08-0500
_audit_creation_method            fapswitch 2.2
_symmetry_space_group_name_H-M    P1
_symmetry_Int_Tables_number       1
_space_group_crystal_system       triclinic
_cell_length_a                    10.706992
_cell_length_b                    9.959245
_cell_length_c                    14.932077
_cell_angle_alpha                 90.305597
_cell_angle_beta                  90.631101
_cell_angle_gamma                 89.945653
_cell_volume                      1592.14060974

loop_
_atom_site_label
_atom_site_type_symbol
_atom_type_description
_atom_site_fract_x
_atom_site_fract_y
_atom_site_fract_z
_atom_type_partial_charge
C1    C     C_R   0.260268 0.500033 0.500187 0.926502
C2    C     C_R   0.127689 0.499970 0.502542 0.001841
C3    C     C_R   0.557459 0.072186 0.567672 -0.042903
C4    C     C_R   0.442129 0.927806 0.432505 -0.040551
C5    C     C_R   0.442137 0.071225 0.432532 -0.037186
C6    C     C_R   0.557419 0.928790 0.567658 -0.038770
C7    C     C_R   0.503437 0.499735 0.327361 0.907044
C8    C     C_R   0.496219 0.500307 0.672507 0.903174
C9    C     C_R   0.593241 0.552172 0.812910 -0.172371
C10   C     C_R   0.405675 0.446017 0.186846 -0.171778
C11   C     C_R   0.489788 0.501852 0.767866 -0.096887
C12   C     C_R   0.739770 0.499935 0.501472 0.932284
C13   C     C_R   0.508594 0.498389 0.231776 -0.096027
C14   C     C_R   0.386028 0.449662 0.813155 -0.062276
C15   C     C_R   0.610476 0.553366 0.185970 -0.059269
C16   C     C_R   0.383408 0.460446 0.907559 -0.014869
C17   C     C_R   0.613753 0.540632 0.091824 -0.009788
C18   C     C_R   0.494979 0.501505 0.952982 0.069273
C19   C     C_R   0.502799 0.497923 0.046476 0.068680
C20   C     C_R   0.599102 0.546793 0.904887 0.116457
C21   C     C_R   0.399128 0.451932 0.094722 0.112342
C22   C     C_R   0.275517 0.430463 0.958814 -0.014223
C23   C     C_R   0.287447 0.418759 0.051323 -0.203760
C24   C     C_R   0.721623 0.571394 0.040940 -0.027660
C25   C     C_2   0.290118 0.371820 0.762380 0.955465
C26   C     C_2   0.703170 0.636710 0.235532 0.960033
C27   C     C_2   0.146182 0.428793 0.921935 0.950302
C28   C     C_2   0.850108 0.576665 0.079201 0.937045
C29   C     C_2   0.621084 0.144154 0.641609 0.979043
C30   C     C_2   0.377143 0.855798 0.359191 0.981462
C31   C     C_2   0.376516 0.142125 0.359581 0.974869
C32   C     C_2   0.621672 0.857956 0.641245 0.974733
C33   C     C_R   0.710531 0.580584 0.948314 -0.223582
C34   C     C_R   0.064067 0.377540 0.502286 -0.132534
C35   C     C_R   0.936271 0.622204 0.505427 -0.188822
C36   C     C_R   0.936315 0.377487 0.501928 -0.141315
C37   C     C_R   0.063982 0.622281 0.505290 -0.142169
C38   C     C_R   0.872524 0.499843 0.503292 -0.014891
H1    H     H_    0.672860 0.587901 0.775467 0.138752
H2    H     H_    0.834648 0.647714 0.332145 0.342650
H3    H     H_    0.974152 0.346620 0.925260 0.350268
H4    H     H_    0.978676 0.493079 0.161525 0.346264
H5    H     H_    0.772550 0.247128 0.684114 0.338892
H6    H     H_    0.224438 0.753718 0.318028 0.339307
H7    H     H_    0.220710 0.238272 0.318235 0.332680
H8    H     H_    0.776606 0.761716 0.684112 0.336462
H9    H     H_    0.326742 0.409002 0.224447 0.134327
H10   H     H_    0.206415 0.392578 0.090643 0.177340
H11   H     H_    0.791783 0.606570 0.909144 0.186357
H12   H     H_    0.112293 0.281985 0.501991 0.212073
H13   H     H_    0.888155 0.717775 0.505452 0.217770
H14   H     H_    0.888223 0.281948 0.499706 0.212217
H15   H     H_    0.112127 0.717835 0.506891 0.212325
H16   H     H_    0.194506 0.198366 0.749291 0.357135
N1    N     N_R   0.500000 0.857200 0.500000 -0.161950
N2    N     N_R   0.500000 0.142800 0.500000 -0.162245
O1    O     O_R   0.316770 0.614620 0.499990 -0.606232
O2    O     O_R   0.261191 0.241135 0.788799 -0.746520
O3    O     O_2   0.720187 0.753279 0.213389 -0.560254
O4    O     O_R   0.771687 0.581757 0.306374 -0.797990
O5    O     O_2   0.113137 0.513285 0.867434 -0.597471
O6    O     O_R   0.059985 0.335472 0.953645 -0.755835
O7    O     O_2   0.923835 0.661499 0.053432 -0.569701
O8    O     O_R   0.888685 0.480291 0.141428 -0.768000
O9    O     O_2   0.573210 0.148238 0.715560 -0.569606
O10   O     O_R   0.738286 0.201245 0.628279 -0.807500
O11   O     O_2   0.423883 0.851137 0.284878 -0.565314
O12   O     O_R   0.683230 0.385380 0.500010 -0.600530
O13   O     O_R   0.259770 0.799637 0.373511 -0.807556
O14   O     O_2   0.423439 0.147217 0.285394 -0.568454
O15   O     O_R   0.257779 0.195306 0.373877 -0.812508
O16   O     O_2   0.573427 0.853069 0.714998 -0.571419
O17   O     O_R   0.740510 0.804454 0.628072 -0.811222
O18   O     O_R   0.683230 0.614620 0.500010 -0.603033
O19   O     O_R   0.316770 0.385380 0.499990 -0.599676
O20   O     O_R   0.499980 0.614680 0.367850 -0.617708
O21   O     O_R   0.500020 0.385320 0.632150 -0.616921
O22   O     O_R   0.500020 0.614680 0.632150 -0.603036
O23   O     O_R   0.499980 0.385320 0.367850 -0.600444
O24   O     O_2   0.236624 0.421824 0.697994 -0.629964
Zn1   Zn    Zn3+2 0.500000 0.653120 0.500000 1.026752
Zn2   Zn    Zn3+2 0.500000 0.346880 0.500000 1.030603

loop_
_geom_bond_atom_site_label_1
_geom_bond_atom_site_label_2
_ccdc_geom_bond_type
C6    C32   S    
H2    O4    S    
C12   O18   A    
H7    O15   S    
C25   O24   D    
C5    N2    A    
O22   Zn1   S    
C6    N1    A    
C3    C6    A    
C32   O16   D    
C12   O12   A    
C35   C37   A    
C18   C19   A    
H5    O10   S    
C11   C14   A    
C33   H11   S    
C9    H1    S    
C1    C2    S    
C3    C29   S    
C27   O5    D    
C31   O14   D    
N1    Zn1   S    
C26   O3    D    
C34   C36   A    
C30   O11   D    
C36   H14   S    
C37   H15   S    
C2    C34   A    
C31   O15   S    
C10   C21   A    
C8    O22   A    
H3    O6    S    
C21   C23   A    
C34   H12   S    
C17   C24   A    
C1    O19   A    
C35   C38   A    
C32   O17   S    
C15   C26   S    
C27   O6    S    
C1    O1    A    
C3    N2    A    
C9    C20   A    
H6    O13   S    
C9    C11   A    
C29   O9    D    
C20   C33   A    
C28   O8    S    
C22   C27   S    
C13   C15   A    
C4    N1    A    
C35   H13   S    
C8    O21   A    
C14   C16   A    
C25   O2    S    
O18   Zn1   S    
H4    O8    S    
C30   O13   S    
C7    O23   A    
H16   O2    S    
C15   C17   A    
C16   C22   A    
C23   H10   S    
C19   C21   A    
C24   C28   S    
C4    C5    A    
C10   C13   A    
O20   Zn1   S    
O23   Zn2   S    
O19   Zn2   S    
N2    Zn2   S    
C7    O20   A    
C24   C33   A    
O12   Zn2   S    
C36   C38   A    
C2    C37   A    
O21   Zn2   S    
C8    C11   S    
C17   C19   A    
C18   C20   A    
C14   C25   S    
C12   C38   S    
O1    Zn1   S    
C29   O10   S    
C28   O7    D    
C7    C13   S    
C16   C18   A    
C10   H9    S    
C22   C23   A    
C26   O4    S    
H8    O17   S    
C4    C30   S    
C5    C31   S    
