data_mof_unit_9757.cif
_audit_creation_date              2013-03-05T16:46:54-0500
_audit_creation_method            fapswitch 2.2
_symmetry_space_group_name_H-M    P1
_symmetry_Int_Tables_number       1
_space_group_crystal_system       triclinic
_cell_length_a                    18.262671
_cell_length_b                    18.264927
_cell_length_c                    18.385436
_cell_angle_alpha                 120.0914
_cell_angle_beta                  89.963153
_cell_angle_gamma                 119.964144
_cell_volume                      4334.26548098

loop_
_atom_site_label
_atom_site_type_symbol
_atom_site_description
_atom_site_fract_x
_atom_site_fract_y
_atom_site_fract_z
_atom_type_partial_charge
Zn1   Zn    Zn3+2 0.456040 0.586770 0.543190 1.012726
Zn2   Zn    Zn3+2 0.456820 0.413240 0.543960 0.986753
Zn3   Zn    Zn3+2 0.631110 0.586750 0.543190 0.975175
Zn4   Zn    Zn3+2 0.456040 0.413240 0.369660 1.133671
O1    O     O_3   0.500000 0.500000 0.500000 -0.518049
O2    O     O_R   0.383400 0.268380 0.323710 -0.617108
O3    O     O_R   0.555060 0.731630 0.615290 -0.625624
O4    O     O_R   0.383950 0.439280 0.616600 -0.641646
O5    O     O_R   0.677590 0.560710 0.444390 -0.662206
O6    O     O_R   0.556370 0.439260 0.616600 -0.648872
O7    O     O_R   0.382640 0.439290 0.322940 -0.562588
O8    O     O_R   0.678360 0.560700 0.616060 -0.644178
O9    O     O_R   0.382640 0.560750 0.444390 -0.622152
O10   O     O_R   0.383400 0.560740 0.616060 -0.649143
O11   O     O_R   0.555060 0.439270 0.322940 -0.564628
O12   O     O_R   0.383950 0.268380 0.445700 -0.645184
O13   O     O_R   0.677590 0.731610 0.615290 -0.651163
C1    C     C_R   0.360083 0.220103 0.361166 0.826087
C2    C     C_R   0.640935 0.780906 0.640592 0.791015
C3    C     C_R   0.360184 0.501425 0.641603 0.809146
C4    C     C_R   0.640095 0.499615 0.358898 0.940696
C5    C     C_R   0.641809 0.500027 0.640032 0.806952
C6    C     C_R   0.359811 0.501616 0.359040 0.905458
C7    C     C_3   0.302045 0.442180 0.198266 0.477030
C8    C     C_3   0.238064 0.441810 0.141534 -0.514557
H1    H     H_    0.274303 0.479321 0.108515 0.202266
H2    H     H_    0.183337 0.361999 0.084979 0.231848
C9    C     C_3   0.205716 0.448910 0.303871 0.164965
C10   C     C_3   0.339405 0.616179 0.333514 0.066980
C11   C     C_3   0.303054 0.501508 0.299723 -0.211926
H3    H     H_    0.407542 0.654835 0.329507 0.181792
C12   C     C_3   0.199185 0.501044 0.199213 -0.108966
C13   C     C_3   0.145704 0.452227 0.246989 0.269159
C14   C     C_3   0.279844 0.614016 0.271199 -0.557909
H4    H     H_    0.320560 0.649123 0.238338 0.185569
H5    H     H_    0.255853 0.662442 0.309939 0.250093
H6    H     H_    0.209285 0.493758 0.374409 0.146626
H7    H     H_    0.127898 0.504233 0.294001 0.177654
C15   C     C_3   0.704051 0.941551 0.646091 -0.422046
H8    H     H_    0.635415 0.912083 0.612262 0.181944
H9    H     H_    0.732115 0.913680 0.592876 0.201215
C16   C     C_3   0.762504 0.062061 0.707665 0.196793
H10   H     H_    0.719685 0.088617 0.705573 0.103354
H11   H     H_    0.590888 0.908369 0.743839 0.205780
H12   H     H_    0.676010 0.083811 0.830359 0.183823
C17   C     C_3   0.660314 0.937743 0.774709 -0.406370
C18   C     C_3   0.795457 0.939379 0.746505 -0.442853
C19   C     C_3   0.698987 0.897410 0.700628 0.067869
H13   H     H_    0.792519 0.907655 0.785561 0.198819
H14   H     H_    0.825431 0.911885 0.695223 0.192673
C20   C     C_3   0.800138 0.102546 0.805950 0.023592
C21   C     C_3   0.718048 0.057493 0.835150 -0.421936
C22   C     C_3   0.855900 0.059300 0.807335 0.179066
H15   H     H_    0.908984 0.085220 0.778625 0.149663
H16   H     H_    0.657096 0.908235 0.815729 0.208074
H17   H     H_    0.738843 0.085726 0.905762 0.272115
C23   C     C_3   0.635002 0.393083 0.198806 0.504665
C24   C     C_3   0.695093 0.395730 0.136412 0.517352
H18   H     H_    0.696130 0.605990 0.279309 0.258419
H19   H     H_    0.793681 0.611887 0.199610 0.210295
C25   C     C_3   0.743091 0.594556 0.302005 -0.558553
C26   C     C_3   0.772388 0.493845 0.336372 0.136716
C27   C     C_3   0.695194 0.494097 0.298917 -0.095914
H20   H     H_    0.816596 0.570664 0.401985 0.138882
C28   C     C_3   0.797588 0.490426 0.197494 -0.193475
C29   C     C_3   0.806162 0.594658 0.246404 -0.536844
C30   C     C_3   0.831075 0.487271 0.274181 0.019098
H21   H     H_    0.899322 0.560711 0.317175 0.149531
H22   H     H_    0.783368 0.663751 0.372195 0.231674
H23   H     H_    0.876302 0.660715 0.291849 0.243366
H24   H     H_    0.405186 0.221453 0.692917 0.155906
C31   C     C_R   0.427301 0.165200 0.566861 -0.115164
H25   H     H_    0.490793 0.181961 0.593330 0.142378
C32   C     C_R   0.393923 0.121482 0.476679 -0.170805
H26   H     H_    0.432318 0.104713 0.434006 0.144484
C33   C     C_R   0.311620 0.099318 0.441341 0.018198
C34   C     C_R   0.261729 0.121238 0.498080 0.357495
C35   C     C_R   0.296781 0.165232 0.588910 -0.173248
H27   H     H_    0.260818 0.183609 0.634040 0.174316
C36   C     C_R   0.378942 0.187232 0.622899 -0.155359
C37   C     C_R   0.224386 0.944087 0.288446 -0.199112
H28   H     H_    0.205268 0.901241 0.317819 0.180856
C38   C     C_R   0.195437 0.892422 0.195963 -0.062677
C39   C     C_R   0.222370 0.949373 0.158446 -0.009685
C40   C     C_R   0.275917 0.056196 0.214451 -0.195001
H29   H     H_    0.295523 0.099018 0.185014 0.208675
C41   C     C_R   0.304699 0.107820 0.306770 -0.035211
C42   C     C_R   0.279374 0.051074 0.344516 0.061236
C43   C     C_R   0.253065 0.879426 0.015281 -0.155906
H30   H     H_    0.312890 0.895629 0.049786 0.157290
C44   C     C_R   0.231113 0.836054 0.924082 -0.193723
H31   H     H_    0.274935 0.820170 0.889722 0.172853
C45   C     C_R   0.154032 0.814938 0.878118 0.385741
C46   C     C_R   0.099361 0.838094 0.925215 -0.201052
H32   H     H_    0.039533 0.822462 0.891448 0.174897
C47   C     C_R   0.121374 0.881460 0.016445 -0.145144
H33   H     H_    0.078664 0.898963 0.051804 0.163952
C48   C     C_R   0.198122 0.901944 0.061728 0.148284
C49   C     C_R   0.906424 0.652258 0.582503 -0.147570
H34   H     H_    0.923130 0.620629 0.522852 0.156900
C50   C     C_R   0.864257 0.591685 0.614193 -0.134087
H35   H     H_    0.847605 0.513921 0.577754 0.144704
C51   C     C_R   0.842593 0.630738 0.691810 0.148603
C52   C     C_R   0.865084 0.731774 0.738581 -0.164178
H36   H     H_    0.848807 0.762845 0.798762 0.149508
C53   C     C_R   0.906417 0.792049 0.706356 -0.162661
H37   H     H_    0.922262 0.869393 0.743034 0.179850
C54   C     C_R   0.926628 0.752459 0.627351 0.409387
C55   C     C_R   0.842188 0.560985 0.775652 -0.235499
H38   H     H_    0.914728 0.610761 0.796321 0.187833
C56   C     C_R   0.799479 0.494849 0.802265 -0.049828
C57   C     C_R   0.704736 0.427999 0.772733 -0.004693
C58   C     C_R   0.655560 0.433551 0.721281 -0.258221
H39   H     H_    0.583054 0.383740 0.700357 0.176942
C59   C     C_R   0.698211 0.500174 0.695249 -0.047324
C60   C     C_R   0.792801 0.563646 0.721556 -0.008454
C61   C     C_R   0.648653 0.257493 0.746053 -0.118189
H40   H     H_    0.682919 0.243632 0.697869 0.119015
C62   C     C_R   0.599688 0.183205 0.763209 -0.149673
H41   H     H_    0.596140 0.112455 0.728428 0.123271
C63   C     C_R   0.554954 0.200021 0.825041 -0.045291
H42   H     H_    0.517139 0.142467 0.838257 0.158476
C64   C     C_R   0.558655 0.290878 0.869457 -0.032673
H43   H     H_    0.523541 0.303504 0.916939 0.195855
C65   C     C_R   0.607743 0.365525 0.852722 -0.169977
H44   H     H_    0.610232 0.435677 0.887551 0.148792
C66   C     C_R   0.653732 0.349678 0.791498 0.133237
H45   H     H_    0.448722 0.928688 0.753479 0.138731
C67   C     C_R   0.452242 0.862623 0.822913 0.475872
C68   C     C_R   0.411971 0.771364 0.818279 -0.189691
H46   H     H_    0.436994 0.774051 0.873606 0.171290
C69   C     C_R   0.338643 0.677230 0.743580 0.018181
C70   C     C_R   0.305197 0.674916 0.673240 -0.013807
H47   H     H_    0.247470 0.603255 0.616044 0.152143
C71   C     C_R   0.345685 0.765534 0.677048 -0.037866
H48   H     H_    0.319572 0.763694 0.622976 0.219216
C72   C     C_R   0.418652 0.859126 0.751455 -0.261653
C73   C     C_R   0.236603 0.579117 0.795235 -0.221505
H49   H     H_    0.227500 0.640980 0.829474 0.178765
C74   C     C_R   0.194757 0.497854 0.804945 -0.048806
C75   C     C_R   0.209119 0.418879 0.761922 0.068448
C76   C     C_R   0.262674 0.421955 0.708436 -0.196927
H50   H     H_    0.271978 0.360154 0.674624 0.175505
C77   C     C_R   0.304340 0.503195 0.698495 -0.067204
C78   C     C_R   0.292053 0.583785 0.743626 0.022474
C79   C     C_R   0.213600 0.343643 0.843151 0.496646
C80   C     C_R   0.174729 0.259478 0.850004 -0.233915
H51   H     H_    0.206256 0.266894 0.905433 0.174932
C81   C     C_R   0.094796 0.165146 0.785161 -0.114283
H52   H     H_    0.065355 0.100920 0.790925 0.210303
C82   C     C_R   0.052770 0.153636 0.713079 -0.042917
H53   H     H_    0.990892 0.080410 0.662875 0.201684
C83   C     C_R   0.090155 0.236653 0.705901 -0.189217
H54   H     H_    0.056747 0.226919 0.649887 0.180530
C84   C     C_R   0.170203 0.331886 0.770808 0.059028
Zn5   Zn    Zn3+2 0.041710 0.413240 0.959030 1.040233
Zn6   Zn    Zn3+2 0.866640 0.413270 0.959030 1.055134
Zn7   Zn    Zn3+2 0.040930 0.586780 0.958260 0.964786
Zn8   Zn    Zn3+2 0.041710 0.586770 0.132560 1.026621
O14   O     O_3   0.997750 0.500010 0.002220 -0.512300
O15   O     O_R   0.942690 0.560750 0.179280 -0.638735
O16   O     O_R   0.114340 0.439270 0.886160 -0.638106
O17   O     O_R   0.820160 0.268410 0.886930 -0.640375
O18   O     O_R   0.113800 0.731630 0.056520 -0.643057
O19   O     O_R   0.819390 0.439310 0.886160 -0.636062
O20   O     O_R   0.115110 0.560720 0.179280 -0.634721
O21   O     O_R   0.941380 0.560750 0.885620 -0.651458
O22   O     O_R   0.115110 0.439270 0.057830 -0.632231
O23   O     O_R   0.942690 0.268390 0.886930 -0.610707
O24   O     O_R   0.114340 0.731630 0.178520 -0.649224
O25   O     O_R   0.820160 0.439310 0.057830 -0.568273
O26   O     O_R   0.113800 0.560730 0.885620 -0.649451
C85   C     C_R   0.857045 0.496609 0.142297 0.946376
C86   C     C_R   0.138053 0.499019 0.861064 0.807571
C87   C     C_R   0.857035 0.219191 0.863667 0.886905
C88   C     C_R   0.138454 0.779993 0.141177 0.793030
C89   C     C_R   0.855924 0.498565 0.860841 0.793369
C90   C     C_R   0.140252 0.500506 0.142615 0.922572
N1    N     N_R   0.270756 0.333659 0.159413 0.247314
O27   O     O_R   0.327331 0.308600 0.144832 -0.250848
O28   O     O_R   0.185852 0.258475 0.125335 -0.338109
O29   O     O_3   0.833198 0.102456 0.677435 -0.796666
H55   H     H_    0.806379 0.090918 0.622583 0.344071
N2    N     N_R   0.392399 0.496322 0.191428 0.205463
O30   O     O_R   0.400614 0.466366 0.112863 -0.347247
O31   O     O_R   0.465202 0.557754 0.259407 -0.396497
N3    N     N_R   0.901768 0.096895 0.896811 0.209374
O32   O     O_R   0.893905 0.158042 0.968655 -0.349748
O33   O     O_R   0.956749 0.073892 0.905073 -0.389229
N4    N     N_R   0.555974 0.382781 0.160968 0.263621
O34   O     O_R   0.490721 0.293101 0.091112 -0.245283
O35   O     O_R   0.552153 0.461518 0.189985 -0.351085
O36   O     O_3   0.598824 0.304867 0.200041 -0.681225
H56   H     H_    0.644126 0.291299 0.203334 0.402421
N5    N     N_R   0.680403 0.293307 0.079496 0.242324
O37   O     O_R   0.599971 0.212329 0.024975 -0.323267
O38   O     O_R   0.745854 0.282706 0.070960 -0.343326
O39   O     O_3   0.667655 0.410545 0.075594 -0.730899
H57   H     H_    0.664850 0.471134 0.107314 0.342336
O40   O     O_3   0.739349 0.417995 0.353302 -0.718608
H58   H     H_    0.790495 0.438418 0.395947 0.351627
N6    N     N_R   0.844301 0.404334 0.242946 0.247244
O41   O     O_R   0.786664 0.318241 0.233858 -0.295502
O42   O     O_R   0.918764 0.419718 0.228332 -0.328892
N7    N     N_R   0.176809 0.100193 0.465738 0.198026
O43   O     O_R   0.156037 0.094791 0.394729 -0.384865
O44   O     O_R   0.122074 0.093924 0.511287 -0.389483
N8    N     N_R   0.131838 0.771163 0.784474 0.207840
O45   O     O_R   0.173353 0.734522 0.737691 -0.414002
O46   O     O_R   0.070785 0.768985 0.745365 -0.401003
N9    N     N_R   0.967284 0.813380 0.592900 0.207773
O47   O     O_R   0.986963 0.777253 0.520434 -0.397318
O48   O     O_R   0.982957 0.904523 0.632401 -0.430286
O49   O     O_3   0.169313 0.347811 0.278192 -0.690840
H59   H     H_    0.117217 0.327250 0.299347 0.372298
O50   O     O_3   0.063664 0.355173 0.187753 -0.660669
H60   H     H_    0.076375 0.307269 0.142968 0.412081
O51   O     O_3   0.523503 0.953576 0.897941 -0.722124
H61   H     H_    0.544168 0.010402 0.890757 0.359116
O52   O     O_3   0.292644 0.437699 0.906182 -0.764378
H62   H     H_    0.313658 0.432984 0.952395 0.352192
N10   N     N_R   0.347575 0.681562 0.427098 0.229080
O53   O     O_R   0.277864 0.674679 0.449342 -0.442330
O54   O     O_R   0.426857 0.757380 0.486839 -0.399404

loop_
_geom_bond_atom_site_label_1
_geom_bond_atom_site_label_2
_geom_bond_distance
_ccdc_geom_bond_type
C41   C42   1.418382 A    
C50   H35   1.083198 S    
Zn8   O24   1.930748 S    
C17   C21   1.546316 S    
C7    N2    1.486933 S    
C31   C32   1.394899 A    
O19   C89   1.271476 A    
C3    C77   1.460439 S    
C52   H36   1.083106 S    
C56   C57   1.416159 A    
C80   H51   1.082993 S    
C18   H14   1.113524 S    
O17   C87   1.289738 A    
C52   C53   1.398628 A    
C37   H28   1.084711 S    
C23   C24   1.588585 S    
O52   H62   0.991666 S    
C64   H43   1.082427 S    
C15   H9    1.113375 S    
O24   C88   1.290277 A    
C40   H29   1.085058 S    
C16   O29   1.406716 S    
C49   C54   1.406468 A    
O25   C85   1.275979 A    
C67   O51   1.378782 S    
N6    O42   1.301545 A    
C26   C30   1.568374 S    
C38   C39   1.416924 A    
Zn1   O1    1.948082 S    
C69   C78   1.479133 S    
C80   C81   1.396748 A    
C79   C80   1.409617 A    
C61   C62   1.398916 A    
Zn8   O14   1.954982 S    
C35   C36   1.396633 A    
C64   C65   1.398795 A    
C53   H37   1.082035 S    
Zn5   O22   1.955261 S    
C73   C78   1.388071 A    
C59   C60   1.414340 A    
O8    C5    1.272152 A    
C24   N5    1.484139 S    
C31   C36   1.393364 A    
N2    O30   1.302886 A    
O9    C6    1.286184 A    
C14   H4    1.113867 S    
O7    C6    1.275285 A    
C25   C27   1.558029 S    
O29   H55   0.992853 S    
C57   C58   1.378407 A    
C57   C66   1.482051 S    
C26   H20   1.117202 S    
Zn3   O8    1.953649 S    
C2    C19   1.504380 S    
C55   C60   1.377844 A    
C58   H39   1.084163 S    
C25   C29   1.539470 S    
C24   O39   1.419234 S    
C79   C84   1.410041 A    
C49   H34   1.081628 S    
O26   C86   1.287885 A    
O40   H58   0.992949 S    
C28   C30   1.575764 S    
C47   C48   1.401067 A    
C17   H16   1.112921 S    
C82   H53   1.082344 S    
Zn8   O15   1.944926 S    
C7    C8    1.562022 S    
O18   C88   1.276902 A    
O39   H57   0.988333 S    
O20   C90   1.278838 A    
C43   C44   1.396914 A    
C10   C11   1.587526 S    
Zn2   O12   1.930789 S    
C33   C42   1.484013 S    
Zn7   O26   1.942693 S    
Zn7   O18   1.930687 S    
C16   C20   1.561580 S    
C18   C22   1.548178 S    
C79   O52   1.380819 S    
C8    C12   1.554078 S    
N7    O44   1.301679 A    
H19   C29   1.111094 S    
C50   C51   1.400787 A    
C38   C88   1.451539 S    
Zn7   O14   1.955002 S    
C81   C82   1.396552 A    
C12   C90   1.490605 S    
C10   N10   1.473338 S    
C20   C87   1.505935 S    
H24   C36   1.082706 S    
C37   C38   1.398205 A    
C13   O50   1.409399 S    
H11   C17   1.110689 S    
Zn7   O21   1.953954 S    
C23   C27   1.603615 S    
C15   C16   1.556186 S    
C40   C41   1.395517 A    
C9    O49   1.405207 S    
Zn5   O23   1.932389 S    
O2    C1    1.290952 A    
C17   C19   1.552075 S    
H18   C25   1.104564 S    
N3    O33   1.301303 A    
N6    O41   1.300747 A    
N9    O48   1.301010 A    
C30   H21   1.116050 S    
C18   C19   1.551614 S    
O10   C3    1.274802 A    
C71   H48   1.080727 S    
C39   C40   1.379914 A    
C33   C34   1.422333 A    
C18   H13   1.113718 S    
C32   H26   1.083465 S    
Zn6   O19   1.953504 S    
C44   H31   1.082232 S    
C74   C86   1.461525 S    
O49   H59   0.993273 S    
C75   C84   1.479386 S    
H12   C21   1.113287 S    
C8    H1    1.113351 S    
C34   C35   1.409301 A    
C10   C14   1.552620 S    
O6    C5    1.282032 A    
C20   C21   1.556457 S    
C23   O36   1.416491 S    
C20   C22   1.576502 S    
C12   C14   1.551460 S    
Zn1   O9    1.955363 S    
C68   C69   1.403645 A    
H45   C72   1.082993 S    
C6    C11   1.503654 S    
N4    O34   1.302015 A    
C26   C27   1.572444 S    
Zn3   O5    1.944566 S    
C69   C70   1.402749 A    
C34   N7    1.443261 S    
C65   C66   1.403969 A    
C44   C45   1.406020 A    
O15   C85   1.285857 A    
C24   C28   1.605421 S    
C68   H46   1.083564 S    
N9    O47   1.301675 A    
Zn5   O14   1.948082 S    
O50   H60   0.988756 S    
C47   H33   1.083161 S    
C7    N1    1.488278 S    
O23   C87   1.284027 A    
C45   C46   1.406772 A    
O4    C3    1.287142 A    
C74   C75   1.417302 A    
Zn4   O7    1.951800 S    
C46   C47   1.397480 A    
C61   C66   1.405387 A    
N8    O45   1.300503 A    
C63   H42   1.082476 S    
C62   C63   1.397649 A    
C32   C33   1.405320 A    
O16   C86   1.274340 A    
Zn4   O2    1.930793 S    
C5    C59   1.444794 S    
O21   C89   1.282430 A    
C9    C13   1.558809 S    
C28   C29   1.563100 S    
Zn6   O14   1.955852 S    
O3    C2    1.287305 A    
C70   H47   1.083175 S    
C76   C77   1.399332 A    
Zn2   O1    1.954854 S    
C83   C84   1.402670 A    
C16   H10   1.116182 S    
Zn2   O6    1.954056 S    
C15   H8    1.113151 S    
C54   N9    1.439258 S    
C70   C71   1.397307 A    
C67   C68   1.399868 A    
C25   H22   1.113920 S    
C71   C72   1.396881 A    
N7    O43   1.300824 A    
N10   O54   1.301706 A    
N4    O35   1.299439 A    
C49   C50   1.396860 A    
Zn1   O3    1.932490 S    
Zn2   O4    1.942648 S    
Zn6   O17   1.928530 S    
C13   H7    1.113560 S    
C31   H25   1.082496 S    
Zn3   O1    1.955851 S    
C30   N6    1.475066 S    
C28   C85   1.487502 S    
C62   H41   1.082045 S    
C22   H15   1.110882 S    
C73   C74   1.396910 A    
C63   C64   1.398014 A    
C8    H2    1.109565 S    
C29   H23   1.114145 S    
C61   H40   1.083115 S    
C1    C41   1.449717 S    
Zn8   O20   1.951796 S    
C43   C48   1.401488 A    
C77   C78   1.417914 A    
C39   C48   1.477055 S    
C12   C13   1.560408 S    
Zn4   O11   1.944929 S    
C55   C56   1.399284 A    
C51   C60   1.478494 S    
C22   N3    1.474400 S    
C26   O40   1.406209 S    
C23   N4    1.483616 S    
C10   H3    1.107594 S    
N8    O46   1.299937 A    
C81   H52   1.082100 S    
Zn6   O25   1.944566 S    
C35   H27   1.082931 S    
O5    C4    1.289948 A    
O51   H61   0.991598 S    
C65   H44   1.083048 S    
C58   C59   1.397595 A    
C53   C54   1.407729 A    
C9    H6    1.112942 S    
O22   C90   1.277226 A    
Zn4   O1    1.954982 S    
C9    C11   1.567201 S    
O13   C2    1.287199 A    
N2    O31   1.301719 A    
Zn3   O13   1.928530 S    
C14   H5    1.112026 S    
C82   C83   1.396109 A    
C46   H32   1.082712 S    
C7    C11   1.614695 S    
C83   H54   1.083185 S    
C4    C27   1.492395 S    
C37   C42   1.382317 A    
C73   H49   1.083927 S    
Zn5   O16   1.945980 S    
N5    O37   1.301930 A    
O11   C4    1.274532 A    
C67   C72   1.408613 A    
O12   C1    1.275045 A    
O36   H56   0.984643 S    
C55   H38   1.084940 S    
C51   C52   1.402040 A    
C56   C89   1.444048 S    
N1    O27   1.303021 A    
C76   H50   1.085037 S    
N3    O32   1.301295 A    
Zn1   O10   1.946082 S    
N1    O28   1.301579 A    
C43   H30   1.083223 S    
C75   C76   1.387803 A    
C45   N8    1.436865 S    
N10   O53   1.301873 A    
C21   H17   1.108705 S    
C15   C19   1.549187 S    
N5    O38   1.300527 A    
