data_mof_unit_13309.cif
_audit_creation_date              2013-03-05T16:13:08-0500
_audit_creation_method            fapswitch 2.2
_symmetry_space_group_name_H-M    P1
_symmetry_Int_Tables_number       1
_space_group_crystal_system       triclinic
_cell_length_a                    8.211959
_cell_length_b                    16.187661
_cell_length_c                    18.737819
_cell_angle_alpha                 111.44897
_cell_angle_beta                  91.603741
_cell_angle_gamma                 83.792527
_cell_volume                      2304.58275029

loop_
_atom_site_label
_atom_site_type_symbol
_atom_site_description
_atom_site_fract_x
_atom_site_fract_y
_atom_site_fract_z
_atom_type_partial_charge
P1    P     P_3+3 0.582960 0.413890 0.320860 0.484457
O1    O     O_2   0.402610 0.439360 0.314250 -0.354347
O2    O     O_3   0.648560 0.446300 0.404730 -0.395485
O3    O     O_3   0.108870 0.604000 0.387500 -0.371585
O4    O     O_2   0.249885 0.537768 0.250619 -0.367289
O5    O     O_3   0.600097 0.296749 0.280215 -0.561532
O6    O     O_3   0.116105 0.701099 0.288588 -0.540194
H1    H     H_    0.110108 0.770599 0.405727 0.149446
C1    C     C_3   0.036414 0.857296 0.344351 -1.000704
H2    H     H_    0.162165 0.870100 0.334115 0.292012
H3    H     H_    0.958216 0.857921 0.295185 0.258103
P2    P     P_3+3 0.071690 0.707860 0.593450 0.467122
P3    P     P_3+3 0.495214 0.765719 0.450898 0.419019
O7    O     O_2   0.241370 0.719440 0.573960 -0.371394
O8    O     O_3   0.507090 0.652150 0.432150 -0.374519
O9    O     O_2   0.349530 0.811704 0.506771 -0.408743
O10   O     O_3   0.074108 0.740479 0.693380 -0.528144
O11   O     O_3   0.441744 0.784337 0.366594 -0.504633
C2    C     C_3   0.529155 0.718000 0.304975 0.411979
H4    H     H_    0.482266 0.652443 0.292988 0.145861
H5    H     H_    0.662271 0.712466 0.316786 0.027821
C3    C     C_3   0.505898 0.742102 0.233904 -0.964948
H6    H     H_    0.374192 0.745579 0.218940 0.288326
H7    H     H_    0.551061 0.807790 0.244593 0.263109
C4    C     C_3   0.622204 0.737086 0.661974 0.281071
H8    H     H_    0.753915 0.721284 0.647562 0.095092
H9    H     H_    0.549637 0.708903 0.609363 0.106544
C5    C     C_3   0.577589 0.838482 0.693125 -0.122388
H10   H     H_    0.595486 0.864427 0.647030 0.059033
H11   H     H_    0.445758 0.853445 0.709868 0.145501
Ba1   Ba    Ba6+2 0.333520 0.539550 0.472180 1.474314
C6    C     C_3   0.611446 0.258079 0.336328 0.475350
H12   H     H_    0.487476 0.253084 0.353814 -0.008848
H13   H     H_    0.675957 0.296030 0.388307 0.161057
C7    C     C_3   0.701775 0.164739 0.301947 -0.907825
H14   H     H_    0.629998 0.121115 0.254893 0.238130
H15   H     H_    0.722776 0.134932 0.346438 0.223856
H16   H     H_    0.822316 0.167680 0.278337 0.295835
C8    C     C_3   0.146286 0.669793 0.713408 0.481835
H17   H     H_    0.272283 0.649678 0.689740 0.075726
H18   H     H_    0.073324 0.611885 0.692054 0.119525
C9    C     C_3   0.152899 0.700958 0.800400 -0.930611
H19   H     H_    0.232946 0.755734 0.822972 0.275426
H20   H     H_    0.202150 0.645216 0.818376 0.201144
H21   H     H_    0.027827 0.725474 0.825227 0.277446
P4    P     P_3+3 0.606720 0.586180 0.679160 0.479186
O12   O     O_2   0.787080 0.560670 0.685800 -0.360849
O13   O     O_3   0.541120 0.553770 0.595290 -0.391349
O14   O     O_3   0.080800 0.396070 0.612520 -0.332355
O15   O     O_3   0.586678 0.703164 0.717890 -0.549516
P5    P     P_3+3 0.697021 0.231480 0.542447 0.447341
O16   O     O_3   0.164600 0.390590 0.443970 -0.353039
O17   O     O_3   0.682580 0.347920 0.567870 -0.343892
O18   O     O_2   0.855639 0.192425 0.494246 -0.362292
O19   O     O_3   0.743456 0.204828 0.624092 -0.541973
Ba2   Ba    Ba6+2 0.856270 0.460520 0.527840 1.425114
P6    P     P_3+3 0.095518 0.596390 0.292626 0.458335
C10   C     C_3   0.039915 0.767556 0.353498 0.511984
H22   H     H_    0.912059 0.755272 0.360414 0.003831
H23   H     H_    0.986173 0.911353 0.397159 0.222708
O20   O     O_3   0.025080 0.609480 0.556050 -0.394952
C11   C     C_3   0.203088 0.249103 0.250305 0.868097
H24   H     H_    0.296476 0.292514 0.281272 0.019881
C12   C     C_3   0.278713 0.151549 0.219259 -1.050420
H25   H     H_    0.183300 0.106343 0.192546 0.287768
H26   H     H_    0.375425 0.142279 0.175923 0.267623
H27   H     H_    0.336412 0.132623 0.265744 0.209164
P7    P     P_3+3 0.122526 0.279497 0.393292 0.437091
O21   O     O_2   0.948320 0.280590 0.426090 -0.321994
O22   O     O_3   0.067495 0.259222 0.297669 -0.581075
H28   H     H_    0.575644 0.690862 0.184864 0.223558
C13   C     C_3   0.618303 0.241933 0.680421 1.114148
H29   H     H_    0.502312 0.265251 0.658225 -0.707310
C14   C     C_3   0.677716 0.321230 0.744055 -0.685706
H30   H     H_    0.698295 0.374323 0.722288 0.239492
H31   H     H_    0.585746 0.346019 0.790853 0.184468
H32   H     H_    0.791679 0.300426 0.768821 0.264070
P8    P     P_3+3 0.092880 0.406062 0.708009 0.458091
C15   C     C_3   0.178195 0.238032 0.677666 0.395224
H33   H     H_    0.277740 0.243643 0.719870 0.108442
O23   O     O_2   0.944222 0.470543 0.749695 -0.383300
O24   O     O_3   0.050385 0.304440 0.712177 -0.495625
H34   H     H_    0.224929 0.242487 0.624096 0.100966
H35   H     H_    0.217138 0.092997 0.641139 0.189835
C16   C     C_3   0.114933 0.147016 0.656958 -0.834436
H36   H     H_    0.033064 0.134312 0.606856 0.289645
H37   H     H_    0.046997 0.144133 0.706323 0.277112
C17   C     C_R   0.506971 0.464375 0.042779 0.062951
C18   C     C_R   0.429364 0.418614 0.081043 0.028405
C19   C     C_R   0.286872 0.379135 0.050057 -0.112743
C20   C     C_R   0.221730 0.384709 0.982162 -0.178046
C21   C     C_R   0.300253 0.428064 0.942585 0.155723
C22   C     C_R   0.443248 0.468347 0.972825 0.004586
C23   C     C_R   0.240865 0.428544 0.871965 -0.236981
C24   C     C_R   0.325846 0.465565 0.828544 -0.017161
C25   C     C_R   0.465870 0.509899 0.860064 0.038966
C26   C     C_R   0.523925 0.510919 0.932497 -0.052715
C27   C     C_R   0.280780 0.454963 0.752737 0.160352
C28   C     C_R   0.374526 0.487417 0.709376 -0.482260
C29   C     C_R   0.505993 0.536734 0.740718 0.277319
C30   C     C_R   0.552821 0.548861 0.817650 -0.082125
C31   C     C_R   0.649830 0.504261 0.073408 -0.006579
C32   C     C_R   0.710822 0.502460 0.144654 -0.012932
C33   C     C_R   0.628445 0.459379 0.185183 -0.023294
C34   C     C_R   0.493726 0.413456 0.149826 -0.057700
H38   H     H_    0.225310 0.343780 0.078175 0.219610
H39   H     H_    0.111499 0.353405 0.959772 0.154492
H40   H     H_    0.338976 0.478291 0.651171 0.182756
H41   H     H_    0.131854 0.396204 0.850064 0.182357
H42   H     H_    0.434689 0.374960 0.175978 0.173560
C35   C     C_R   0.687855 0.594898 0.852514 -0.116302
C36   C     C_R   0.748712 0.593051 0.922897 0.168057
C37   C     C_R   0.667343 0.550455 0.962876 0.023899
C38   C     C_R   0.730489 0.546930 0.033088 0.029408
C39   C     C_R   0.893133 0.631107 0.952993 -0.246488
C40   C     C_R   0.956499 0.626771 0.021742 -0.127265
C41   C     C_R   0.875550 0.585332 0.062415 0.049922
C42   C     C_R   0.854145 0.543808 0.174987 -0.033256
C43   C     C_R   0.937213 0.582545 0.132114 -0.196017
C44   C     C_R   0.908767 0.546184 0.247803 0.247222
C45   C     C_R   0.820228 0.509353 0.289671 -0.363449
C46   C     C_R   0.682619 0.464892 0.259865 0.209565
H43   H     H_    0.751330 0.629753 0.824325 0.173957
H44   H     H_    0.958476 0.663341 0.922874 0.150849
H45   H     H_    0.068831 0.656212 0.043275 0.136238
H46   H     H_    0.049744 0.611750 0.152488 0.181483
H47   H     H_    0.862633 0.512708 0.345757 0.183944
C47   C     C_2   0.390371 0.233926 0.478224 -0.403227
C48   C     C_R   0.800699 0.750440 0.514628 -0.559569
C49   C     C_2   0.244578 0.111721 0.391937 -0.280364
C50   C     C_2   0.258600 0.199412 0.422452 0.243005
C51   C     C_2   0.519977 0.179597 0.486060 0.152205
C52   C     C_3   0.532133 0.081458 0.434951 -0.002646
C53   C     C_3   0.362698 0.046863 0.412828 0.069155
C54   C     C_2   0.651202 0.022168 0.462755 -0.148818
C55   C     C_2   0.605165 0.957116 0.483630 -0.207502
C56   C     C_R   0.868246 0.924656 0.543906 -0.030052
C57   C     C_R   0.722930 0.895627 0.506310 0.014931
C58   C     C_R   0.974881 0.868463 0.569595 -0.231391
C59   C     C_R   0.940466 0.781093 0.555327 0.346246
C60   C     C_R   0.687845 0.808195 0.493412 0.181024
H48   H     H_    0.146976 0.086621 0.352173 0.153273
H49   H     H_    0.083048 0.893352 0.600853 0.171971
H50   H     H_    0.386354 0.305376 0.509318 0.171866
H51   H     H_    0.774995 0.682720 0.503491 0.184513
H52   H     H_    0.780095 0.031063 0.462479 0.173522
H53   H     H_    0.476494 0.947883 0.483312 0.188887
N1    N     N_R   0.675649 0.885262 0.759125 0.280158
O25   O     O_R   0.784583 0.842448 0.788272 -0.333076
O26   O     O_R   0.652766 0.971878 0.789707 -0.340283
N2    N     N_R   0.146347 0.277518 0.187427 0.225750
O27   O     O_R   0.130086 0.219945 0.118351 -0.408899
O28   O     O_R   0.089746 0.360396 0.203030 -0.447503
O29   O     O_3   0.586407 0.180557 0.714815 -0.623067
C61   C     C_3   0.556493 0.097920 0.659205 -0.144788
H54   H     H_    0.674918 0.058135 0.637665 0.195131
H55   H     H_    0.481426 0.105199 0.611119 0.098469
H56   H     H_    0.489858 0.061131 0.686689 0.186734

loop_
_geom_bond_atom_site_label_1
_geom_bond_atom_site_label_2
_geom_bond_distance
_ccdc_geom_bond_type
O5    C6    1.403328 S    
C34   H42   1.079578 S    
C61   H55   1.112037 S    
Ba1   O20   2.910056 S    
C24   C25   1.420047 A    
Ba1   O16   2.787152 S    
C24   C27   1.410718 A    
C54   C55   1.341797 D    
C8    H18   1.109748 S    
C16   H36   1.108599 S    
C40   C41   1.404060 A    
C4    C5    1.533060 S    
C28   H40   1.081774 S    
C56   C58   1.396534 A    
C14   H31   1.102067 S    
P3    O11   1.749210 S    
C21   C22   1.408304 A    
C5    H10   1.108936 S    
C2    H5    1.109838 S    
N1    O26   1.300411 A    
C45   H47   1.081912 S    
C41   C43   1.401876 A    
C33   C46   1.430561 A    
C39   C40   1.398525 A    
P1    Ba1   3.402802 S    
O14   P8    1.737621 S    
C11   O22   1.401390 S    
P1    O1    1.507912 D    
O10   C8    1.398708 S    
C42   C43   1.412631 A    
C33   C34   1.411424 A    
C11   C12   1.534324 S    
H1    C10   1.109849 S    
C4    O15   1.398902 S    
C58   H49   1.081706 S    
C2    H4    1.110896 S    
C51   C52   1.519627 S    
C14   H32   1.107446 S    
P2    O10   1.749975 S    
P8    C27   1.848390 S    
N2    O27   1.302585 A    
P2    C59   1.837624 S    
P3    C60   1.836791 S    
Ba1   Ba2   4.513650 S    
C1    H2    1.110218 S    
O7    Ba1   2.869180 S    
O6    C10   1.402928 S    
C48   H51   1.081706 S    
O19   C13   1.412325 S    
O16   P7    1.766979 S    
O3    Ba1   2.764070 S    
C25   C30   1.426537 A    
C61   H56   1.108978 S    
C49   C53   1.501834 S    
C9    H20   1.107692 S    
C47   C51   1.345755 D    
C36   C37   1.410173 A    
C8    C9    1.521203 S    
C16   H37   1.111353 S    
P4    O13   1.563948 S    
C5    N1    1.463740 S    
C13   O29   1.416011 S    
C11   N2    1.461546 S    
C35   H43   1.079825 S    
P1    O5    1.757171 S    
C55   H53   1.082597 S    
C6    C7    1.523388 S    
C20   H39   1.083822 S    
C7    H16   1.108130 S    
N1    O25   1.301637 A    
C19   H38   1.076448 S    
C13   C14   1.513606 S    
C14   H30   1.106873 S    
C20   C21   1.401284 A    
O11   C2    1.405138 S    
C4    H8    1.101921 S    
O1    Ba1   2.845071 S    
P1    O2    1.563948 S    
C7    H14   1.108621 S    
C6    H13   1.100261 S    
O3    P6    1.737636 S    
P7    C50   1.843468 S    
C12   H27   1.103511 S    
C11   H24   1.100948 S    
C31   C38   1.412519 A    
C1    H3    1.110633 S    
O2    Ba2   2.785700 S    
P8    O24   1.747448 S    
C28   C29   1.398479 A    
P5    C51   1.861339 S    
C54   H52   1.083937 S    
C25   C26   1.420823 A    
C2    C3    1.520466 S    
C21   C23   1.399824 A    
C45   C46   1.397677 A    
C23   C24   1.409585 A    
P4    O12   1.508205 D    
H35   C16   1.105711 S    
O2    Ba1   2.917573 S    
C47   H50   1.085489 S    
O29   C61   1.404592 S    
P6    C44   1.848255 S    
C55   C57   1.478105 S    
P2    O7    1.498375 D    
Ba2   O21   2.869353 S    
C40   H45   1.083736 S    
P3    O8    1.733068 S    
P2    Ba1   3.418851 S    
C52   C53   1.545269 S    
C3    H7    1.110732 S    
C32   C42   1.418090 A    
C4    H9    1.109989 S    
C9    H19   1.110598 S    
P4    Ba2   3.403310 S    
C47   C50   1.488504 S    
C22   C26   1.411544 A    
C3    H28   1.108921 S    
C15   C16   1.525552 S    
C44   C45   1.402614 A    
C37   C38   1.418913 A    
O17   Ba2   2.746159 S    
O13   Ba2   2.918335 S    
P4    C29   1.878063 S    
C17   C22   1.418492 A    
C1    C10   1.520934 S    
C39   H44   1.082380 S    
C35   C36   1.406641 A    
C7    H15   1.107108 S    
C3    H6    1.110396 S    
P7    O21   1.568538 D    
C13   H29   1.112477 S    
C57   C60   1.406652 A    
C15   O24   1.400340 S    
C17   C31   1.406294 A    
C58   C59   1.399038 A    
O8    Ba1   2.745568 S    
C30   C35   1.412056 A    
O14   Ba2   2.763470 S    
C56   C57   1.404717 A    
P4    O15   1.753293 S    
C23   H41   1.080516 S    
O4    P6    1.541575 D    
Ba1   O13   2.785161 S    
C1    H23   1.107509 S    
C12   H25   1.110908 S    
P5    O18   1.543449 D    
C5    H11   1.111675 S    
C49   C50   1.339135 D    
C10   H22   1.109208 S    
C6    H12   1.098246 S    
C15   H34   1.113813 S    
P2    O20   1.573022 S    
P8    O23   1.539957 D    
C19   C20   1.395788 A    
C48   C59   1.393761 A    
C29   C30   1.429266 A    
O6    P6    1.750371 S    
P5    O19   1.756839 S    
N2    O28   1.298963 A    
C31   C32   1.421885 A    
C49   H48   1.085463 S    
C42   C44   1.412578 A    
C38   C41   1.407523 A    
C15   H33   1.108691 S    
C8    H17   1.104751 S    
C43   H46   1.079792 S    
O16   Ba2   2.909293 S    
C48   C60   1.398143 A    
C17   C18   1.408913 A    
P7    O22   1.754721 S    
C27   C28   1.401230 A    
P3    O9    1.545639 D    
C18   C34   1.406583 A    
C32   C33   1.427873 A    
C52   C54   1.510926 S    
Ba2   O20   2.786622 S    
P5    O17   1.758386 S    
C18   C19   1.402514 A    
C61   H54   1.104466 S    
C26   C37   1.407033 A    
C9    H21   1.110130 S    
C36   C39   1.403769 A    
P1    C46   1.883137 S    
C12   H26   1.110790 S    
O12   Ba2   2.845572 S    
