data_mof_unit_33236.cif
_audit_creation_date              2012-12-11T15:35:31-0500
_audit_creation_method            fapswitch 2.2
_symmetry_space_group_name_H-M    P1
_symmetry_Int_Tables_number       1
_space_group_crystal_system       triclinic
_cell_length_a                    17.436997
_cell_length_b                    24.288369
_cell_length_c                    14.890528
_cell_angle_alpha                 89.952244
_cell_angle_beta                  124.996574
_cell_angle_gamma                 90.019252
_cell_volume                      5166.09855412

loop_
_atom_site_label
_atom_site_type_symbol
_atom_type_description
_atom_site_fract_x
_atom_site_fract_y
_atom_site_fract_z
_atom_type_partial_charge
C1    C     C_R   0.345129 0.149585 0.908563 0.033270
C2    C     C_R   0.554604 0.153483 0.910747 0.856831
C3    C     C_R   0.248615 0.544184 0.309882 0.610982
C4    C     C_R   0.096754 0.375672 0.907333 0.740900
C5    C     C_R   0.096917 0.624085 0.907238 0.739643
C6    C     C_R   0.552903 0.000021 0.726603 -0.214698
C7    C     C_R   0.957485 0.500091 0.642426 -0.120974
C8    C     C_R   0.826645 0.000791 0.280288 -0.056294
C9    C     C_R   0.294251 0.498199 0.373290 0.054952
C10   C     C_R   0.609987 0.185159 0.000953 -0.199415
C11   C     C_R   0.608989 0.814466 0.001272 -0.213369
C12   C     C_R   0.187605 0.635149 0.995263 -0.232541
C13   C     C_R   0.345663 0.850189 0.908797 0.027393
C14   C     C_R   0.187266 0.364372 0.995453 -0.239527
C15   C     C_3   0.080906 0.944486 0.457964 0.899841
C16   C     C_3   0.047378 0.002219 0.574514 0.894663
C17   C     C_3   0.541870 0.536771 0.620632 0.826409
C18   C     C_3   0.544482 0.520322 0.452767 1.042265
C19   C     C_3   0.973756 0.943490 0.372897 0.476318
C20   C     C_3   0.944531 0.011712 0.477534 0.345436
C21   C     C_3   0.433845 0.540152 0.539808 0.543414
C22   C     C_3   0.437325 0.511916 0.378228 0.233123
C23   C     C_3   0.084963 0.049694 0.450122 1.088702
C24   C     C_R   0.810551 0.625153 0.909669 0.027615
C25   C     C_3   0.543152 0.438410 0.559708 1.036382
C26   C     C_3   0.109811 0.999022 0.528747 -0.864326
C27   C     C_3   0.582524 0.498601 0.570415 -0.852634
C28   C     C_3   0.930183 0.000652 0.365347 -0.770357
C29   C     C_3   0.398216 0.496892 0.447481 -0.866868
C30   C     C_R   0.430678 0.851658 0.091867 -0.041848
C31   C     C_R   0.430128 0.148048 0.091751 -0.038171
C32   C     C_R   0.904507 0.374229 0.094194 -0.011308
C33   C     C_R   0.904792 0.626070 0.094268 -0.010693
C34   C     C_3   0.985061 0.043828 0.344197 1.276528
C35   C     C_R   0.810524 0.374916 0.909570 0.041809
C36   C     C_3   0.436885 0.439246 0.501828 1.331266
C37   C     C_R   0.251035 0.745267 0.898238 0.323741
C38   C     C_R   0.249884 0.254014 0.898148 0.324865
C39   C     C_R   0.676563 0.328057 0.986308 0.406601
C40   C     C_R   0.678694 0.671609 0.991669 0.398068
C41   C     C_R   0.624384 0.284275 0.984596 0.499143
C42   C     C_R   0.625951 0.715221 0.989287 0.499908
C43   C     C_R   0.227197 0.690694 0.890012 0.510429
C44   C     C_R   0.226115 0.308558 0.890016 0.513617
C45   C     C_R   0.660931 0.230967 0.001751 -0.264452
C46   C     C_R   0.641269 0.153134 0.090995 0.516030
C47   C     C_R   0.660384 0.768830 0.002176 -0.263102
C48   C     C_R   0.259070 0.661732 0.985876 -0.266305
C49   C     C_R   0.258317 0.337401 0.986023 -0.281630
C50   C     C_R   0.746937 0.220018 0.017515 0.414888
C51   C     C_R   0.744767 0.780169 0.014106 0.410878
C52   C     C_R   0.348739 0.674016 0.077766 0.473697
C53   C     C_R   0.348019 0.324995 0.077726 0.471790
C54   C     C_R   0.388591 0.725161 0.082366 0.396525
C55   C     C_R   0.387997 0.274106 0.081748 0.377086
C56   C     C_R   0.798348 0.263354 0.018558 0.415601
C57   C     C_R   0.640487 0.846689 0.091055 0.560907
C58   C     C_R   0.796341 0.736995 0.014854 0.408484
C59   C     C_R   0.334175 0.764021 0.996034 -0.307283
C60   C     C_R   0.333298 0.235333 0.995669 -0.306434
C61   C     C_R   0.763288 0.317027 0.004512 -0.385549
C62   C     C_R   0.763298 0.683089 0.004778 -0.381828
C63   C     C_R   0.619292 0.950647 0.637611 0.744225
C64   C     C_R   0.619192 0.049380 0.637388 0.742383
C65   C     C_R   0.035974 0.450267 0.568762 0.677603
C66   C     C_R   0.034881 0.550239 0.567787 0.681100
C67   C     C_R   0.616781 0.950319 0.542834 0.586297
C68   C     C_R   0.188456 0.625165 0.088989 0.444689
C69   C     C_R   0.616762 0.049676 0.542662 0.597745
C70   C     C_R   0.084817 0.450879 0.521766 0.614843
C71   C     C_R   0.083669 0.549868 0.520700 0.610409
C72   C     C_R   0.601708 0.999989 0.485841 -0.528708
C73   C     C_R   0.093437 0.500354 0.480536 -0.416629
C74   C     C_R   0.546502 0.045537 0.302710 -0.033989
C75   C     C_R   0.546531 0.954432 0.302779 -0.047125
C76   C     C_R   0.050505 0.545530 0.304010 -0.059150
C77   C     C_R   0.050029 0.454626 0.304068 -0.067730
C78   C     C_R   0.602202 0.000017 0.672278 -0.488737
C79   C     C_R   0.188130 0.374425 0.089138 0.461753
C80   C     C_R   0.005419 0.500177 0.587307 -0.578451
C81   C     C_R   0.255886 0.953534 0.691510 0.544335
C82   C     C_R   0.256235 0.045130 0.689988 0.485691
C83   C     C_R   0.743144 0.453639 0.699236 0.458740
C84   C     C_R   0.741430 0.545469 0.698431 0.484086
C85   C     C_R   0.364715 0.178663 0.999751 0.169925
C86   C     C_R   0.365515 0.820874 0.000039 0.171933
C87   C     C_R   0.817253 0.639724 0.003506 0.188947
C88   C     C_R   0.817051 0.360507 0.003341 0.182184
C89   C     C_R   0.564078 0.999978 0.368216 0.245913
C90   C     C_R   0.554081 0.846328 0.911030 0.855474
C91   C     C_R   0.069562 0.500148 0.369397 0.184857
C92   C     C_R   0.212065 0.999039 0.623646 0.066346
C93   C     C_R   0.688025 0.499188 0.641500 0.082837
C94   C     C_R   0.518251 0.045413 0.750027 0.766861
C95   C     C_R   0.518384 0.954614 0.750226 0.772227
C96   C     C_R   0.958321 0.544999 0.699648 0.804430
C97   C     C_R   0.958780 0.455121 0.699855 0.805428
C98   C     C_R   0.768818 0.954758 0.249295 0.675333
C99   C     C_R   0.768687 0.046228 0.253071 0.815587
C100  C     C_R   0.246010 0.453924 0.308001 0.850869
Cl1   Cl    Cl    0.165921 0.787627 0.789135 -0.342436
Cl2   Cl    Cl    0.785289 0.848610 0.025244 -0.353009
Cl3   Cl    Cl    0.414857 0.622216 0.176330 -0.356333
Cl4   Cl    Cl    0.414241 0.376225 0.176994 -0.229146
Cl5   Cl    Cl    0.505596 0.736810 0.193641 -0.361287
Cl6   Cl    Cl    0.505561 0.262738 0.191807 -0.354522
Cl7   Cl    Cl    0.905243 0.249756 0.033620 -0.386387
Cl8   Cl    Cl    0.901290 0.750952 0.025602 -0.391533
Cl9   Cl    Cl    0.287002 0.894467 0.650530 -0.367293
Cl10  Cl    Cl    0.277030 0.106783 0.645235 -0.323520
Cl11  Cl    Cl    0.745858 0.390214 0.644006 -0.293612
Cl12  Cl    Cl    0.164735 0.211635 0.789270 -0.319366
Cl13  Cl    Cl    0.736704 0.609440 0.639890 -0.284105
Cl14  Cl    Cl    0.671708 0.182109 0.215448 -0.346514
Cl15  Cl    Cl    0.673239 0.818632 0.217306 -0.390386
Cl16  Cl    Cl    0.261120 0.659552 0.214498 -0.413469
Cl17  Cl    Cl    0.258738 0.338954 0.213703 -0.322022
Cl18  Cl    Cl    0.141824 0.937355 0.393559 -0.245246
Cl19  Cl    Cl    0.081189 0.053765 0.678398 -0.333323
Cl20  Cl    Cl    0.577240 0.513296 0.753956 -0.329217
Cl21  Cl    Cl    0.600997 0.489047 0.395363 -0.232081
Cl22  Cl    Cl    0.633726 0.396191 0.965135 -0.328837
Cl23  Cl    Cl    0.639480 0.603089 0.978574 -0.347863
Cl24  Cl    Cl    0.513724 0.295820 0.959896 -0.416796
Cl25  Cl    Cl    0.516936 0.703058 0.968478 -0.424871
Cl26  Cl    Cl    0.191236 0.655468 0.768420 -0.283814
Cl27  Cl    Cl    0.191057 0.343941 0.768807 -0.273010
Cl28  Cl    Cl    0.789667 0.151810 0.032817 -0.374271
F1    F     F_    0.100751 0.897859 0.521343 -0.549870
F2    F     F_    0.086801 0.097979 0.500922 -0.518629
F3    F     F_    0.583485 0.412886 0.660733 -0.606407
F4    F     F_    0.561298 0.406026 0.497268 -0.509994
F5    F     F_    0.989207 0.026614 0.258238 -0.546724
F6    F     F_    0.944005 0.095258 0.315222 -0.489529
F7    F     F_    0.414150 0.428581 0.575540 -0.513496
F8    F     F_    0.400438 0.396664 0.426313 -0.504865
F9    F     F_    0.638925 0.902999 0.694274 -0.505058
F10   F     F_    0.638608 0.097059 0.693767 -0.503092
F11   F     F_    0.016209 0.400272 0.590698 -0.475823
F12   F     F_    0.052812 0.952724 0.624482 -0.611329
F13   F     F_    0.014090 0.600104 0.588946 -0.479157
F14   F     F_    0.627024 0.901308 0.507510 -0.577829
F15   F     F_    0.627053 0.098675 0.507220 -0.567013
F16   F     F_    0.114604 0.402361 0.506864 -0.535357
F17   F     F_    0.112386 0.598573 0.504866 -0.544310
F18   F     F_    0.515319 0.097988 0.719166 -0.530958
F19   F     F_    0.515896 0.901996 0.719980 -0.532213
F20   F     F_    0.912275 0.592532 0.650731 -0.488294
F21   F     F_    0.914276 0.407249 0.651337 -0.480930
F22   F     F_    0.795160 0.901706 0.261126 -0.602995
F23   F     F_    0.574750 0.590217 0.636171 -0.594573
F24   F     F_    0.795653 0.098563 0.284764 -0.506226
F25   F     F_    0.232402 0.407885 0.348822 -0.561822
F26   F     F_    0.245275 0.592099 0.353972 -0.582546
F27   F     F_    0.489676 0.825550 0.810231 -0.547424
F28   F     F_    0.490154 0.174393 0.810011 -0.544851
F29   F     F_    0.054783 0.358519 0.803170 -0.553856
F30   F     F_    0.055103 0.640887 0.802828 -0.558091
F31   F     F_    0.561110 0.576242 0.455745 -0.560678
F32   F     F_    0.949332 0.925718 0.270991 -0.477948
F33   F     F_    0.916561 0.064860 0.479777 -0.489723
F34   F     F_    0.389962 0.533881 0.592910 -0.495302
F35   F     F_    0.412357 0.471652 0.300214 -0.556588
F36   F     F_    0.148906 0.055034 0.423510 -0.541897
H1    H     H_    0.313630 0.165619 0.827092 0.217671
H2    H     H_    0.466360 0.159100 0.176926 0.191246
H3    H     H_    0.933539 0.364829 0.178946 0.152749
H4    H     H_    0.933981 0.635513 0.179020 0.149259
H5    H     H_    0.561389 0.088128 0.326578 0.216035
H6    H     H_    0.561451 0.911837 0.326760 0.214540
H7    H     H_    0.066313 0.588044 0.328462 0.230018
H8    H     H_    0.064933 0.412072 0.328655 0.234859
H9    H     H_    0.314337 0.834222 0.827353 0.219615
H10   H     H_    0.753011 0.633812 0.826423 0.200705
H11   H     H_    0.753218 0.366072 0.826301 0.206244
H12   H     H_    0.945729 0.912987 0.402782 0.201786
H13   H     H_    0.899300 0.983407 0.487012 0.143195
H14   H     H_    0.414965 0.581888 0.502159 0.197600
H15   H     H_    0.405337 0.550889 0.332389 0.186083
H16   H     H_    0.467139 0.840579 0.177079 0.191287
N1    N     N_R   0.392140 0.102630 0.941800 -0.083085
N2    N     N_R   0.525160 0.972040 0.206160 -0.076500
N3    N     N_R   0.025160 0.527960 0.206160 -0.091184
N4    N     N_R   0.025160 0.472040 0.206160 -0.094128
N5    N     N_R   0.317870 0.971120 0.792790 -0.147545
N6    N     N_R   0.317870 0.028880 0.792790 -0.141619
N7    N     N_R   0.817870 0.471120 0.792790 -0.163864
N8    N     N_R   0.817870 0.528880 0.792790 -0.168305
N9    N     N_R   0.473480 0.027920 0.793480 -0.192472
N10   N     N_R   0.473480 0.972080 0.793480 -0.191529
N11   N     N_R   0.973480 0.527920 0.793480 -0.231701
N12   N     N_R   0.392140 0.897370 0.941800 -0.084267
N13   N     N_R   0.973480 0.472080 0.793480 -0.231194
N14   N     N_R   0.681610 0.971120 0.207570 -0.176149
N15   N     N_R   0.681610 0.028880 0.207570 -0.195117
N16   N     N_R   0.181610 0.471120 0.207570 -0.202002
N17   N     N_R   0.181610 0.528880 0.207570 -0.180739
N18   N     N_R   0.605410 0.102620 0.056870 -0.175087
N19   N     N_R   0.605410 0.897380 0.056870 -0.160680
N20   N     N_R   0.105410 0.602620 0.056870 -0.128701
N21   N     N_R   0.105410 0.397380 0.056870 -0.141034
N22   N     N_R   0.549680 0.896430 0.944180 -0.184900
N23   N     N_R   0.892140 0.602630 0.941800 -0.065159
N24   N     N_R   0.549680 0.103570 0.944180 -0.186654
N25   N     N_R   0.049680 0.396430 0.944180 -0.144855
N26   N     N_R   0.049680 0.603570 0.944180 -0.143628
N27   N     N_R   0.892140 0.397370 0.941800 -0.066543
N28   N     N_R   0.450890 0.896450 0.057150 -0.085410
N29   N     N_R   0.450890 0.103550 0.057150 -0.085120
N30   N     N_R   0.950890 0.396450 0.057150 -0.061108
N31   N     N_R   0.950890 0.603550 0.057150 -0.059629
N32   N     N_R   0.525160 0.027960 0.206160 -0.077643
Ni1   Ni    Ni4+2 0.433410 0.064680 0.868830 0.324326
Ni2   Ni    Ni4+2 0.433410 0.935320 0.868830 0.323469
Ni3   Ni    Ni4+2 0.933410 0.564680 0.868830 0.333250
Ni4   Ni    Ni4+2 0.933410 0.435320 0.868830 0.335397
Ni5   Ni    Ni4+2 0.565650 0.934380 0.131170 0.283627
Ni6   Ni    Ni4+2 0.565650 0.065620 0.131170 0.290274
Ni7   Ni    Ni4+2 0.065650 0.434380 0.131170 0.316984
Ni8   Ni    Ni4+2 0.065650 0.565620 0.131170 0.314075

loop_
_geom_bond_atom_site_label_1
_geom_bond_atom_site_label_2
_ccdc_geom_bond_type
C100  F25   S    
C58   C62   A    
C99   F24   S    
C24   N23   A    
C94   F18   S    
N3    Ni8   S    
C31   C85   A    
C22   C29   S    
C76   H7    S    
C63   F9    S    
C53   C55   A    
C11   C47   S    
N19   Ni5   S    
C2    C10   A    
C12   C48   S    
C83   N7    A    
C82   C92   A    
C4    N25   A    
C44   Cl27  S    
C66   F13   S    
C64   F10   S    
C51   Cl2   S    
C15   C19   S    
C7    C96   A    
C12   C68   A    
C29   C36   S    
C84   Cl13  S    
C13   N12   A    
C82   N6    A    
N29   Ni6   S    
C82   Cl10  S    
C41   Cl24  S    
N23   Ni3   S    
C8    C99   A    
C77   H8    S    
C52   Cl3   S    
C46   N18   A    
C14   C49   S    
C34   F6    S    
C53   Cl4   S    
C26   C92   S    
C65   C70   A    
C83   C93   A    
N6    Ni1   S    
C99   N15   A    
C77   N4    A    
C40   C62   A    
N5    Ni2   S    
C98   N14   A    
C6    C78   S    
N1    N29   A    
C67   C72   A    
C23   C26   S    
N12   Ni2   S    
N21   N25   A    
C8    C98   A    
C19   H12   S    
C74   H5    S    
C18   F31   S    
C17   Cl20  S    
N11   Ni3   S    
C5    N26   A    
C81   C92   A    
N4    Ni7   S    
C66   C71   A    
N25   Ni4   S    
C79   N21   A    
C15   F1    S    
C13   C86   A    
C10   C46   A    
N19   N22   A    
N20   N26   A    
N18   Ni6   S    
C30   C86   A    
C76   N3    A    
C43   C48   A    
C95   N10   A    
C9    C29   S    
C42   C47   A    
C40   C42   A    
N14   N15   A    
C28   C34   S    
C65   C80   A    
C55   C60   A    
C57   N19   A    
C16   C26   S    
N12   N28   A    
N23   N31   A    
C17   F23   S    
C10   C45   S    
C39   C61   A    
C36   F8    S    
C43   Cl26  S    
C81   N5    A    
N8    Ni3   S    
C52   C54   A    
N14   Ni5   S    
C54   C59   A    
C100  N16   A    
C1    C85   A    
C96   F20   S    
C63   C67   A    
C46   Cl14  S    
C55   Cl6   S    
C17   C27   S    
C95   F19   S    
C96   N11   A    
N21   Ni7   S    
C5    C12   A    
C57   Cl15  S    
C16   Cl19  S    
C71   C73   A    
C1    N1    A    
N16   N17   A    
C15   C26   S    
C47   C51   A    
C18   Cl21  S    
C34   F5    S    
C6    C94   A    
C14   C79   A    
C21   C29   S    
N24   Ni1   S    
C44   C49   A    
C17   C21   S    
N30   Ni7   S    
C23   F2    S    
C74   N32   A    
C76   C91   A    
C37   C43   A    
C69   C72   A    
C13   H9    S    
N3    N4    A    
N11   N13   A    
C56   Cl7   S    
C38   C44   A    
C3    C9    A    
C61   C88   S    
N27   N30   A    
C32   N30   A    
C35   C88   A    
C4    F29   S    
C31   N29   A    
C31   H2    S    
C1    H1    S    
N31   Ni8   S    
C16   C20   S    
C23   C34   S    
C30   N28   A    
C70   C73   A    
N2    N32   A    
C2    N24   A    
C51   C58   A    
C64   C69   A    
N22   Ni2   S    
C19   C28   S    
C39   Cl22  S    
C73   C91   S    
C37   C59   A    
C75   H6    S    
N9    Ni1   S    
C68   Cl16  S    
C38   C60   A    
C35   N27   A    
C21   H14   S    
C71   F17   S    
C81   Cl9   S    
C5    F30   S    
C9    C100  A    
N10   Ni2   S    
N18   N24   A    
N20   Ni8   S    
C83   Cl11  S    
C84   N8    A    
C33   H4    S    
C69   F15   S    
C19   F32   S    
C38   Cl12  S    
N17   Ni8   S    
C36   F7    S    
C16   F12   S    
N16   Ni7   S    
C66   C80   A    
C74   C89   A    
N13   Ni4   S    
C23   F36   S    
C98   F22   S    
C75   N2    A    
N28   Ni5   S    
C72   C89   S    
C40   Cl23  S    
N7    Ni4   S    
C77   C91   A    
C2    F28   S    
C21   F34   S    
C7    C97   A    
C54   Cl5   S    
C24   H10   S    
C18   C22   S    
C64   C78   A    
C97   F21   S    
C18   C27   S    
C22   H15   S    
C60   C85   S    
C20   H13   S    
C25   C27   S    
C20   C28   S    
C62   C87   S    
C70   F16   S    
C15   Cl18  S    
C68   N20   A    
C35   H11   S    
C67   F14   S    
C33   C87   A    
C59   C86   S    
N7    N8    A    
C41   C45   A    
N2    Ni5   S    
C37   Cl1   S    
C22   F35   S    
C33   N31   A    
C11   C90   A    
N5    N6    A    
N32   Ni6   S    
C45   C50   A    
C25   F3    S    
C49   C53   A    
C20   F33   S    
C79   Cl17  S    
N27   Ni4   S    
C3    N17   A    
C58   Cl8   S    
C84   C93   A    
C3    F26   S    
C4    C14   A    
N9    N10   A    
C24   C87   A    
C50   C56   A    
C94   N9    A    
C27   C93   S    
N26   Ni3   S    
C75   C89   A    
C25   C36   S    
C65   F11   S    
C48   C52   A    
C50   Cl28  S    
C39   C41   A    
C8    C28   S    
C6    C95   A    
C32   H3    S    
C97   N13   A    
C30   H16   S    
C56   C61   A    
N1    Ni1   S    
C90   F27   S    
C11   C57   A    
C25   F4    S    
N15   Ni6   S    
C42   Cl25  S    
C7    C80   S    
C90   N22   A    
C63   C78   A    
C32   C88   A    
