data_mof_unit_37290.cif
_audit_creation_date              2012-10-26T19:16:00-0400
_audit_creation_method            fapswitch 2.2
_symmetry_space_group_name_H-M    P1
_symmetry_Int_Tables_number       1
_space_group_crystal_system       triclinic
_cell_length_a                    7.781077
_cell_length_b                    9.093835
_cell_length_c                    17.117228
_cell_angle_alpha                 89.579934
_cell_angle_beta                  92.883387
_cell_angle_gamma                 90.045727
_cell_volume                      1209.64611384

loop_
_atom_site_label
_atom_site_type_symbol
_atom_type_description
_atom_site_fract_x
_atom_site_fract_y
_atom_site_fract_z
_atom_type_partial_charge
C1    C     C_R   0.499951 0.220010 0.500051 0.541183
C2    C     C_R   0.603184 0.436980 0.141265 0.130473
C3    C     C_R   0.500827 0.467257 0.899318 0.209878
C4    C     C_R   0.489284 0.534386 0.100099 0.223053
C5    C     C_R   0.606694 0.371824 0.859440 0.131260
C6    C     C_R   0.368806 0.615503 0.140020 0.094820
C7    C     C_R   0.620051 0.385793 0.778335 0.048301
C8    C     C_R   0.360609 0.600075 0.221729 0.049936
C9    C     C_1   0.499957 0.065370 0.500079 -0.047656
C10   C     C_1   0.500067 0.934632 0.500076 -0.044053
C11   C     C_R   0.500061 0.779990 0.500037 0.554615
C12   C     C_R   0.519324 0.499371 0.651069 0.534931
C13   C     C_R   0.480761 0.500044 0.348812 0.571172
C14   C     C_R   0.524060 0.495327 0.736699 -0.022379
C15   C     C_R   0.475746 0.504377 0.262967 0.005138
C16   C     C_R   0.418239 0.592372 0.777036 0.086149
C17   C     C_R   0.595385 0.420980 0.222100 0.071378
C18   C     C_R   0.405117 0.577709 0.857746 0.132327
Cu1   Cu    Cu3+1 0.669080 0.500010 0.500000 1.011546
Cu2   Cu    Cu3+1 0.330920 0.499990 0.500000 1.033262
H1    H     H_    0.638818 0.248722 0.297112 0.229505
H2    H     H_    0.831775 0.274587 0.894228 0.255449
H3    H     H_    0.274516 0.820305 0.117655 0.237400
H4    H     H_    0.128562 0.682392 0.104668 0.235312
H5    H     H_    0.651169 0.230235 0.695623 0.241715
H6    H     H_    0.824540 0.341717 0.713340 0.262172
H7    H     H_    0.116060 0.660972 0.242002 0.240497
H8    H     H_    0.264943 0.796893 0.254126 0.230808
H9    H     H_    0.802550 0.373783 0.295291 0.262936
H10   H     H_    0.406784 0.768576 0.703086 0.227490
H11   H     H_    0.225617 0.662807 0.701053 0.260343
H12   H     H_    0.802170 0.431667 0.068754 0.248809
H13   H     H_    0.674815 0.278890 0.066339 0.278063
H14   H     H_    0.205923 0.606566 0.928638 0.259802
H15   H     H_    0.355205 0.744620 0.931703 0.274585
H16   H     H_    0.664067 0.157366 0.879433 0.260728
N1    N     N_1   0.076820 0.499970 0.500010 -0.079606
N2    N     N_3   0.255617 0.713800 0.096393 -0.619795
N3    N     N_3   0.726169 0.283559 0.739209 -0.625650
N4    N     N_3   0.240760 0.685309 0.263615 -0.597927
N5    N     N_1   0.923180 0.500030 0.499990 -0.081973
N6    N     N_2   0.486917 0.443990 0.980548 -0.224974
N7    N     N_2   0.500564 0.559294 0.019010 -0.230915
N8    N     N_3   0.709520 0.317074 0.261263 -0.575008
N9    N     N_3   0.323420 0.708471 0.737211 -0.571554
N10   N     N_3   0.733656 0.358020 0.102606 -0.565550
N11   N     N_3   0.286394 0.671268 0.895347 -0.559376
N12   N     N_3   0.700676 0.259514 0.902473 -0.604798
O1    O     O_R   0.642760 0.288400 0.500000 -0.502493
O2    O     O_R   0.357240 0.711600 0.500000 -0.492117
O3    O     O_R   0.357190 0.288380 0.500000 -0.495162
O4    O     O_R   0.642810 0.711620 0.500000 -0.491443
O5    O     O_R   0.658410 0.498660 0.613920 -0.505953
O6    O     O_R   0.341590 0.501340 0.386080 -0.462610
O7    O     O_R   0.372840 0.498650 0.613930 -0.513083
O8    O     O_R   0.627160 0.501350 0.386070 -0.520963

loop_
_geom_bond_atom_site_label_1
_geom_bond_atom_site_label_2
_ccdc_geom_bond_type
C16   N9    S    
Cu1   O8    S    
H4    N2    S    
C6    N2    S    
C3    N6    S    
C15   C17   A    
Cu2   N1    S    
C4    N7    S    
Cu2   O3    S    
H3    N2    S    
C11   O4    A    
C9    C10   T    
Cu1   O1    S    
H10   N9    S    
C2    C4    A    
C12   O5    A    
H7    N4    S    
C13   O8    A    
H15   N11   S    
C18   N11   S    
Cu1   O5    S    
C17   N8    S    
C11   O2    A    
H5    N3    S    
C2    C17   A    
H13   N10   S    
C1    O3    A    
H12   N10   S    
Cu2   O7    S    
C6    C8    A    
C4    C6    A    
C12   C14   S    
H2    N12   S    
H16   N12   S    
C8    C15   A    
C10   C11   S    
C13   C15   S    
H9    N8    S    
N1    N5    T    
C5    N12   S    
C14   C16   A    
H6    N3    S    
C12   O7    A    
N6    N7    D    
H8    N4    S    
H1    N8    S    
Cu1   N5    S    
C1    C9    S    
C3    C18   A    
Cu2   O6    S    
C13   O6    A    
H11   N9    S    
C5    C7    A    
C2    N10   S    
C7    N3    S    
Cu2   O2    S    
H14   N11   S    
C8    N4    S    
C1    O1    A    
Cu1   O4    S    
C16   C18   A    
C7    C14   A    
Cu1   Cu2   S    
C3    C5    A    
