data_mof_unit_24576.cif
_audit_creation_date              2012-12-11T15:52:30-0500
_audit_creation_method            fapswitch 2.2
_symmetry_space_group_name_H-M    P1
_symmetry_Int_Tables_number       1
_space_group_crystal_system       triclinic
_cell_length_a                    6.960856
_cell_length_b                    14.741084
_cell_length_c                    15.912778
_cell_angle_alpha                 90.265643
_cell_angle_beta                  90.01475
_cell_angle_gamma                 90.001081
_cell_volume                      1632.80150591

loop_
_atom_site_label
_atom_site_type_symbol
_atom_type_description
_atom_site_fract_x
_atom_site_fract_y
_atom_site_fract_z
_atom_type_partial_charge
O1    O     O_R   0.494400 0.415640 0.412830 -0.520914
O2    O     O_R   0.823920 0.405510 0.586560 -0.527935
O3    O     O_R   0.994250 0.584360 0.587170 -0.519643
C1    C     C_R   0.654805 0.382369 0.614588 0.753420
O4    O     O_R   0.824110 0.404610 0.413450 -0.539175
O5    O     O_R   0.994440 0.583460 0.412820 -0.536774
C2    C     C_R   0.654579 0.384000 0.382849 0.715661
O6    O     O_R   0.494210 0.416540 0.587180 -0.546473
O7    O     O_3   0.660810 0.558680 0.500000 -0.352805
V1    V     V_3+5 0.935650 0.489110 0.500000 1.555901
O8    O     O_R   0.324150 0.594490 0.413440 -0.539298
C3    C     C_R   0.154970 0.616608 0.384576 0.796488
O9    O     O_R   0.323970 0.595390 0.586550 -0.534850
C4    C     C_R   0.155010 0.616834 0.616368 0.805623
V2    V     V_3+5 0.435660 0.510890 0.500000 1.548001
O10   O     O_3   0.160630 0.441320 0.500000 -0.367106
C5    C     C_3   0.935413 0.694597 0.724539 0.154220
H1    H     H_    0.889152 0.626345 0.746082 0.146994
C6    C     C_3   0.931226 0.759861 0.800668 -0.442655
H2    H     H_    0.903184 0.720475 0.858905 0.191339
H3    H     H_    0.809964 0.808467 0.794262 0.190364
H4    H     H_    0.040461 0.899390 0.705882 0.169052
C7    C     C_3   0.207577 0.783933 0.654906 0.031787
C8    C     C_3   0.283540 0.664369 0.761247 -0.021026
C9    C     C_3   0.143197 0.688013 0.686709 -0.128861
H5    H     H_    0.431091 0.656573 0.736051 0.141550
C10   C     C_3   0.124153 0.812309 0.809574 -0.119590
C11   C     C_3   0.169650 0.858850 0.723337 0.199557
C12   C     C_3   0.287467 0.742586 0.828249 0.342465
H6    H     H_    0.426617 0.779668 0.820342 0.083274
H7    H     H_    0.363883 0.780631 0.643919 0.181592
C13   C     C_R   0.959529 0.766955 0.210009 -0.216529
H8    H     H_    0.822748 0.778156 0.179546 0.190367
C14   C     C_R   0.968719 0.704055 0.275646 -0.110523
H9    H     H_    0.838205 0.669431 0.294022 0.137809
C15   C     C_R   0.143985 0.684980 0.315936 -0.080675
C16   C     C_R   0.309282 0.731255 0.289405 -0.196986
H10   H     H_    0.446721 0.717361 0.318584 0.138960
C17   C     C_R   0.300697 0.796520 0.225263 0.458595
C18   C     C_R   0.124383 0.813907 0.183288 -0.137097
C19   C     C_R   0.809443 0.263959 0.707786 0.445688
C20   C     C_R   0.793814 0.191080 0.763587 0.176207
C21   C     C_R   0.623975 0.180150 0.811695 -0.309935
C22   C     C_R   0.469293 0.239730 0.795928 0.483339
C23   C     C_R   0.476480 0.298237 0.726829 -0.249003
H11   H     H_    0.356612 0.339594 0.712369 0.197486
C24   C     C_R   0.645000 0.311674 0.681689 -0.289971
C25   C     C_R   0.795316 0.257101 0.296551 -0.149649
H12   H     H_    0.923278 0.259740 0.335203 0.163183
C26   C     C_R   0.786197 0.192345 0.231799 -0.138902
H13   H     H_    0.907535 0.147463 0.222288 0.126158
C27   C     C_R   0.621566 0.184441 0.181045 -0.098783
C28   C     C_R   0.468016 0.244059 0.195586 -0.178771
H14   H     H_    0.341365 0.240617 0.156104 0.150484
C29   C     C_R   0.476890 0.310363 0.259042 0.264298
C30   C     C_R   0.641223 0.316806 0.312051 -0.095821
O11   O     O_R   0.771300 0.080930 0.910090 -0.520233
O12   O     O_R   0.441270 0.092800 0.083770 -0.551453
O13   O     O_R   0.271080 0.913920 0.084380 -0.515030
C31   C     C_R   0.610439 0.115120 0.112710 0.669009
O14   O     O_R   0.441580 0.091910 0.910670 -0.500036
O15   O     O_R   0.271390 0.913020 0.910040 -0.523913
C32   C     C_R   0.610960 0.112196 0.880509 0.810418
O16   O     O_R   0.770990 0.081830 0.084440 -0.546585
O17   O     O_3   0.604750 0.938760 0.997250 -0.380534
V3    V     V_3+5 0.329850 0.008280 0.997210 1.549559
O18   O     O_R   0.941680 0.901940 0.910610 -0.555876
C33   C     C_R   0.110652 0.881852 0.880314 0.833685
O19   O     O_R   0.941370 0.902830 0.083720 -0.551099
C34   C     C_R   0.110986 0.881121 0.113154 0.709785
V4    V     V_3+5 0.829860 0.986420 0.997150 1.480696
O20   O     O_3   0.104830 0.056030 0.997180 -0.359862
Br1   Br    Br    0.739632 0.731717 0.643784 -0.557890
O21   O     O_3   0.332448 0.916288 0.733443 -0.562951
C35   C     C_3   0.358386 0.973952 0.663695 -0.101763
H15   H     H_    0.221489 0.002470 0.639324 0.174396
H16   H     H_    0.435814 0.937627 0.612691 0.175683
H17   H     H_    0.449606 0.031947 0.683523 0.158884
O22   O     O_3   0.468478 0.838785 0.200407 -0.561337
C36   C     C_3   0.512118 0.908383 0.258434 -0.225076
H18   H     H_    0.392961 0.958585 0.263130 0.124081
H19   H     H_    0.641253 0.945080 0.235899 0.150055
H20   H     H_    0.546649 0.880328 0.321439 0.154508
O23   O     O_3   0.989147 0.296489 0.689018 -0.532293
C37   C     C_3   0.016142 0.377413 0.736087 -0.116679
H21   H     H_    0.884074 0.416532 0.752527 0.100664
H22   H     H_    0.103454 0.424118 0.697409 0.165273
H23   H     H_    0.088997 0.361907 0.795948 0.199569
Br2   Br    Br    0.009995 0.109955 0.768917 -0.490967
O24   O     O_3   0.309754 0.241661 0.847431 -0.517685
C38   C     C_3   0.348345 0.300035 0.915972 -0.179904
H24   H     H_    0.384040 0.369800 0.894563 0.162561
H25   H     H_    0.466164 0.273294 0.956096 0.103460
H26   H     H_    0.217460 0.304650 0.955515 0.170009
Br3   Br    Br    0.262435 0.392583 0.264306 -0.590583
Br4   Br    Br    0.110515 0.819116 0.544172 -0.550210
Br5   Br    Br    0.233140 0.547691 0.813361 -0.671574
O25   O     O_3   0.266313 0.709168 0.911509 -0.532043
C39   C     C_3   0.447282 0.697874 0.950239 -0.134547
H27   H     H_    0.516533 0.764639 0.961927 0.128372
H28   H     H_    0.543474 0.653865 0.911862 0.146990
H29   H     H_    0.425943 0.664646 0.011935 0.172356

loop_
_geom_bond_atom_site_label_1
_geom_bond_atom_site_label_2
_ccdc_geom_bond_type
C29   C30   A    
C10   C12   S    
C19   C20   A    
C6    H2    S    
C1    O6    A    
C11   O21   S    
C21   C32   S    
C28   H14   S    
C22   C23   A    
C16   H10   S    
C18   C34   S    
C12   O25   S    
C15   C16   A    
C6    H3    S    
C8    H5    S    
O13   V3    S    
O5    C3    A    
O12   C31   A    
V2    O10   S    
C7    Br4   S    
O14   C32   A    
C14   H9    S    
O16   V4    S    
O19   V4    S    
C8    C12   S    
C10   C33   S    
C27   C31   S    
O8    V2    S    
O14   V3    S    
O12   V3    S    
V3    O20   S    
C26   C27   A    
O11   C32   A    
O1    V2    S    
C3    C15   S    
C6    C10   S    
O7    V1    S    
C14   C15   A    
C23   C24   A    
H4    C11   S    
O9    C4    A    
C5    Br1   S    
C2    C30   S    
C36   H20   S    
C26   H13   S    
C28   C29   A    
O21   C35   S    
O15   V3    S    
C37   H22   S    
C8    Br5   S    
C8    C9    S    
C29   Br3   S    
C17   C18   A    
O4    C2    A    
C7    H7    S    
C37   H21   S    
C19   O23   S    
O11   V4    S    
O18   C33   A    
C17   O22   S    
O2    C1    A    
C35   H15   S    
C12   H6    S    
C38   H25   S    
C39   H27   S    
C5    H1    S    
C19   C24   A    
C7    C11   S    
O23   C37   S    
C35   H16   S    
O3    C4    A    
C36   H19   S    
C25   H12   S    
C39   H28   S    
O17   V3    S    
O6    V2    S    
O9    V2    S    
C21   C22   A    
C20   C21   A    
O2    V1    S    
C38   H24   S    
C13   C18   A    
C22   O24   S    
C27   C28   A    
C37   H23   S    
C25   C30   A    
O1    C2    A    
C36   H18   S    
O5    V1    S    
O8    C3    A    
O15   C33   A    
C31   O16   A    
C20   Br2   S    
C5    C9    S    
C13   H8    S    
O7    V2    S    
O4    V1    S    
C16   C17   A    
O3    V1    S    
O17   V4    S    
C38   H26   S    
O24   C38   S    
C25   C26   A    
C5    C6    S    
O18   V4    S    
C7    C9    S    
C4    C9    S    
O19   C34   A    
C35   H17   S    
O13   C34   A    
O22   C36   S    
C23   H11   S    
V4    O20   S    
C39   H29   S    
O25   C39   S    
C10   C11   S    
V1    O10   S    
C13   C14   A    
C1    C24   S    
