data_mof_unit_20673.cif
_audit_creation_date              2012-12-11T15:52:41-0500
_audit_creation_method            fapswitch 2.2
_symmetry_space_group_name_H-M    P1
_symmetry_Int_Tables_number       1
_space_group_crystal_system       triclinic
_cell_length_a                    6.922905
_cell_length_b                    14.575983
_cell_length_c                    16.058022
_cell_angle_alpha                 90.291557
_cell_angle_beta                  90.497798
_cell_angle_gamma                 89.874161
_cell_volume                      1620.2993338

loop_
_atom_site_label
_atom_site_type_symbol
_atom_type_description
_atom_site_fract_x
_atom_site_fract_y
_atom_site_fract_z
_atom_type_partial_charge
O1    O     O_R   0.494400 0.415640 0.412830 -0.543338
O2    O     O_R   0.823920 0.405510 0.586560 -0.543227
O3    O     O_R   0.994250 0.584360 0.587170 -0.545079
C1    C     C_R   0.655566 0.383478 0.615381 0.719177
O4    O     O_R   0.824110 0.404610 0.413450 -0.545375
O5    O     O_R   0.994440 0.583460 0.412820 -0.534251
C2    C     C_R   0.654620 0.382208 0.384531 0.723739
O6    O     O_R   0.494210 0.416540 0.587180 -0.550388
O7    O     O_3   0.660810 0.558680 0.500000 -0.366586
V1    V     V_3+5 0.935650 0.489110 0.500000 1.438051
O8    O     O_R   0.324150 0.594490 0.413440 -0.540816
C3    C     C_R   0.153464 0.617007 0.384698 0.754294
O9    O     O_R   0.323970 0.595390 0.586550 -0.527874
C4    C     C_R   0.155114 0.618042 0.615263 0.756610
V2    V     V_3+5 0.435660 0.510890 0.500000 1.455020
O10   O     O_3   0.160630 0.441320 0.500000 -0.381092
C5    C     C_3   0.928864 0.705356 0.711068 -0.421734
C6    C     C_3   0.914599 0.774162 0.784644 0.221813
C7    C     C_3   0.237460 0.782106 0.660060 0.612637
C8    C     C_3   0.252350 0.652426 0.765482 0.166347
C9    C     C_3   0.143907 0.688238 0.685990 -0.079133
C10   C     C_3   0.119666 0.810536 0.810338 -0.082352
C11   C     C_3   0.216780 0.853929 0.732843 -0.530371
C12   C     C_3   0.246029 0.726392 0.836761 0.174988
H1    H     H_    0.362014 0.880186 0.751193 0.190131
C13   C     C_R   0.963863 0.760026 0.201779 -0.177180
C14   C     C_R   0.966267 0.699000 0.268744 0.359600
C15   C     C_R   0.138483 0.685678 0.316146 -0.205146
C16   C     C_R   0.301644 0.737401 0.295464 -0.173695
C17   C     C_R   0.299241 0.798427 0.228495 0.364296
C18   C     C_R   0.127035 0.811733 0.181082 -0.203593
C19   C     C_R   0.792357 0.249830 0.694758 -0.230689
C20   C     C_R   0.779697 0.182633 0.757554 0.339152
C21   C     C_R   0.618522 0.181823 0.811640 -0.165996
C22   C     C_R   0.469594 0.247739 0.798948 0.282610
C23   C     C_R   0.485194 0.313067 0.735882 -0.157602
C24   C     C_R   0.645334 0.314863 0.683209 -0.144020
C25   C     C_R   0.810077 0.266992 0.289784 -0.157896
C26   C     C_R   0.804396 0.205061 0.222917 0.354434
C27   C     C_R   0.626671 0.185777 0.181139 -0.132120
C28   C     C_R   0.460572 0.233111 0.207421 -0.168907
C29   C     C_R   0.468542 0.296082 0.273551 -0.135202
H2    H     H_    0.337278 0.331407 0.291291 0.134583
C30   C     C_R   0.643661 0.313818 0.315545 -0.118054
O11   O     O_R   0.771300 0.080930 0.910090 -0.509363
O12   O     O_R   0.441270 0.092800 0.083770 -0.538460
O13   O     O_R   0.271080 0.913920 0.084380 -0.536901
C31   C     C_R   0.611638 0.116007 0.112484 0.725354
O14   O     O_R   0.441580 0.091910 0.910670 -0.550818
O15   O     O_R   0.271390 0.913020 0.910040 -0.554346
C32   C     C_R   0.609594 0.113823 0.881228 0.762221
O16   O     O_R   0.770990 0.081830 0.084440 -0.536635
O17   O     O_3   0.604750 0.938760 0.997250 -0.379673
V3    V     V_3+5 0.329850 0.008280 0.997210 1.485053
O18   O     O_R   0.941680 0.901940 0.910610 -0.518152
C33   C     C_R   0.109893 0.880386 0.881129 0.787791
O19   O     O_R   0.941370 0.902830 0.083720 -0.545754
C34   C     C_R   0.112056 0.880375 0.112506 0.756017
V4    V     V_3+5 0.829860 0.986420 0.997150 1.522730
O20   O     O_3   0.104830 0.056030 0.997180 -0.373067
H3    H     H_    0.842754 0.729475 0.656704 0.180182
H4    H     H_    0.396523 0.751340 0.848214 0.087706
O21   O     O_3   0.435376 0.767607 0.644987 -0.642964
H5    H     H_    0.487462 0.824915 0.620719 0.310159
H6    H     H_    0.831366 0.767427 0.166197 0.162245
O22   O     O_3   0.798566 0.652367 0.284811 -0.638354
H7    H     H_    0.760017 0.670561 0.341831 0.297926
H8    H     H_    0.434130 0.730007 0.331057 0.166926
O23   O     O_3   0.466932 0.845070 0.212434 -0.632559
H9    H     H_    0.505500 0.826875 0.155417 0.292319
H10   H     H_    0.915580 0.250003 0.653619 0.126501
O24   O     O_3   0.920739 0.115881 0.765445 -0.648167
H11   H     H_    0.020585 0.125235 0.722412 0.270569
O25   O     O_3   0.310411 0.252724 0.849252 -0.629467
H12   H     H_    0.236429 0.195673 0.838934 0.315102
H13   H     H_    0.860677 0.639610 0.729847 0.187367
H14   H     H_    0.370205 0.362922 0.728246 0.141144
H15   H     H_    0.947375 0.279391 0.320694 0.138864
O26   O     O_3   0.975199 0.164068 0.200792 -0.643970
H16   H     H_    0.999375 0.182855 0.142575 0.286941
H17   H     H_    0.323898 0.222123 0.176203 0.164727
H18   H     H_    0.854429 0.736562 0.838679 0.173214
O27   O     O_3   0.783158 0.845511 0.766595 -0.641808
H19   H     H_    0.821965 0.875020 0.713938 0.290464
O28   O     O_3   0.151705 0.814741 0.585668 -0.648934
H20   H     H_    0.021615 0.839302 0.598153 0.265918
H21   H     H_    0.135254 0.915623 0.712258 0.157598
H22   H     H_    0.407416 0.639864 0.750451 0.090894
O29   O     O_3   0.170174 0.569578 0.792636 -0.616739
H23   H     H_    0.225652 0.519592 0.758063 0.274595
O30   O     O_3   0.175507 0.688924 0.911155 -0.633112
H24   H     H_    0.281842 0.651670 0.935579 0.312951

loop_
_geom_bond_atom_site_label_1
_geom_bond_atom_site_label_2
_ccdc_geom_bond_type
O18   C33   A    
C22   O25   S    
O18   V4    S    
C28   C29   A    
O2    C1    A    
C22   C23   A    
C1    O6    A    
O17   V4    S    
V3    O20   S    
O17   V3    S    
C15   C16   A    
C13   C14   A    
O15   V3    S    
C3    C15   S    
C18   C34   S    
C23   C24   A    
C7    C9    S    
C23   H14   S    
O5    C3    A    
C17   C18   A    
O19   V4    S    
O11   C32   A    
O14   V3    S    
C21   C22   A    
C20   O24   S    
C5    H3    S    
O8    V2    S    
C8    C12   S    
C7    O21   S    
O14   C32   A    
C5    H13   S    
O1    V2    S    
O7    V1    S    
O22   H7    S    
V4    O20   S    
O1    C2    A    
O9    C4    A    
C29   C30   A    
C6    O27   S    
C19   H10   S    
O12   C31   A    
O25   H12   S    
C26   C27   A    
O4    C2    A    
C10   C33   S    
C25   H15   S    
O28   H20   S    
O15   C33   A    
O26   H16   S    
C26   O26   S    
C7    C11   S    
C25   C30   A    
C16   C17   A    
O16   V4    S    
C16   H8    S    
O27   H19   S    
C31   O16   A    
C28   H17   S    
O12   V3    S    
C5    C6    S    
C21   C32   S    
C19   C24   A    
C1    C24   S    
O3    C4    A    
O13   V3    S    
C27   C28   A    
O6    V2    S    
O9    V2    S    
C10   C12   S    
C29   H2    S    
O2    V1    S    
C12   O30   S    
O30   H24   S    
C17   O23   S    
C4    C9    S    
C27   C31   S    
O11   V4    S    
C12   H4    S    
C6    C10   S    
C13   H6    S    
O24   H11   S    
C7    O28   S    
O5    V1    S    
O8    C3    A    
C8    O29   S    
C19   C20   A    
O7    V2    S    
O4    V1    S    
O3    V1    S    
V1    O10   S    
O13   C34   A    
O19   C34   A    
C25   C26   A    
C8    H22   S    
C6    H18   S    
C20   C21   A    
C11   H1    S    
O23   H9    S    
C5    C9    S    
O21   H5    S    
C13   C18   A    
C8    C9    S    
C14   C15   A    
C14   O22   S    
C10   C11   S    
C11   H21   S    
C2    C30   S    
O29   H23   S    
V2    O10   S    
