data_mof_unit_35675.cif
_audit_creation_date              2012-12-10T20:41:05-0500
_audit_creation_method            fapswitch 2.2
_symmetry_space_group_name_H-M    P1
_symmetry_Int_Tables_number       1
_space_group_crystal_system       triclinic
_cell_length_a                    27.551094
_cell_length_b                    10.69842
_cell_length_c                    9.868156
_cell_angle_alpha                 89.236515
_cell_angle_beta                  90.783397
_cell_angle_gamma                 89.753053
_cell_volume                      2908.11086971

loop_
_atom_site_label
_atom_site_type_symbol
_atom_type_description
_atom_site_fract_x
_atom_site_fract_y
_atom_site_fract_z
_atom_type_partial_charge
C1    C     C_R   0.501515 0.259910 0.500662 0.866887
C2    C     C_R   0.974406 0.365518 0.414564 0.062969
C3    C     C_R   0.975466 0.469096 0.636836 0.001892
C4    C     C_R   0.406281 0.497519 0.499378 0.859270
C5    C     C_R   0.949549 0.420393 0.524174 0.032640
C6    C     C_R   0.947071 0.323327 0.302046 -0.222791
C7    C     C_R   0.896935 0.335623 0.297070 -0.138966
C8    C     C_R   0.872226 0.387848 0.405300 -0.012825
C9    C     C_R   0.898342 0.427784 0.520467 -0.056802
C10   C     C_R   0.873181 0.476300 0.631285 -0.057260
C11   C     C_R   0.822619 0.487430 0.623342 0.528521
C12   C     C_R   0.282410 0.364635 0.557822 -0.104818
C13   C     C_R   0.821709 0.401389 0.401365 0.507919
C14   C     C_R   0.719189 0.368000 0.566695 -0.110627
C15   C     C_R   0.668674 0.376185 0.565679 0.187087
C16   C     C_R   0.500691 0.739921 0.499020 0.878313
C17   C     C_R   0.674104 0.573522 0.439047 -0.255461
C18   C     C_R   0.724397 0.563209 0.439921 -0.095784
C19   C     C_R   0.746779 0.461019 0.504748 0.265907
C20   C     C_R   0.025695 0.357956 0.419289 0.047418
C21   C     C_R   0.051342 0.424504 0.520543 0.067098
C22   C     C_R   0.026259 0.485378 0.625570 0.037983
C23   C     C_R   0.253950 0.459120 0.497939 0.272332
C24   C     C_R   0.052431 0.289413 0.323931 -0.231974
C25   C     C_R   0.102514 0.576723 0.702883 -0.155838
C26   C     C_R   0.949213 0.500361 0.755355 0.187897
C27   C     C_R   0.898637 0.508374 0.748985 -0.206546
C28   C     C_R   0.593789 0.496229 0.500994 0.865615
C29   C     C_R   0.052446 0.566870 0.710615 -0.182007
C30   C     C_R   0.520452 0.060661 0.616988 -0.009173
C31   C     C_R   0.508388 0.128198 0.499215 -0.111342
C32   C     C_R   0.505287 0.066211 0.374567 -0.213735
C33   C     C_R   0.504896 0.937331 0.372945 -0.213698
C34   C     C_R   0.102479 0.432742 0.514960 -0.055517
C35   C     C_R   0.507122 0.871151 0.496146 -0.129734
C36   C     C_R   0.518640 0.933298 0.614729 0.080713
C37   C     C_3   0.498839 0.922409 0.754675 0.021298
C38   C     C_3   0.502522 0.065576 0.760266 -0.023877
C39   C     C_R   0.464952 0.561326 0.067647 0.154115
C40   C     C_R   0.178684 0.376709 0.412153 0.506808
C41   C     C_R   0.537447 0.447238 0.074234 -0.131260
C42   C     C_R   0.537322 0.446725 0.930123 -0.113471
C43   C     C_R   0.466468 0.567133 0.926155 0.130860
C44   C     C_3   0.412616 0.563687 0.910198 -0.088781
C45   C     C_R   0.128100 0.366942 0.415843 -0.020509
C46   C     C_3   0.410076 0.551379 0.065229 -0.112582
C47   C     C_R   0.178472 0.516071 0.599211 0.511019
C48   C     C_R   0.275274 0.562908 0.436335 -0.098997
C49   C     C_R   0.325364 0.573642 0.436207 -0.289970
C50   C     C_R   0.333203 0.373296 0.558585 0.118834
C51   C     C_3   0.365636 0.269628 0.618183 -0.389447
C52   C     C_3   0.339775 0.150874 0.665257 -0.899285
C53   C     C_3   0.990728 0.397198 0.943264 -0.773878
C54   C     C_3   0.581316 0.835621 0.826009 -0.634824
C55   C     C_3   0.524767 0.126638 0.990869 -0.811215
C56   C     C_R   0.102790 0.293519 0.322869 -0.136008
C57   C     C_3   0.391821 0.686952 0.851797 -0.434935
C58   C     C_3   0.336573 0.681870 0.840881 -0.793982
C59   C     C_3   0.384885 0.427789 0.108335 -0.324518
C60   C     C_3   0.413515 0.307797 0.084127 -0.863502
C61   C     C_3   0.641859 0.161674 0.549630 -0.779090
C62   C     C_R   0.127970 0.508305 0.607285 -0.021609
C63   C     C_R   0.354179 0.481089 0.498717 -0.104319
C64   C     C_R   0.646141 0.481961 0.503568 -0.096066
H1    H     H_    0.252914 0.635541 0.389829 0.144992
H2    H     H_    0.264099 0.285957 0.603747 0.149882
H3    H     H_    0.467195 0.115682 0.768883 0.135099
H4    H     H_    0.566944 0.402691 0.130149 0.160771
H5    H     H_    0.566795 0.402256 0.877720 0.145563
H6    H     H_    0.400143 0.480341 0.853910 0.194266
H7    H     H_    0.393071 0.633798 0.113562 0.140884
H8    H     H_    0.121775 0.240146 0.247389 0.188572
H9    H     H_    0.737256 0.289069 0.615757 0.146406
H10   H     H_    0.877620 0.304170 0.207510 0.188933
H11   H     H_    0.963542 0.284462 0.213661 0.139342
H12   H     H_    0.121111 0.639493 0.771217 0.190889
H13   H     H_    0.035432 0.229813 0.250121 0.144767
H14   H     H_    0.341751 0.655003 0.389228 0.150254
H15   H     H_    0.315485 0.171384 0.751145 0.264980
H16   H     H_    0.318687 0.109731 0.580244 0.272132
H17   H     H_    0.367192 0.080955 0.700858 0.244262
H18   H     H_    0.392200 0.241865 0.540184 0.200682
H19   H     H_    0.386287 0.306317 0.706254 0.214877
H20   H     H_    0.953349 0.565227 0.952913 0.229105
H21   H     H_    0.010069 0.416832 0.040074 0.241800
H22   H     H_    0.016747 0.351567 0.874417 0.257512
H23   H     H_    0.656950 0.653599 0.389571 0.157023
H24   H     H_    0.960159 0.332520 0.963766 0.234639
H25   H     H_    0.519668 0.852857 0.949626 0.216927
H26   H     H_    0.600016 0.927178 0.825963 0.241737
H27   H     H_    0.587298 0.788363 0.728118 0.234980
H28   H     H_    0.597552 0.775670 0.907562 0.216111
H29   H     H_    0.559461 0.184133 0.816189 0.238089
H30   H     H_    0.501749 0.210980 0.996540 0.239945
H31   H     H_    0.557190 0.138850 0.057304 0.244855
H32   H     H_    0.503797 0.045396 0.028494 0.235660
H33   H     H_    0.325142 0.604155 0.774191 0.278023
H34   H     H_    0.879191 0.536322 0.838461 0.191482
H35   H     H_    0.320602 0.667945 0.942668 0.258231
H36   H     H_    0.322535 0.771115 0.796643 0.254342
H37   H     H_    0.402709 0.767363 0.915594 0.194025
H38   H     H_    0.406438 0.703258 0.748779 0.238503
H39   H     H_    0.424942 0.302430 0.977050 0.240065
H40   H     H_    0.445527 0.302083 0.153038 0.281247
H41   H     H_    0.390179 0.225895 0.106308 0.245202
H42   H     H_    0.374515 0.430730 0.215793 0.237885
H43   H     H_    0.349871 0.421695 0.051443 0.208304
H44   H     H_    0.607730 0.299207 0.659556 0.231050
H45   H     H_    0.746027 0.634816 0.391463 0.146359
H46   H     H_    0.623583 0.087181 0.609088 0.243275
H47   H     H_    0.679591 0.130171 0.530498 0.253272
H48   H     H_    0.622110 0.175295 0.451502 0.242644
H49   H     H_    0.034672 0.628650 0.779965 0.179030
H50   H     H_    0.499550 0.116210 0.279589 0.172485
H51   H     H_    0.499271 0.890934 0.277092 0.163653
H52   H     H_    0.460679 0.889285 0.755296 0.084014
N1    N     N_R   0.202493 0.450622 0.502854 -0.352782
N2    N     N_R   0.798286 0.451326 0.509064 -0.353160
N3    N     N_R   0.499670 0.499140 0.142800 -0.105187
N4    N     N_R   0.499670 0.499180 0.857150 -0.110532
N5    N     N_2   0.972499 0.513042 0.884360 -0.320075
N6    N     N_2   0.529774 0.851114 0.849597 -0.263868
N7    N     N_2   0.539946 0.109376 0.852817 -0.261642
N8    N     N_2   0.641659 0.276637 0.625211 -0.318427
O1    O     O_R   0.500010 0.316790 0.614690 -0.634637
O2    O     O_R   0.571250 0.500000 0.614690 -0.628559
O3    O     O_R   0.571240 0.499960 0.385340 -0.609750
O4    O     O_2   0.203940 0.313796 0.318463 -0.565113
O5    O     O_2   0.796085 0.364621 0.291453 -0.553110
O6    O     O_2   0.203524 0.587861 0.687020 -0.568631
O7    O     O_2   0.797852 0.534160 0.728507 -0.552238
O8    O     O_R   0.500000 0.316760 0.385350 -0.627090
O9    O     O_R   0.428760 0.500040 0.614660 -0.636907
O10   O     O_R   0.428750 0.500000 0.385310 -0.616402
O11   O     O_R   0.500000 0.683240 0.614650 -0.604256
O12   O     O_R   0.499990 0.683210 0.385310 -0.622149
Zn1   Zn    Zn3+2 0.500000 0.500020 0.653130 0.929601
Zn2   Zn    Zn3+2 0.500000 0.499980 0.346870 0.939516

loop_
_geom_bond_atom_site_label_1
_geom_bond_atom_site_label_2
_ccdc_geom_bond_type
C10   C27   A    
O2    Zn1   S    
O9    Zn1   S    
C8    C13   A    
C49   C63   A    
C22   C29   A    
C46   C59   S    
C41   C42   A    
C35   C36   A    
C18   H45   S    
C34   C62   A    
C1    O8    A    
C47   C62   A    
C13   N2    A    
C6    H11   S    
C27   H34   S    
C37   H52   S    
C5    C9    A    
C57   H38   S    
C4    C63   S    
C26   C27   A    
C61   N8    S    
C36   C37   S    
C1    O1    A    
C54   H26   S    
C17   C64   A    
C30   C31   A    
H25   N6    S    
O8    Zn2   S    
C40   O4    S    
C1    C31   S    
C49   H14   S    
C30   C38   S    
C18   C19   A    
C20   C24   A    
C45   C56   A    
C28   O2    A    
C8    C9    A    
C56   H8    S    
C15   C64   A    
C44   H6    S    
C53   H22   S    
O3    Zn2   S    
C48   H1    S    
C41   H4    S    
C60   H39   S    
C9    C10   A    
C38   N7    S    
C28   O3    A    
C43   N4    A    
C40   N1    A    
C54   N6    S    
C59   C60   S    
C21   C22   A    
C50   C63   A    
C2    C6    A    
C58   H33   S    
H44   N8    S    
C55   H30   S    
C61   H46   S    
C44   C46   S    
C50   C51   S    
C7    H10   S    
C25   C29   A    
C40   C45   A    
C55   N7    S    
C33   H51   S    
C59   H42   S    
C15   N8    S    
C47   O6    S    
C2    C20   A    
C51   C52   S    
C14   H9    S    
C7    C8    A    
C58   H36   S    
C38   H3    S    
C19   N2    S    
O12   Zn2   S    
C61   H48   S    
C39   C43   A    
C21   C34   A    
O1    Zn1   S    
H20   N5    S    
C12   H2    S    
C42   H5    S    
C59   H43   S    
C23   N1    S    
C43   C44   S    
C54   H28   S    
C37   C38   S    
C31   C32   A    
C12   C23   A    
C44   C57   S    
C17   C18   A    
C60   H40   S    
C34   C45   A    
C41   N3    A    
C51   H18   S    
C46   H7    S    
C39   C46   S    
C28   C64   S    
C55   H31   S    
C48   C49   A    
C26   N5    S    
C2    C5    A    
C61   H47   S    
C51   H19   S    
C4    O10   A    
O11   Zn1   S    
C29   H49   S    
C23   C48   A    
C17   H23   S    
N3    Zn2   S    
C14   C19   A    
C3    C26   A    
C58   H35   S    
H29   N7    S    
C55   H32   S    
C3    C5    A    
C11   O7    S    
O10   Zn2   S    
C12   C50   A    
C6    C7    A    
C24   C56   A    
C57   H37   S    
C30   C36   A    
C25   H12   S    
C32   C33   A    
C54   H27   S    
C16   C35   S    
C53   N5    S    
C11   N2    A    
C42   N4    A    
C57   C58   S    
C39   N3    A    
C33   C35   A    
C53   H24   S    
C25   C62   A    
C52   H17   S    
C10   C11   A    
C37   N6    S    
C24   H13   S    
C47   N1    A    
C20   C21   A    
C13   O5    S    
C14   C15   A    
C3    C22   A    
C53   H21   S    
N4    Zn1   S    
C32   H50   S    
C52   H16   S    
C16   O11   A    
C60   H41   S    
C4    O9    A    
C52   H15   S    
C16   O12   A    
