data_mof_unit_43933.cif
_audit_creation_date              2012-12-10T19:10:04-0500
_audit_creation_method            fapswitch 2.2
_symmetry_space_group_name_H-M    P1
_symmetry_Int_Tables_number       1
_space_group_crystal_system       triclinic
_cell_length_a                    10.889268
_cell_length_b                    10.892444
_cell_length_c                    9.556915
_cell_angle_alpha                 91.192428
_cell_angle_beta                  91.683262
_cell_angle_gamma                 88.586977
_cell_volume                      1132.49022503

loop_
_atom_site_label
_atom_site_type_symbol
_atom_type_description
_atom_site_fract_x
_atom_site_fract_y
_atom_site_fract_z
_atom_type_partial_charge
C1    C     C_R   0.495492 0.262723 0.498346 0.817625
C2    C     C_R   0.189716 0.695691 0.000900 0.269223
C3    C     C_R   0.928982 0.569591 0.398644 0.125677
C4    C     C_R   0.872295 0.506647 0.505995 -0.106186
C5    C     C_R   0.945789 0.448431 0.610982 -0.033094
C6    C     C_R   0.072377 0.450120 0.603957 -0.244222
C7    C     C_R   0.128855 0.504899 0.493482 -0.117300
C8    C     C_R   0.057253 0.562586 0.386929 0.019506
C9    C     C_R   0.876000 0.455037 0.857969 0.225788
C10   C     C_R   0.851322 0.392530 0.981016 -0.181539
C11   C     C_R   0.857125 0.264483 0.982816 -0.174638
C12   C     C_R   0.262450 0.503027 0.497642 0.814847
C13   C     C_R   0.885728 0.197487 0.861612 -0.159758
C14   C     C_R   0.904513 0.258198 0.737137 -0.228208
C15   C     C_R   0.898449 0.386925 0.733788 0.133905
C16   C     C_R   0.515346 0.067936 0.618670 0.080609
C17   C     C_R   0.484205 0.129958 0.496729 -0.175562
C18   C     C_R   0.440119 0.061815 0.379222 0.247914
C19   C     C_R   0.442214 0.932889 0.383573 -0.305173
C20   C     C_R   0.488745 0.871450 0.502462 -0.134209
C21   C     C_R   0.518025 0.941128 0.622560 0.079544
C22   C     C_3   0.632596 0.942832 0.714086 -0.078749
C23   C     C_R   0.498891 0.737831 0.501131 0.859336
C24   C     C_3   0.627634 0.082011 0.708849 -0.090408
C25   C     C_R   0.580606 0.569878 0.078380 0.282624
C26   C     C_R   0.427269 0.423767 0.070163 -0.067075
C27   C     C_R   0.427521 0.423402 0.921343 -0.109760
C28   C     C_R   0.581173 0.568975 0.930939 0.260998
C29   C     C_3   0.588189 0.704390 0.929290 -0.549692
C30   C     C_3   0.585907 0.706113 0.086810 -0.504045
C31   C     C_R   0.737967 0.500610 0.502283 0.831860
C32   C     C_R   0.177331 0.777708 0.116261 0.117286
C33   C     C_R   0.137881 0.734393 0.245414 0.133842
C34   C     C_R   0.111640 0.609389 0.258517 0.091633
C35   C     C_R   0.124313 0.528925 0.143202 -0.245172
C36   C     C_R   0.163199 0.571606 0.015807 -0.193545
Cu1   Cu    Cu3+1 0.499990 0.499980 0.640670 0.932598
Cu2   Cu    Cu3+1 0.500010 0.500020 0.359330 0.958927
H1    H     H_    0.840924 0.217141 0.078773 0.133011
H2    H     H_    0.892551 0.098233 0.863865 0.131312
H3    H     H_    0.928579 0.205065 0.644405 0.128760
H4    H     H_    0.410239 0.881133 0.292551 0.173661
H5    H     H_    0.619289 0.911215 0.820798 0.174972
H6    H     H_    0.704511 0.124955 0.655391 0.145576
H7    H     H_    0.365431 0.365038 0.122610 0.163858
H8    H     H_    0.366670 0.363316 0.862305 0.149060
H9    H     H_    0.677581 0.732461 0.890283 0.197520
H10   H     H_    0.504903 0.748472 0.880436 0.227973
H11   H     H_    0.672336 0.739085 0.137440 0.206645
H12   H     H_    0.500241 0.749787 0.126407 0.215896
H13   H     H_    0.101972 0.433026 0.151532 0.155708
H14   H     H_    0.171306 0.508174 0.927704 0.156060
H15   H     H_    0.127722 0.405688 0.685554 0.160882
H16   H     H_    0.832187 0.442412 0.077009 0.132776
N1    N     N_R   0.500790 0.500930 0.147930 -0.189547
N2    N     N_R   0.500790 0.500890 0.852020 -0.196108
O1    O     O_R   0.500000 0.319640 0.618810 -0.587622
O2    O     O_R   0.500010 0.319680 0.381230 -0.559022
O3    O     O_R   0.319640 0.499990 0.618790 -0.603020
O4    O     O_R   0.319650 0.500030 0.381210 -0.578338
O5    O     O_R   0.499990 0.680320 0.618770 -0.581471
O6    O     O_R   0.500000 0.680360 0.381190 -0.587111
O7    O     O_R   0.680350 0.499970 0.618790 -0.592264
O8    O     O_R   0.680360 0.500010 0.381210 -0.558130
N3    N     N_2   0.232605 0.737295 0.871421 -0.451131
H17   H     H_    0.294515 0.676694 0.825912 0.277704
C37   C     C_3   0.136465 0.774785 0.772598 -0.661266
H18   H     H_    0.178320 0.815191 0.680075 0.231441
H19   H     H_    0.074006 0.844927 0.820341 0.218295
H20   H     H_    0.082510 0.694310 0.736792 0.259220
N4    N     N_2   0.394304 0.121367 0.257031 -0.421182
H21   H     H_    0.305513 0.097847 0.230209 0.260594
C38   C     C_3   0.475013 0.110894 0.139691 -0.668254
H22   H     H_    0.492672 0.013019 0.109897 0.216094
H23   H     H_    0.563702 0.155300 0.166240 0.242692
H24   H     H_    0.431173 0.157389 0.048266 0.232935
N5    N     N_3   0.739707 0.886174 0.646676 -0.600016
H25   H     H_    0.752219 0.926027 0.549540 0.223956
H26   H     H_    0.817320 0.905369 0.709578 0.211860
N6    N     N_3   0.597290 0.139624 0.843209 -0.589945
H27   H     H_    0.611375 0.233813 0.836661 0.266057
H28   H     H_    0.659827 0.107079 0.919517 0.216554
N7    N     N_3   0.203960 0.904958 0.103433 -0.633526
H29   H     H_    0.142069 0.943307 0.030080 0.228336
H30   H     H_    0.292366 0.911046 0.064857 0.234601
N8    N     N_3   0.120412 0.817000 0.362278 -0.616857
H31   H     H_    0.058378 0.886756 0.331419 0.222591
H32   H     H_    0.204226 0.857046 0.388548 0.231201
N9    N     N_3   0.855461 0.645047 0.305509 -0.584974
H33   H     H_    0.881543 0.736199 0.319687 0.222568
H34   H     H_    0.871816 0.617970 0.202419 0.202483
N10   N     N_3   0.889862 0.585871 0.860891 -0.613920
H35   H     H_    0.866845 0.623159 0.958427 0.199173
H36   H     H_    0.828577 0.623747 0.786768 0.236268

loop_
_geom_bond_atom_site_label_1
_geom_bond_atom_site_label_2
_ccdc_geom_bond_type
C16   C21   A    
C38   H22   S    
C35   C36   A    
C2    N3    S    
C26   N1    A    
C28   N2    A    
C7    C8    A    
N5    H25   S    
C25   C28   A    
C26   C27   A    
C29   C30   S    
C29   H9    S    
C28   C29   S    
C18   C19   A    
C5    C6    A    
N8    H32   S    
C25   C30   S    
C2    C32   A    
C34   C35   A    
C13   H2    S    
C26   H7    S    
Cu2   O2    S    
Cu1   N2    S    
C24   N6    S    
C23   O6    A    
Cu2   N1    S    
C19   C20   A    
C16   C17   A    
N3    C37   S    
N9    H34   S    
C9    C10   A    
C36   H14   S    
C19   H4    S    
C30   H12   S    
C16   C24   S    
C21   C22   S    
C38   H23   S    
C9    N10   S    
Cu1   O7    S    
C33   C34   A    
Cu2   O8    S    
N5    H26   S    
C7    C12   S    
C29   H10   S    
C37   H18   S    
C31   O7    A    
N6    H28   S    
C3    C8    A    
N4    C38   S    
C27   N2    A    
N6    H27   S    
C37   H19   S    
C33   N8    S    
Cu1   Cu2   S    
C1    O1    A    
N7    H29   S    
C20   C23   S    
N10   H36   S    
C17   C18   A    
C8    C34   S    
C11   H1    S    
Cu1   O3    S    
C14   H3    S    
Cu2   O4    S    
C27   H8    S    
N7    H30   S    
C30   H11   S    
C35   H13   S    
C24   H6    S    
C38   H24   S    
C22   C24   S    
C6    H15   S    
C3    C4    A    
C2    C36   A    
C18   N4    S    
C32   N7    S    
N8    H31   S    
C31   O8    A    
C25   N1    A    
C22   N5    S    
C4    C5    A    
Cu1   O5    S    
C6    C7    A    
C1    C17   S    
C3    N9    S    
C37   H20   S    
C32   C33   A    
C9    C15   A    
N4    H21   S    
C1    O2    A    
C11   C13   A    
N10   H35   S    
C12   O3    A    
C10   H16   S    
C5    C15   S    
C4    C31   S    
C10   C11   A    
C12   O4    A    
C23   O5    A    
C20   C21   A    
N3    H17   S    
C14   C15   A    
N9    H33   S    
C13   C14   A    
C22   H5    S    
Cu1   O1    S    
Cu2   O6    S    
