data_mof_unit_53092.cif
_audit_creation_date              2012-12-10T18:18:19-0500
_audit_creation_method            fapswitch 2.2
_symmetry_space_group_name_H-M    P1
_symmetry_Int_Tables_number       1
_space_group_crystal_system       triclinic
_cell_length_a                    14.026257
_cell_length_b                    14.99884
_cell_length_c                    15.515046
_cell_angle_alpha                 89.880618
_cell_angle_beta                  67.984344
_cell_angle_gamma                 89.714914
_cell_volume                      3025.9729368

loop_
_atom_site_label
_atom_site_type_symbol
_atom_type_description
_atom_site_fract_x
_atom_site_fract_y
_atom_site_fract_z
_atom_type_partial_charge
C1    C     C_R   0.499059 0.673280 0.501548 0.948688
C2    C     C_R   0.497422 0.768932 0.504069 -0.123890
C3    C     C_R   0.594578 0.185139 0.447796 0.383149
C4    C     C_R   0.405386 0.814808 0.552469 0.383924
C5    C     C_R   0.594893 0.091608 0.451523 -0.000023
C6    C     C_R   0.405076 0.908347 0.548806 0.000343
C7    C     C_R   0.500880 0.046529 0.498225 0.037686
C8    C     C_R   0.499100 0.953435 0.502104 0.037313
C9    C     C_R   0.408504 0.094441 0.541407 0.127954
C10   C     C_R   0.591483 0.905528 0.458886 0.126129
C11   C     C_R   0.686532 0.042258 0.412202 -0.203420
C12   C     C_R   0.500928 0.326712 0.498492 0.949830
C13   C     C_R   0.313438 0.957700 0.588153 -0.202904
C14   C     C_R   0.684475 0.949922 0.415066 -0.179805
C15   C     C_R   0.315512 0.050042 0.585261 -0.182020
C16   C     C_R   0.436067 0.500912 0.676144 0.870056
C17   C     C_R   0.563950 0.501847 0.323904 0.875745
C18   C     C_R   0.174063 0.456550 0.569203 -0.059537
C19   C     C_R   0.825877 0.543725 0.431000 -0.055714
C20   C     C_R   0.229846 0.543312 0.431419 -0.006464
C21   C     C_R   0.770196 0.456442 0.568411 -0.013436
C22   C     C_R   0.130221 0.543732 0.429817 -0.026089
C23   C     C_R   0.383537 0.578024 0.098893 -0.220194
C24   C     C_R   0.869863 0.455847 0.569906 -0.029043
C25   C     C_R   0.050532 0.499036 0.500196 0.091147
C26   C     C_R   0.949803 0.499697 0.499004 0.091569
C27   C     C_R   0.071758 0.454114 0.571698 -0.077398
C28   C     C_R   0.928681 0.544213 0.427262 -0.077289
C29   C     C_R   0.109678 0.587709 0.358853 -0.192254
C30   C     C_R   0.890339 0.411922 0.640888 -0.194091
C31   C     C_R   0.010379 0.588143 0.355771 0.002192
C32   C     C_R   0.990104 0.409724 0.642909 -0.008903
C33   C     C_R   0.397691 0.513755 0.776681 -0.059302
C34   C     C_R   0.627280 0.548999 0.894084 -0.222971
C35   C     C_R   0.603056 0.514121 0.223234 -0.057442
C36   C     C_R   0.265662 0.556444 0.923218 -0.187146
C37   C     C_R   0.740766 0.527580 0.072740 -0.178477
C38   C     C_R   0.294799 0.534725 0.829304 -0.185093
C39   C     C_R   0.708352 0.515111 0.168628 -0.192279
C40   C     C_R   0.470168 0.514286 0.818239 -0.250350
C41   C     C_R   0.531310 0.529067 0.182268 -0.255953
C42   C     C_R   0.444659 0.542707 0.909449 0.095975
C43   C     C_R   0.561775 0.544838 0.087320 0.092466
C44   C     C_R   0.339916 0.560208 0.963763 0.161615
C45   C     C_R   0.310993 0.580473 0.057690 -0.211902
C46   C     C_R   0.668057 0.540257 0.031464 0.167696
C47   C     C_R   0.520480 0.549772 0.948770 0.068354
C48   C     C_R   0.488210 0.558021 0.046129 0.069367
C49   C     C_2   0.995734 0.633553 0.276148 0.368878
C50   C     C_2   0.005771 0.359622 0.719611 0.384942
C51   C     C_R   0.699837 0.546081 0.935203 -0.205427
C52   C     C_R   0.410308 0.186372 0.540837 -0.348912
C53   C     C_R   0.589678 0.813606 0.459353 -0.346635
C54   C     C_R   0.502547 0.231043 0.496084 -0.124132
H1    H     H_    0.231578 0.595678 0.100083 0.187718
H2    H     H_    0.547022 0.491172 0.778324 0.153364
H3    H     H_    0.765079 0.504939 0.199631 0.156167
H4    H     H_    0.237643 0.535173 0.797897 0.162058
H5    H     H_    0.185596 0.571149 0.963835 0.148900
H6    H     H_    0.822298 0.525598 0.030709 0.146443
H7    H     H_    0.356182 0.594618 0.171841 0.141200
H8    H     H_    0.656902 0.552868 0.819149 0.151568
H9    H     H_    0.339805 0.223512 0.576257 0.172524
H10   H     H_    0.660189 0.776476 0.423871 0.175398
H11   H     H_    0.760618 0.073891 0.380064 0.166154
H12   H     H_    0.780874 0.544649 0.891331 0.162880
H13   H     H_    0.239340 0.926068 0.620299 0.165102
H14   H     H_    0.755850 0.913135 0.383229 0.154138
H15   H     H_    0.244137 0.086828 0.617084 0.149371
H16   H     H_    0.929374 0.620558 0.258638 0.049432
H17   H     H_    0.081661 0.341417 0.716474 0.047631
H18   H     H_    0.719132 0.200973 0.338753 0.326876
H19   H     H_    0.280757 0.798935 0.661543 0.325865
H20   H     H_    0.195076 0.424987 0.621984 0.113192
H21   H     H_    0.804189 0.578262 0.380123 0.112623
H22   H     H_    0.291691 0.577805 0.377925 0.122680
H23   H     H_    0.708274 0.422127 0.622007 0.127937
H24   H     H_    0.172238 0.620949 0.304615 0.173871
H25   H     H_    0.827819 0.378204 0.694720 0.185414
H26   H     H_    0.450806 0.524285 0.225089 0.156352
N1    N     N_R   0.249980 0.499930 0.499960 -0.091792
N2    N     N_R   0.750020 0.500070 0.500040 -0.091967
O1    O     O_R   0.419720 0.632140 0.499980 -0.559460
O2    O     O_2   0.932460 0.336657 0.788304 -0.567805
O3    O     O_3   0.681319 0.233402 0.397213 -0.752945
O4    O     O_3   0.318645 0.766506 0.603070 -0.753398
O5    O     O_R   0.580280 0.367860 0.500020 -0.558327
O6    O     O_R   0.580270 0.632160 0.499970 -0.637751
O7    O     O_R   0.419730 0.367840 0.500030 -0.637037
O8    O     O_R   0.373870 0.499980 0.632250 -0.618277
O9    O     O_R   0.626130 0.500020 0.367750 -0.617493
O10   O     O_R   0.534420 0.500000 0.632240 -0.633449
O11   O     O_R   0.465580 0.500000 0.367760 -0.633751
O12   O     O_2   0.059490 0.686184 0.227433 -0.580496
Zn1   Zn    Zn3+2 0.392800 0.499980 0.500010 0.971182
Zn2   Zn    Zn3+2 0.607200 0.500020 0.499990 0.971385

loop_
_geom_bond_atom_site_label_1
_geom_bond_atom_site_label_2
_ccdc_geom_bond_type
O6    Zn2   S    
C16   O8    A    
C23   C45   A    
C22   C29   A    
C3    O3    S    
C2    C4    A    
C17   O9    A    
O10   Zn2   S    
C36   H5    S    
C41   H26   S    
H18   O3    S    
C50   O2    D    
C7    C8    A    
C34   C51   A    
C24   C26   A    
C5    C11   A    
N1    Zn1   S    
C11   C14   A    
C4    O4    S    
C39   H3    S    
C34   H8    S    
C18   N1    A    
C20   H22   S    
C1    C2    S    
C10   C53   A    
O9    Zn2   S    
C38   H4    S    
C29   H24   S    
C40   H2    S    
C22   C25   A    
C49   O12   D    
C19   N2    A    
C43   C48   A    
C1    O6    A    
C40   C42   A    
C18   H20   S    
C20   N1    A    
C41   C43   A    
C9    C52   A    
C42   C44   A    
C31   C49   S    
C52   C54   A    
C15   H15   S    
C33   C40   A    
N2    Zn2   S    
C12   O7    A    
O8    Zn1   S    
C4    C6    A    
C10   C14   A    
C5    C7    A    
C6    C8    A    
C25   C26   A    
C46   C51   A    
C2    C53   A    
C51   H12   S    
O7    Zn1   S    
C35   C39   A    
C50   H17   S    
C16   C33   S    
C37   C39   A    
C47   C48   A    
O1    Zn1   S    
O5    Zn2   S    
C19   C28   A    
C32   C50   S    
C3    C54   A    
C30   H25   S    
C8    C10   A    
C20   C22   A    
C16   O10   A    
C49   H16   S    
C13   C15   A    
C36   C44   A    
C25   C27   A    
C44   C45   A    
C13   H13   S    
C7    C9    A    
C23   C48   A    
C12   O5    A    
C27   C32   A    
C28   C31   A    
C18   C27   A    
C3    C5    A    
C52   H9    S    
C1    O1    A    
C26   C28   A    
C33   C38   A    
C19   H21   S    
C9    C15   A    
C29   C31   A    
C6    C13   A    
C30   C32   A    
C36   C38   A    
C53   H10   S    
C42   C47   A    
C35   C41   A    
C43   C46   A    
C24   C30   A    
H19   O4    S    
C37   H6    S    
C23   H7    S    
C17   O11   A    
C21   N2    A    
C45   H1    S    
O11   Zn1   S    
C21   C24   A    
C21   H23   S    
C14   H14   S    
C34   C47   A    
C17   C35   S    
C37   C46   A    
C12   C54   S    
C11   H11   S    
