data_mof_unit_39919.cif
_audit_creation_date              2013-03-05T16:47:25-0500
_audit_creation_method            fapswitch 2.2
_symmetry_space_group_name_H-M    P1
_symmetry_Int_Tables_number       1
_space_group_crystal_system       triclinic
_cell_length_a                    10.938511
_cell_length_b                    9.058497
_cell_length_c                    8.217062
_cell_angle_alpha                 90.740984
_cell_angle_beta                  91.271617
_cell_angle_gamma                 89.472604
_cell_volume                      813.898686496

loop_
_atom_site_label
_atom_site_type_symbol
_atom_site_description
_atom_site_fract_x
_atom_site_fract_y
_atom_site_fract_z
_atom_type_partial_charge
O1    O     O_R   0.500000 0.285340 0.636850 -0.571624
O2    O     O_R   0.500000 0.285340 0.363150 -0.609189
C1    C     C_R   0.502782 0.218205 0.499500 1.078947
O3    O     O_R   0.314790 0.499970 0.636880 -0.582575
O4    O     O_R   0.314790 0.499970 0.363120 -0.636677
O5    O     O_R   0.685210 0.499970 0.636880 -0.610185
O6    O     O_R   0.685210 0.499970 0.363120 -0.654861
N1    N     N_1   0.500000 0.500030 0.073640 -0.030892
N2    N     N_1   0.500000 0.500030 0.926360 -0.008271
C2    C     C_R   0.256941 0.502630 0.498758 0.993751
C3    C     C_R   0.741901 0.491985 0.502765 1.010789
Zn1   Zn    Zn3+2 0.500000 0.499990 0.682780 1.064890
Zn2   Zn    Zn3+2 0.500000 0.499990 0.317220 1.006667
O7    O     O_R   0.500000 0.714650 0.636900 -0.630624
O8    O     O_R   0.500000 0.714650 0.363100 -0.628516
C4    C     C_R   0.500380 0.781738 0.500673 0.868630
C5    C     C_1   0.502117 0.064893 0.499299 -0.038222
C6    C     C_3   0.078089 0.472971 0.690769 0.291812
C7    C     C_3   0.069690 0.363580 0.374945 0.283836
C8    C     C_3   0.929075 0.457682 0.699086 0.308548
C9    C     C_3   0.922084 0.346521 0.396365 0.216546
C10   C     C_1   0.501302 0.934898 0.501022 -0.139717
C11   C     C_3   0.069185 0.660262 0.433957 0.301008
C12   C     C_3   0.921484 0.654070 0.445208 0.271550
C13   C     C_3   0.119532 0.499364 0.498523 -0.262665
C14   C     C_3   0.877444 0.488346 0.509774 -0.249626
C15   C     C_3   0.119384 0.604550 0.809252 -0.820013
H1    H     H_    0.130103 0.566496 0.934260 0.242331
H2    H     H_    0.208535 0.655401 0.788209 0.262568
H3    H     H_    0.053942 0.695384 0.824157 0.213056
C16   C     C_3   0.099070 0.390540 0.192097 -0.704260
H4    H     H_    0.095744 0.288278 0.117555 0.315200
H5    H     H_    0.032229 0.457153 0.131069 0.190935
H6    H     H_    0.189787 0.431884 0.165952 0.273499
C17   C     C_3   0.868135 0.557481 0.836811 -0.802216
H7    H     H_    0.783423 0.510163 0.885697 0.266874
H8    H     H_    0.925559 0.557945 0.945967 0.193419
H9    H     H_    0.840581 0.670594 0.815709 0.224294
C18   C     C_3   0.853695 0.322456 0.225590 -0.671050
H10   H     H_    0.894132 0.223597 0.166164 0.284399
H11   H     H_    0.756296 0.291736 0.232221 0.266601
H12   H     H_    0.849619 0.410023 0.137918 0.203906
N3    N     N_R   0.146390 0.340385 0.759139 0.273929
O9    O     O_R   0.127581 0.206657 0.709044 -0.267769
O10   O     O_R   0.232279 0.353900 0.870932 -0.379252
N4    N     N_R   0.134961 0.220316 0.397422 0.279626
O11   O     O_R   0.247544 0.215298 0.450060 -0.393980
O12   O     O_R   0.099277 0.107443 0.308983 -0.409032
N5    N     N_R   0.893500 0.310587 0.763458 0.272603
O13   O     O_R   0.779919 0.269198 0.752019 -0.333473
O14   O     O_R   0.951838 0.258262 0.889525 -0.384527
N6    N     N_R   0.884919 0.205241 0.474384 0.242604
O15   O     O_R   0.959978 0.114795 0.545978 -0.324502
O16   O     O_R   0.771100 0.163528 0.467037 -0.442582
C19   C     C_3   0.131778 0.795860 0.527231 -0.731685
H13   H     H_    0.232898 0.791481 0.518022 0.210669
H14   H     H_    0.101161 0.900704 0.474356 0.318582
H15   H     H_    0.113236 0.827359 0.651474 0.230489
C20   C     C_3   0.113321 0.705866 0.257302 -0.820134
H16   H     H_    0.060118 0.670358 0.152069 0.206851
H17   H     H_    0.103201 0.825792 0.233677 0.273731
H18   H     H_    0.211012 0.685522 0.235556 0.258833
C21   C     C_3   0.870998 0.783019 0.554570 -0.754287
H19   H     H_    0.870011 0.889011 0.490190 0.309402
H20   H     H_    0.773869 0.766834 0.585299 0.214355
H21   H     H_    0.924081 0.809122 0.664947 0.240943
C22   C     C_3   0.857231 0.701516 0.280015 -0.804570
H22   H     H_    0.868343 0.624193 0.181783 0.216435
H23   H     H_    0.758059 0.725872 0.290198 0.261744
H24   H     H_    0.892955 0.807960 0.235995 0.252123

loop_
_geom_bond_atom_site_label_1
_geom_bond_atom_site_label_2
_geom_bond_distance
_ccdc_geom_bond_type
O6    C3    1.294686 A    
N3    O9    1.291178 A    
C21   H20   1.108952 S    
N5    O14   1.297216 A    
C11   C19   1.591479 S    
C8    N5    1.497854 S    
O7    C4    1.280707 A    
C15   H2    1.100398 S    
O4    Zn2   2.068946 S    
C5    C10   1.177944 T    
C9    C18   1.588954 S    
Zn2   O8    1.975914 S    
C9    C14   1.653795 S    
C22   H24   1.111533 S    
C7    C16   1.566118 S    
N6    O16   1.304298 A    
C19   H13   1.110675 S    
C19   H14   1.096028 S    
O2    C1    1.281335 A    
C21   H21   1.090540 S    
C20   H16   1.078779 S    
C18   H11   1.106314 S    
C6    N3    1.516097 S    
C15   H3    1.093117 S    
C11   C20   1.600345 S    
C7    N4    1.487048 S    
N3    O10   1.304759 A    
O5    C3    1.277376 A    
N1    Zn2   2.001517 S    
C6    C13   1.673815 S    
C8    C14   1.668914 S    
C22   H22   1.070080 S    
C15   H1    1.091229 S    
C2    C13   1.503565 S    
O4    C2    1.293656 A    
C7    C9    1.636973 S    
Zn1   O7    1.985487 S    
C1    C5    1.388844 S    
C18   H12   1.078373 S    
C6    C8    1.640148 S    
C11   C13   1.643573 S    
O5    Zn1   2.068941 S    
C7    C13   1.672348 S    
N2    Zn1   2.001507 S    
N4    O12   1.304393 A    
C12   C21   1.568415 S    
C20   H17   1.110122 S    
O3    Zn1   2.052488 S    
C16   H5    1.064695 S    
C11   C12   1.621850 S    
O3    C2    1.287504 A    
O8    C4    1.276444 A    
O6    Zn2   2.052484 S    
C17   H9    1.080452 S    
C16   H6    1.090628 S    
N6    O15   1.292320 A    
N5    O13   1.302101 A    
C3    C14   1.482555 S    
C19   H15   1.079537 S    
C22   H23   1.109771 S    
C18   H10   1.107701 S    
O2    Zn2   1.985481 S    
N4    O11   1.296739 A    
N1    N2    1.210208 T    
C20   H18   1.100809 S    
C4    C10   1.387497 S    
C12   C22   1.577472 S    
C17   H8    1.083517 S    
C8    C17   1.593193 S    
C9    N6    1.502155 S    
O1    Zn1   1.975898 S    
C6    C15   1.591516 S    
C16   H4    1.104342 S    
C12   C14   1.677024 S    
C21   H19   1.102041 S    
O1    C1    1.275912 A    
C17   H7    1.109958 S    
