data_mof_unit_48235.cif
_audit_creation_date              2012-12-11T14:29:39-0500
_audit_creation_method            fapswitch 2.2
_symmetry_space_group_name_H-M    P1
_symmetry_Int_Tables_number       1
_space_group_crystal_system       triclinic
_cell_length_a                    6.931637
_cell_length_b                    14.76329
_cell_length_c                    16.305877
_cell_angle_alpha                 90.283786
_cell_angle_beta                  89.25026
_cell_angle_gamma                 89.932635
_cell_volume                      1668.47721345

loop_
_atom_site_label
_atom_site_type_symbol
_atom_type_description
_atom_site_fract_x
_atom_site_fract_y
_atom_site_fract_z
_atom_type_partial_charge
O1    O     O_R   0.494400 0.416610 0.413880 -0.553777
O2    O     O_R   0.823920 0.406790 0.585520 -0.490533
O3    O     O_R   0.994250 0.583390 0.586120 -0.517083
C1    C     C_R   0.654402 0.384723 0.613326 0.817619
O4    O     O_R   0.824110 0.405730 0.414490 -0.522742
O5    O     O_R   0.994440 0.582310 0.413870 -0.543504
C2    C     C_R   0.656260 0.387157 0.383947 0.648027
O6    O     O_R   0.494210 0.417690 0.586130 -0.553242
O7    O     O_3   0.660810 0.557940 0.500000 -0.383670
V1    V     V_3+5 0.935650 0.489250 0.500000 1.583539
O8    O     O_R   0.324160 0.593210 0.414480 -0.544833
C3    C     C_R   0.157137 0.611910 0.384230 0.752753
O9    O     O_R   0.323970 0.594270 0.585510 -0.539294
C4    C     C_R   0.153534 0.614952 0.615094 0.904104
V2    V     V_3+5 0.435660 0.510750 0.500000 1.495686
O10   O     O_3   0.160630 0.442060 0.500000 -0.358783
H1    H     H_    0.220061 0.929756 0.506706 0.144819
C5    C     C_R   0.039196 0.564324 0.785408 0.272778
C6    C     C_R   0.008057 0.540861 0.868647 -0.072429
C7    C     C_R   0.069744 0.598380 0.930118 -0.171221
C8    C     C_R   0.139334 0.683822 0.911156 -0.068275
C9    C     C_R   0.122436 0.718346 0.830406 -0.036421
C10   C     C_R   0.097958 0.655045 0.764981 0.016069
C11   C     C_R   0.129605 0.812932 0.814244 -0.148263
C12   C     C_R   0.148470 0.843907 0.731539 -0.008024
C13   C     C_R   0.158788 0.778857 0.665443 -0.031947
C14   C     C_R   0.136420 0.683935 0.682578 -0.159251
C15   C     C_R   0.161116 0.938607 0.712778 0.336016
C16   C     C_R   0.188371 0.966553 0.631642 -0.234375
C17   C     C_R   0.200445 0.904545 0.568537 -0.211943
C18   C     C_R   0.183999 0.811533 0.583303 0.339891
H2    H     H_    0.070565 0.575052 0.993183 0.149328
H3    H     H_    0.199250 0.037837 0.616801 0.135263
C19   C     C_2   0.997488 0.695603 0.271970 -0.119966
C20   C     C_2   0.157644 0.673476 0.313066 -0.278371
H4    H     H_    0.860448 0.665800 0.290446 0.129114
H5    H     H_    0.297442 0.696565 0.290950 0.183725
C21   C     C_2   0.000753 0.751486 0.195957 -0.046100
C22   C     C_2   0.115483 0.825654 0.186390 0.195273
C23   C     C_2   0.783091 0.214543 0.783491 -0.115385
C24   C     C_2   0.620115 0.173046 0.811001 -0.341671
H6    H     H_    0.488318 0.180060 0.776293 0.133709
C25   C     C_2   0.789353 0.266523 0.704897 0.321893
C26   C     C_2   0.642486 0.321625 0.683586 -0.311174
H7    H     H_    0.511857 0.324143 0.721052 0.106028
C27   C     C_2   0.770594 0.219223 0.207794 -0.132309
C28   C     C_2   0.613906 0.168369 0.187881 0.227693
C29   C     C_2   0.779940 0.269126 0.287662 0.333998
C30   C     C_2   0.645768 0.332518 0.307137 0.228928
O11   O     O_R   0.770210 0.079270 0.910680 -0.531929
O12   O     O_R   0.440150 0.091160 0.082270 -0.538833
O13   O     O_R   0.269970 0.914530 0.082860 -0.535274
C31   C     C_R   0.608104 0.111302 0.111972 0.618674
O14   O     O_R   0.440480 0.090100 0.911240 -0.519286
O15   O     O_R   0.270310 0.913460 0.910610 -0.527015
C32   C     C_R   0.610402 0.111696 0.882930 0.792282
O16   O     O_R   0.769870 0.080340 0.082930 -0.552972
O17   O     O_3   0.603660 0.938980 0.996790 -0.365398
V3    V     V_3+5 0.328750 0.007610 0.996740 1.562985
O18   O     O_R   0.940600 0.902510 0.911180 -0.537455
C33   C     C_R   0.111598 0.878846 0.884179 0.814010
O19   O     O_R   0.940270 0.903570 0.082200 -0.551661
C34   C     C_R   0.107855 0.883776 0.111763 0.622772
V4    V     V_3+5 0.828770 0.986010 0.996670 1.532945
O20   O     O_3   0.103730 0.054750 0.996710 -0.349511
C35   C     C_1   0.871980 0.722529 0.131832 0.251101
N1    N     N_1   0.769648 0.698963 0.080492 -0.309391
O21   O     O_3   0.235045 0.850984 0.249833 -0.647987
H8    H     H_    0.299426 0.908794 0.235425 0.281939
C36   C     C_1   0.960286 0.212170 0.829662 0.366408
N2    N     N_1   0.101975 0.211098 0.866390 -0.318905
O22   O     O_3   0.952140 0.262122 0.654837 -0.626690
H9    H     H_    0.037034 0.212934 0.674405 0.272298
C37   C     C_1   0.936523 0.228484 0.153496 0.275244
N3    N     N_1   0.069270 0.236229 0.110311 -0.273395
O23   O     O_3   0.461391 0.164827 0.243624 -0.617542
H10   H     H_    0.365243 0.120131 0.224511 0.286848
O24   O     O_3   0.930370 0.252891 0.340569 -0.643219
H11   H     H_    0.010548 0.203126 0.317298 0.300253
O25   O     O_3   0.005328 0.501377 0.724366 -0.653325
H12   H     H_    0.003391 0.439426 0.747245 0.294142
O26   O     O_3   0.500452 0.349517 0.251595 -0.622916
H13   H     H_    0.423941 0.402528 0.270520 0.290673
C38   C     C_1   0.916073 0.457424 0.893184 0.313943
N4    N     N_1   0.840716 0.391282 0.913682 -0.338003
C39   C     C_1   0.267934 0.723017 0.970131 0.266572
N5    N     N_1   0.375782 0.751496 0.017117 -0.298867
O27   O     O_3   0.146431 0.003894 0.773608 -0.647545
H14   H     H_    0.165335 0.064989 0.749875 0.271038
O28   O     O_3   0.188385 0.752838 0.517176 -0.658792
H15   H     H_    0.207364 0.787001 0.465467 0.290120

loop_
_geom_bond_atom_site_label_1
_geom_bond_atom_site_label_2
_ccdc_geom_bond_type
C11   C33   S    
O15   V3    S    
O11   V4    S    
C22   O21   S    
C6    C7    A    
C1    O6    A    
C12   C15   A    
C13   C14   A    
O19   C34   A    
C23   C36   S    
C15   C16   A    
C20   H5    S    
C28   O23   S    
C5    C6    A    
O5    C3    A    
C17   C18   A    
V2    O10   S    
C16   H3    S    
C19   C20   D    
C24   H6    S    
C29   O24   S    
O19   V4    S    
C27   C28   D    
O8    V2    S    
C23   C25   S    
C21   C35   S    
O21   H8    S    
C15   O27   S    
C36   N2    T    
O1    V2    S    
C10   C14   A    
C4    C14   S    
O7    V1    S    
C28   C31   S    
O27   H14   S    
C35   N1    T    
C13   C18   A    
O1    C2    A    
O9    C4    A    
H1    C17   S    
C27   C29   S    
O14   V3    S    
O17   V4    S    
O14   C32   A    
C37   N3    T    
C5    C10   A    
C11   C12   A    
C2    C30   S    
O4    C2    A    
C31   O16   A    
C39   N5    T    
O22   H9    S    
C1    C26   S    
O17   V3    S    
O11   C32   A    
O18   C33   A    
O12   C31   A    
C30   O26   S    
O2    C1    A    
C25   C26   D    
C24   C32   S    
C16   C17   A    
O13   V3    S    
C18   O28   S    
C38   N4    T    
C3    C20   S    
O3    C4    A    
C23   C24   D    
O6    V2    S    
O9    V2    S    
C9    C11   A    
O12   V3    S    
C6    C38   S    
O2    V1    S    
C27   C37   S    
C26   H7    S    
O16   V4    S    
C7    H2    S    
C25   O22   S    
C8    C39   S    
C29   C30   D    
C19   C21   S    
O25   H12   S    
O13   C34   A    
O5    V1    S    
O8    C3    A    
C22   C34   S    
O18   V4    S    
V4    O20   S    
C12   C13   A    
O4    V1    S    
O3    V1    S    
V1    O10   S    
V3    O20   S    
O23   H10   S    
O24   H11   S    
O28   H15   S    
C21   C22   D    
O15   C33   A    
C19   H4    S    
O7    V2    S    
C7    C8    A    
C5    O25   S    
O26   H13   S    
C9    C10   A    
C8    C9    A    
