data_mof_unit_38586.cif
_audit_creation_date              2012-12-11T16:35:25-0500
_audit_creation_method            fapswitch 2.2
_symmetry_space_group_name_H-M    P1
_symmetry_Int_Tables_number       1
_space_group_crystal_system       triclinic
_cell_length_a                    6.919405
_cell_length_b                    17.64965
_cell_length_c                    19.627555
_cell_angle_alpha                 108.944413
_cell_angle_beta                  90.599148
_cell_angle_gamma                 90.581271
_cell_volume                      2266.82354241

loop_
_atom_site_label
_atom_site_type_symbol
_atom_type_description
_atom_site_fract_x
_atom_site_fract_y
_atom_site_fract_z
_atom_type_partial_charge
O1    O     O_R   0.505700 0.440210 0.561730 -0.510680
O2    O     O_R   0.169350 0.406300 0.412660 -0.547269
O3    O     O_R   0.005650 0.559790 0.438270 -0.505084
C1    C     C_R   0.337471 0.382769 0.384811 0.710649
O4    O     O_R   0.175560 0.430650 0.559600 -0.545797
O5    O     O_R   0.011900 0.584320 0.586250 -0.542183
C2    C     C_R   0.345074 0.416558 0.582135 0.722684
O6    O     O_R   0.499450 0.415680 0.413750 -0.545362
O7    O     O_3   0.341370 0.550390 0.508570 -0.349287
V1    V     V_3+5 0.063940 0.490650 0.498410 1.558430
O8    O     O_R   0.682570 0.593700 0.587340 -0.522288
C3    C     C_R   0.853873 0.618137 0.614317 0.820276
O9    O     O_R   0.676370 0.569350 0.440400 -0.522927
C4    C     C_R   0.844926 0.579873 0.414979 0.813128
V2    V     V_3+5 0.564750 0.509350 0.501590 1.591932
O10   O     O_3   0.837190 0.449610 0.491430 -0.372155
C5    C     C_R   0.033075 0.675839 0.278344 -0.167042
H1    H     H_    0.161745 0.673930 0.246938 0.140679
C6    C     C_R   0.026437 0.629256 0.324015 0.357543
C7    C     C_R   0.857988 0.627758 0.364466 -0.107414
C8    C     C_R   0.700574 0.674634 0.357136 -0.091734
H2    H     H_    0.570887 0.676582 0.387962 0.203690
C9    C     C_R   0.709941 0.721916 0.312021 -0.126691
H3    H     H_    0.587202 0.758572 0.309681 0.125654
C10   C     C_R   0.876758 0.723323 0.272031 0.017739
C11   C     C_R   0.724812 0.786628 0.186332 -0.135476
H4    H     H_    0.586333 0.760113 0.191550 0.104601
C12   C     C_R   0.737556 0.832619 0.140280 -0.164300
H5    H     H_    0.607847 0.841026 0.112355 0.124216
C13   C     C_R   0.915420 0.866207 0.129540 -0.057570
C14   C     C_R   0.079834 0.853410 0.166732 -0.163663
H6    H     H_    0.218541 0.879191 0.160463 0.121458
C15   C     C_R   0.066635 0.808350 0.213590 -0.127111
H7    H     H_    0.195842 0.801584 0.242517 0.107806
C16   C     C_R   0.889164 0.773678 0.223715 0.117071
H8    H     H_    0.185115 0.639163 0.914468 0.120853
C17   C     C_R   0.737922 0.904793 0.760421 -0.152475
C18   C     C_R   0.657399 0.919453 0.701122 -0.198073
C19   C     C_R   0.666581 0.861833 0.634065 -0.088927
C20   C     C_R   0.750717 0.787968 0.625944 0.355891
C21   C     C_R   0.810698 0.766614 0.687049 -0.001291
C22   C     C_R   0.814724 0.828834 0.755246 0.038098
C23   C     C_R   0.874086 0.687968 0.682406 -0.178687
C24   C     C_R   0.959191 0.675472 0.744382 0.047862
C25   C     C_R   0.973499 0.739456 0.810904 0.072972
C26   C     C_R   0.902015 0.815957 0.816202 -0.160036
C27   C     C_R   0.030353 0.599484 0.741892 -0.093871
C28   C     C_R   0.112167 0.587047 0.802417 -0.077669
C29   C     C_R   0.123460 0.649290 0.867293 -0.124821
C30   C     C_R   0.054103 0.724495 0.871928 -0.139876
H9    H     H_    0.740630 0.954827 0.809771 0.130566
H10   H     H_    0.598000 0.977621 0.706545 0.149677
H11   H     H_    0.618827 0.876771 0.587294 0.167590
H12   H     H_    0.024178 0.548254 0.693546 0.155335
H13   H     H_    0.165699 0.528495 0.798989 0.135285
H14   H     H_    0.062593 0.770203 0.924238 0.109226
H15   H     H_    0.945370 0.423909 0.188287 0.129736
C31   C     C_R   0.557913 0.241431 0.379244 -0.176506
C32   C     C_R   0.678258 0.178245 0.378179 0.440718
C33   C     C_R   0.712799 0.117961 0.313635 -0.158116
C34   C     C_R   0.627486 0.120415 0.249824 -0.225435
C35   C     C_R   0.508396 0.184802 0.248722 0.074869
C36   C     C_R   0.473254 0.247101 0.315051 0.009898
C37   C     C_R   0.420981 0.186819 0.183532 -0.170527
C38   C     C_R   0.298344 0.251696 0.185363 0.067088
C39   C     C_R   0.257950 0.312501 0.251990 0.061454
C40   C     C_R   0.350379 0.312053 0.316909 -0.168998
C41   C     C_R   0.216274 0.258048 0.120986 -0.124732
C42   C     C_R   0.090269 0.319466 0.122338 -0.126722
C43   C     C_R   0.044378 0.376484 0.187376 -0.095376
C44   C     C_R   0.127495 0.373523 0.251345 -0.101534
H16   H     H_    0.529207 0.284859 0.431259 0.139956
H17   H     H_    0.804482 0.068327 0.312857 0.159207
H18   H     H_    0.656010 0.070839 0.201776 0.140839
H19   H     H_    0.250273 0.216415 0.068644 0.107827
H20   H     H_    0.028075 0.322830 0.072574 0.116890
H21   H     H_    0.086321 0.419602 0.299885 0.153706
C45   C     C_R   0.527477 0.324525 0.722322 -0.164838
H22   H     H_    0.652344 0.330264 0.757467 0.141158
C46   C     C_R   0.520102 0.371905 0.677367 0.394995
C47   C     C_R   0.356908 0.367972 0.631888 -0.137829
C48   C     C_R   0.202777 0.316262 0.634462 -0.145255
H23   H     H_    0.075489 0.311471 0.600644 0.196961
C49   C     C_R   0.211860 0.268854 0.679592 -0.109606
H24   H     H_    0.091845 0.228762 0.678882 0.135989
C50   C     C_R   0.375164 0.272027 0.723873 0.010945
C51   C     C_R   0.222803 0.207109 0.807926 -0.136137
H25   H     H_    0.083912 0.231050 0.800186 0.103284
C52   C     C_R   0.236107 0.162609 0.855275 -0.161141
H26   H     H_    0.106254 0.152691 0.881724 0.120307
C53   C     C_R   0.414588 0.132280 0.869022 -0.051198
C54   C     C_R   0.579015 0.146866 0.833467 -0.179748
H27   H     H_    0.718156 0.123513 0.841885 0.117376
C55   C     C_R   0.565427 0.190806 0.785651 -0.130348
H28   H     H_    0.694764 0.199578 0.758393 0.110670
C56   C     C_R   0.387379 0.222152 0.772570 0.117317
O11   O     O_R   0.273230 0.084330 0.086440 -0.535738
O12   O     O_R   0.596660 0.069390 0.940470 -0.546869
O13   O     O_R   0.760270 0.915710 0.913690 -0.538753
C57   C     C_R   0.427123 0.084188 0.918751 0.682743
O14   O     O_R   0.603330 0.093680 0.087390 -0.538436
O15   O     O_R   0.766990 0.940160 0.061660 -0.543076
C58   C     C_R   0.435074 0.116909 0.115352 0.693325
O16   O     O_R   0.266510 0.059870 0.938470 -0.541583
O17   O     O_3   0.431050 0.949630 0.991510 -0.366867
V3    V     V_3+5 0.708490 0.009340 0.001580 1.409369
O18   O     O_R   0.096270 0.930570 0.059390 -0.544540
C59   C     C_R   0.927431 0.915433 0.080891 0.683653
O19   O     O_R   0.089600 0.906290 0.912460 -0.538286
C60   C     C_R   0.918771 0.883181 0.885267 0.695754
V4    V     V_3+5 0.207670 0.990600 0.998190 1.416879
O20   O     O_3   0.935250 0.050360 0.008480 -0.368688
Cl1   Cl    Cl    0.817675 0.736510 0.537906 -0.708489
Cl2   Cl    Cl    0.783766 0.174195 0.458636 -0.650215
Cl3   Cl    Cl    0.235335 0.573961 0.326692 -0.727306
Cl4   Cl    Cl    0.717374 0.437596 0.683588 -0.721170

loop_
_geom_bond_atom_site_label_1
_geom_bond_atom_site_label_2
_ccdc_geom_bond_type
C37   C58   S    
C51   H25   S    
C28   H13   S    
C21   C22   A    
V4    O20   S    
C44   H21   S    
C1    O6    A    
C47   C48   A    
V3    O20   S    
C25   C26   A    
C41   H19   S    
C19   H11   S    
C11   H4    S    
C35   C36   A    
C12   H5    S    
C49   C50   A    
C3    C23   S    
O19   V4    S    
O5    C3    A    
C13   C14   A    
C17   H9    S    
C45   C46   A    
C18   H10   S    
V2    O10   S    
C33   H17   S    
C57   O16   A    
C42   H20   S    
C22   C26   A    
C17   C22   A    
C35   C37   A    
C5    C6    A    
O8    V2    S    
C27   C28   A    
C41   C42   A    
O18   C59   A    
C14   C15   A    
O15   C59   A    
C43   C44   A    
O1    V2    S    
H15   C43   S    
C52   C53   A    
O7    V1    S    
C34   C35   A    
C24   C27   A    
C45   C50   A    
C39   C40   A    
O17   V4    S    
C32   C33   A    
O14   C58   A    
O9    C4    A    
C21   C23   A    
C55   H28   S    
C11   C12   A    
C5    H1    S    
C36   C40   A    
C4    C7    S    
C49   H24   S    
C53   C54   A    
O4    C2    A    
C45   H22   S    
C31   C32   A    
O13   C60   A    
C20   Cl1   S    
C30   H14   S    
C33   C34   A    
O2    C1    A    
C23   C24   A    
C17   C18   A    
C1    C40   S    
C39   C44   A    
C6    Cl3   S    
C9    H3    S    
C38   C41   A    
C51   C56   A    
C54   C55   A    
C15   H7    S    
C55   C56   A    
O11   C58   A    
O3    C4    A    
C50   C56   S    
C10   C16   S    
C27   H12   S    
C20   C21   A    
C2    C47   S    
C48   H23   S    
O6    V2    S    
C48   C49   A    
O9    V2    S    
C53   C57   S    
O2    V1    S    
C19   C20   A    
C24   C25   A    
O14   V3    S    
O13   V3    S    
C28   C29   A    
C13   C59   S    
O1    C2    A    
O18   V4    S    
C14   H6    S    
C46   Cl4   S    
C31   C36   A    
C46   C47   A    
O5    V1    S    
O16   V4    S    
O8    C3    A    
C34   H18   S    
O17   V3    S    
O12   C57   A    
O12   V3    S    
C5    C10   A    
C37   C38   A    
C6    C7    A    
C8    C9    A    
O7    V2    S    
O4    V1    S    
C38   C39   A    
C26   C60   S    
V1    O10   S    
O19   C60   A    
C31   H16   S    
C18   C19   A    
C25   C30   A    
C32   Cl2   S    
O11   V4    S    
C12   C13   A    
C54   H27   S    
C15   C16   A    
O15   V3    S    
C9    C10   A    
C42   C43   A    
C11   C16   A    
C7    C8    A    
C29   C30   A    
O3    V1    S    
C51   C52   A    
C52   H26   S    
C8    H2    S    
H8    C29   S    
