data_mof_unit_38157.cif
_audit_creation_date              2012-12-10T17:03:26-0500
_audit_creation_method            fapswitch 2.2
_symmetry_space_group_name_H-M    P1
_symmetry_Int_Tables_number       1
_space_group_crystal_system       triclinic
_cell_length_a                    15.124562
_cell_length_b                    11.015102
_cell_length_c                    10.171044
_cell_angle_alpha                 111.153706
_cell_angle_beta                  101.707248
_cell_angle_gamma                 92.484769
_cell_volume                      1534.76485735

loop_
_atom_site_label
_atom_site_type_symbol
_atom_type_description
_atom_site_fract_x
_atom_site_fract_y
_atom_site_fract_z
_atom_type_partial_charge
C1    C     C_R   0.495174 0.254526 0.439872 0.777081
C2    C     C_R   0.505458 0.745596 0.560468 0.797003
C3    C     C_R   0.006712 0.301560 0.281476 -0.139004
C4    C     C_R   0.991312 0.705983 0.713867 -0.143031
C5    C     C_2   0.485279 0.113126 0.402927 0.093165
C6    C     C_2   0.515800 0.887423 0.600105 0.073870
C7    C     C_2   0.518924 0.065792 0.505098 0.116316
C8    C     C_2   0.479089 0.938435 0.502717 0.182403
C9    C     C_2   0.494413 0.526195 0.083899 0.568289
C10   C     C_2   0.481866 0.497888 0.915467 0.602584
C11   C     C_R   0.328675 0.497756 0.497022 0.842346
C12   C     C_R   0.671048 0.503336 0.503053 0.851308
C13   C     C_R   0.831746 0.611400 0.604523 0.102786
C14   C     C_R   0.166326 0.393247 0.392914 0.113160
C15   C     C_R   0.768083 0.504449 0.505283 -0.211210
C16   C     C_R   0.231099 0.497986 0.494413 -0.192587
C17   C     C_R   0.795704 0.402090 0.397031 0.358147
C18   C     C_R   0.203531 0.600393 0.603120 0.375063
C19   C     C_R   0.887593 0.403287 0.392473 0.008128
C20   C     C_R   0.111132 0.602017 0.605268 0.006026
C21   C     C_R   0.952735 0.504125 0.499513 0.000579
C22   C     C_R   0.045747 0.502331 0.497225 -0.003401
C23   C     C_R   0.924978 0.607846 0.607034 0.075532
C24   C     C_R   0.073230 0.398722 0.389409 0.073843
C25   C     C_R   0.915323 0.304286 0.282551 -0.166524
C26   C     C_R   0.083050 0.702209 0.713980 -0.163565
Cu1   Cu    Cu3+1 0.515770 0.521810 0.644910 1.038110
Cu2   Cu    Cu3+1 0.484230 0.478190 0.355090 1.051997
H1    H     H_    0.866570 0.227222 0.197100 0.200907
H2    H     H_    0.131823 0.779183 0.799508 0.197796
H3    H     H_    0.024029 0.222976 0.193973 0.200529
H4    H     H_    0.973470 0.785311 0.800097 0.198880
N1    N     N_2   0.460520 0.445420 0.137370 -0.040241
N2    N     N_2   0.539480 0.554580 0.862630 -0.066123
O1    O     O_R   0.508410 0.332340 0.577400 -0.576045
O2    O     O_R   0.491590 0.667660 0.422600 -0.512433
O3    O     O_R   0.481780 0.295500 0.332650 -0.539578
O4    O     O_R   0.518220 0.704500 0.667350 -0.571794
O5    O     O_R   0.383570 0.518390 0.622380 -0.496156
O6    O     O_R   0.616430 0.481610 0.377620 -0.545122
O7    O     O_R   0.356940 0.481550 0.377630 -0.615829
O8    O     O_R   0.643060 0.518450 0.622370 -0.600035
Br1   Br    Br    0.789838 0.771628 0.715161 -0.577337
Br2   Br    Br    0.204625 0.230619 0.281715 -0.597100
O9    O     O_3   0.731666 0.307141 0.286536 -0.554648
C27   C     C_3   0.717547 0.199407 0.326803 0.037697
H5    H     H_    0.675306 0.224460 0.407527 0.174448
H6    H     H_    0.782580 0.169692 0.372815 0.150115
C28   C     C_3   0.667014 0.082989 0.193611 -0.641346
H7    H     H_    0.710153 0.051911 0.113951 0.259084
H8    H     H_    0.650245 0.999854 0.225080 0.197573
H9    H     H_    0.603049 0.110456 0.142566 0.307810
O10   O     O_3   0.267831 0.691376 0.717047 -0.544143
C29   C     C_3   0.287871 0.799226 0.680120 0.012856
H10   H     H_    0.225227 0.839621 0.644045 0.150863
H11   H     H_    0.325433 0.769820 0.593091 0.165207
C30   C     C_3   0.347859 0.906611 0.812542 -0.624800
H12   H     H_    0.409907 0.868239 0.853050 0.299350
H13   H     H_    0.367987 0.990236 0.783894 0.199181
H14   H     H_    0.310115 0.940718 0.899422 0.267077
Br3   Br    Br    0.361524 0.850361 0.375419 -0.464792
Br4   Br    Br    0.637320 0.153644 0.630450 -0.485809
Br5   Br    Br    0.574224 0.990789 0.800846 -0.468728
Br6   Br    Br    0.434175 0.004856 0.201414 -0.441135
O11   O     O_3   0.398416 0.428936 0.825019 -0.571976
C31   C     C_3   0.403479 0.292121 0.754272 0.113752
H15   H     H_    0.384583 0.232457 0.811550 0.202713
H16   H     H_    0.472614 0.267502 0.745407 0.190064
C32   C     C_3   0.331082 0.233746 0.612380 -0.712060
H17   H     H_    0.344520 0.272469 0.532141 0.259217
H18   H     H_    0.329287 0.125478 0.565710 0.227223
H19   H     H_    0.262967 0.256780 0.631572 0.251686
O12   O     O_3   0.520656 0.654844 0.182929 -0.559119
C33   C     C_3   0.614073 0.693326 0.207346 0.066140
H20   H     H_    0.619048 0.748687 0.137671 0.207454
H21   H     H_    0.654836 0.609230 0.189661 0.189059
C34   C     C_3   0.654939 0.790273 0.360572 -0.703746
H22   H     H_    0.652770 0.744534 0.440455 0.262234
H23   H     H_    0.727491 0.822249 0.370644 0.213670
H24   H     H_    0.619228 0.878050 0.383622 0.262556
O13   O     O_3   0.626590 0.558626 0.935186 -0.595581
C35   C     C_3   0.689913 0.638443 0.906663 0.242590
H25   H     H_    0.657392 0.705196 0.857107 0.223164
H26   H     H_    0.730412 0.571629 0.840185 0.222577
C36   C     C_3   0.764299 0.719939 0.041578 -0.916669
H27   H     H_    0.782651 0.664953 0.113548 0.263300
H28   H     H_    0.826858 0.742239 0.008709 0.263530
H29   H     H_    0.744063 0.816192 0.101546 0.231555
O14   O     O_3   0.410851 0.333415 0.042245 -0.561414
C37   C     C_3   0.326849 0.326096 0.079591 0.261767
H30   H     H_    0.303753 0.424467 0.123979 0.181045
H31   H     H_    0.334208 0.276555 0.157103 0.238171
C38   C     C_3   0.251701 0.245369 0.947451 -0.856333
H32   H     H_    0.269791 0.146286 0.893302 0.245074
H33   H     H_    0.187396 0.234742 0.981163 0.253784
H34   H     H_    0.239497 0.295964 0.870119 0.259979

loop_
_geom_bond_atom_site_label_1
_geom_bond_atom_site_label_2
_ccdc_geom_bond_type
C31   H16   S    
C38   H32   S    
O12   C33   S    
O13   C35   S    
C30   H12   S    
C7    C8    S    
C34   H22   S    
C27   C28   S    
C33   H21   S    
C1    C5    S    
C19   C21   A    
C17   O9    S    
C30   H13   S    
C31   C32   S    
Cu2   O6    S    
Cu1   O4    S    
Cu2   O7    S    
C13   C23   A    
C14   C24   A    
C32   H18   S    
C12   O8    A    
C18   O10   S    
C27   H5    S    
Cu1   O5    S    
C28   H8    S    
C33   C34   S    
N2    O13   S    
C9    C10   S    
C18   C20   A    
C1    O3    A    
C8    Br3   S    
C34   H23   S    
C31   H15   S    
C38   H33   S    
C21   C22   A    
C9    N1    D    
C3    C24   A    
C2    C6    S    
C9    O12   S    
C29   H11   S    
C36   H28   S    
Cu1   N2    S    
C25   H1    S    
C27   H6    S    
C33   H20   S    
C3    C25   A    
C36   H29   S    
C5    C7    D    
C4    C23   A    
C30   H14   S    
C6    C8    D    
Cu1   O1    S    
C36   H27   S    
C35   H25   S    
C5    Br6   S    
C6    Br5   S    
C12   O6    A    
C32   H19   S    
C11   O5    A    
C7    Br4   S    
N1    O14   S    
C11   C16   S    
C2    O4    A    
C37   H31   S    
C12   C15   S    
C28   H9    S    
C10   N2    D    
C3    H3    S    
C4    H4    S    
C20   C22   A    
Cu2   N1    S    
C26   H2    S    
C38   H34   S    
C35   H26   S    
C21   C23   A    
C22   C24   A    
C13   Br1   S    
C1    O1    A    
C37   C38   S    
C14   Br2   S    
C10   O11   S    
C2    O2    A    
C15   C17   A    
C29   H10   S    
C4    C26   A    
O10   C29   S    
C35   C36   S    
C13   C15   A    
C34   H24   S    
Cu1   O8    S    
C37   H30   S    
C20   C26   A    
Cu2   O3    S    
C17   C19   A    
C11   O7    A    
C14   C16   A    
O11   C31   S    
C32   H17   S    
C19   C25   A    
O9    C27   S    
Cu2   O2    S    
C16   C18   A    
C28   H7    S    
Cu1   Cu2   S    
O14   C37   S    
C29   C30   S    
