data_mof_unit_19083.cif
_audit_creation_date              2012-12-10T17:19:02-0500
_audit_creation_method            fapswitch 2.2
_symmetry_space_group_name_H-M    P1
_symmetry_Int_Tables_number       1
_space_group_crystal_system       triclinic
_cell_length_a                    10.202489
_cell_length_b                    10.71492
_cell_length_c                    13.519997
_cell_angle_alpha                 94.991573
_cell_angle_beta                  100.445374
_cell_angle_gamma                 93.558765
_cell_volume                      1443.40678453

loop_
_atom_site_label
_atom_site_type_symbol
_atom_type_description
_atom_site_fract_x
_atom_site_fract_y
_atom_site_fract_z
_atom_type_partial_charge
C1    C     C_R   0.052430 0.734274 0.502064 0.932655
C2    C     C_2   0.016069 0.076908 0.570575 0.373720
C3    C     C_2   0.429781 0.514901 0.507155 0.586919
C4    C     C_2   0.569198 0.491295 0.487509 0.567121
C5    C     C_R   0.094142 0.513584 0.687215 0.971770
C6    C     C_R   0.906345 0.485412 0.312730 0.977861
C7    C     C_R   0.152268 0.542256 0.795292 -0.345779
C8    C     C_R   0.861387 0.484277 0.202699 -0.398419
C9    C     C_R   0.174333 0.676818 0.952182 0.547594
C10   C     C_R   0.886820 0.432021 0.028680 0.658182
C11   C     C_R   0.094731 0.622243 0.860601 0.322101
C12   C     C_R   0.949256 0.267404 0.503982 1.002398
C13   C     C_R   0.938856 0.438253 0.132711 0.272192
C14   C     C_R   0.282294 0.508788 0.826169 0.664846
C15   C     C_R   0.739329 0.532855 0.167492 0.670707
C16   C     C_R   0.367854 0.576865 0.908345 -0.145608
C17   C     C_R   0.695978 0.542299 0.064295 -0.167460
C18   C     C_R   0.311614 0.659503 0.974024 -0.388682
C19   C     C_R   0.764440 0.481659 0.993944 -0.352701
C20   C     C_R   0.505894 0.558201 0.931120 -0.167972
C21   C     C_R   0.575956 0.596943 0.029584 -0.192774
C22   C     C_3   0.166114 0.462760 0.152994 0.160080
C23   C     C_R   0.524276 0.689922 0.089072 0.638880
C24   C     C_3   0.290199 0.389804 0.161388 -0.693479
C25   C     C_3   0.929188 0.760820 0.839801 0.161337
C26   C     C_3   0.833890 0.789216 0.912250 -0.723208
C27   C     C_3   0.149328 0.108479 0.731062 0.171021
C28   C     C_3   0.271843 0.033383 0.750930 -0.792733
C29   C     C_3   0.781221 0.957747 0.612393 0.066129
C30   C     C_3   0.685080 0.907524 0.675998 -0.786148
C31   C     C_R   0.578150 0.505864 0.859628 0.605805
C32   C     C_R   0.393419 0.720852 0.061404 0.609753
C33   C     C_R   0.706718 0.469471 0.890807 0.654106
C34   C     C_2   0.077555 0.870603 0.521450 -0.404962
C35   C     C_2   0.928371 0.135384 0.508100 -0.450664
C36   C     C_2   0.993359 0.940185 0.566843 0.387142
F1    F     F_    0.346910 0.809133 0.121643 -0.561644
F2    F     F_    0.416470 0.613181 0.574253 -0.639799
F3    F     F_    0.771542 0.417921 0.819879 -0.560672
F4    F     F_    0.654992 0.557415 0.232688 -0.591061
F5    F     F_    0.320838 0.404345 0.778186 -0.604163
F6    F     F_    0.117079 0.743983 0.020487 -0.623918
F7    F     F_    0.954428 0.373310 0.962668 -0.605234
F8    F     F_    0.603157 0.758180 0.169923 -0.580881
F9    F     F_    0.531758 0.502116 0.758702 -0.586904
F10   F     F_    0.580844 0.402207 0.412384 -0.644175
H1    H     H_    0.841816 0.085581 0.458683 0.128582
H2    H     H_    0.878774 0.773382 0.762628 0.204864
H3    H     H_    0.017822 0.831006 0.857776 0.142121
H4    H     H_    0.869467 0.754038 0.986423 0.301562
H5    H     H_    0.827021 0.892186 0.924585 0.220983
H6    H     H_    0.732724 0.743725 0.879994 0.215405
H7    H     H_    0.061538 0.056169 0.751314 0.119277
H8    H     H_    0.168807 0.196075 0.783432 0.221871
H9    H     H_    0.360188 0.087110 0.733650 0.289841
H10   H     H_    0.292884 0.015012 0.831642 0.224088
H11   H     H_    0.254391 0.941924 0.703606 0.238052
H12   H     H_    0.160967 0.915873 0.494637 0.164508
H13   H     H_    0.724003 0.955429 0.533996 0.190675
H14   H     H_    0.811043 0.055930 0.646281 0.164188
H15   H     H_    0.727649 0.930569 0.757313 0.233921
H16   H     H_    0.589899 0.953488 0.659907 0.240006
H17   H     H_    0.662295 0.805373 0.658845 0.269620
H18   H     H_    0.665323 0.613323 0.599709 0.175971
H19   H     H_    0.336593 0.371200 0.412100 0.156990
H20   H     H_    0.184286 0.543295 0.212847 0.174020
H21   H     H_    0.151013 0.499570 0.077841 0.169664
H22   H     H_    0.276475 0.313179 0.098698 0.265187
H23   H     H_    0.378376 0.453584 0.156586 0.226406
H24   H     H_    0.308751 0.348281 0.234436 0.262275
N1    N     N_2   0.322180 0.446120 0.460900 -0.208653
N2    N     N_2   0.677820 0.553880 0.539100 -0.180700
O1    O     O_R   0.935190 0.693030 0.507870 -0.562308
O2    O     O_3   0.958319 0.633643 0.839621 -0.537517
O3    O     O_3   0.128589 0.143120 0.630888 -0.577610
O4    O     O_3   0.893165 0.884398 0.612299 -0.627766
O5    O     O_R   0.064810 0.306970 0.492130 -0.567803
O6    O     O_R   0.142080 0.658430 0.482770 -0.583556
O7    O     O_R   0.857920 0.341570 0.517230 -0.578207
O8    O     O_R   0.969700 0.527180 0.651960 -0.569020
O9    O     O_R   0.030300 0.472820 0.348040 -0.613492
O10   O     O_R   0.176600 0.492580 0.626860 -0.513277
O11   O     O_R   0.823400 0.507420 0.373140 -0.499979
O12   O     O_3   0.055942 0.382676 0.165165 -0.558660
Zn1   Zn    Zn3+2 0.861850 0.523100 0.516760 1.109592
Zn2   Zn    Zn3+2 0.138150 0.476900 0.483240 1.075599

loop_
_geom_bond_atom_site_label_1
_geom_bond_atom_site_label_2
_ccdc_geom_bond_type
C2    C35   D    
C8    C13   A    
C4    N2    D    
C35   H1    S    
N2    Zn1   S    
C28   H10   S    
C27   H8    S    
C24   H24   S    
C29   O4    S    
C4    F10   S    
C28   H11   S    
C7    C11   A    
C13   O12   S    
C9    F6    S    
O8    Zn1   S    
C22   C24   S    
C26   H4    S    
C12   O7    A    
C25   O2    S    
C22   H20   S    
C36   O4    S    
C7    C14   A    
C29   H13   S    
C3    F2    S    
C24   H23   S    
C31   C33   A    
O9    Zn2   S    
O6    Zn2   S    
C6    O9    A    
C30   H17   S    
C1    O6    A    
C27   O3    S    
C28   H9    S    
C1    C34   S    
C15   F4    S    
C19   C33   A    
C5    C7    S    
C6    C8    S    
C25   C26   S    
O10   Zn2   S    
C11   O2    S    
C17   C21   A    
C23   F8    S    
C5    O8    A    
C22   O12   S    
C3    N1    D    
C29   C30   S    
C26   H6    S    
N1    Zn2   S    
C29   H14   S    
C10   C19   A    
C16   C20   A    
C12   O5    A    
C33   F3    S    
C32   F1    S    
C12   C35   S    
C9    C11   A    
C25   H2    S    
O1    Zn1   S    
C14   F5    S    
O11   Zn1   S    
O5    Zn2   S    
C8    C15   A    
C30   H16   S    
C14   C16   A    
C18   C32   A    
C3    C4    S    
O7    Zn1   S    
C2    C36   S    
C15   C17   A    
C6    O11   A    
C10   F7    S    
C10   C13   A    
C27   H7    S    
C1    O1    A    
C23   C32   A    
C21   C23   A    
H19   N1    S    
C26   H5    S    
C5    O10   A    
C17   C19   A    
C34   C36   D    
H18   N2    S    
C25   H3    S    
C22   H21   S    
C24   H22   S    
C9    C18   A    
C20   C21   A    
C16   C18   A    
C31   F9    S    
C30   H15   S    
C27   C28   S    
C34   H12   S    
C2    O3    S    
C20   C31   A    
