data_mof_unit_56551.cif
_audit_creation_date              2012-12-11T14:12:07-0500
_audit_creation_method            fapswitch 2.2
_symmetry_space_group_name_H-M    P1
_symmetry_Int_Tables_number       1
_space_group_crystal_system       triclinic
_cell_length_a                    14.643353
_cell_length_b                    16.321221
_cell_length_c                    6.938997
_cell_angle_alpha                 90.018565
_cell_angle_beta                  98.306372
_cell_angle_gamma                 89.977155
_cell_volume                      1641.00496573

loop_
_atom_site_label
_atom_site_type_symbol
_atom_type_description
_atom_site_fract_x
_atom_site_fract_y
_atom_site_fract_z
_atom_type_partial_charge
O1    O     O_R   0.584460 0.414130 0.534110 -0.539191
O2    O     O_R   0.584460 0.585870 0.534110 -0.542905
O3    O     O_R   0.595580 0.585780 0.208030 -0.532987
O4    O     O_R   0.595580 0.414220 0.208030 -0.522952
O5    O     O_R   0.415540 0.585790 0.977250 -0.559901
O6    O     O_R   0.415540 0.414210 0.977250 -0.543943
C1    C     C_R   0.617982 0.612933 0.383325 0.756773
C2    C     C_R   0.616685 0.385995 0.382595 0.802505
O7    O     O_3   0.440930 0.500000 0.319360 -0.372708
V1    V     V_3+5 0.510960 0.500000 0.068030 1.600458
O8    O     O_R   0.404420 0.414140 0.643900 -0.515738
O9    O     O_R   0.404420 0.585860 0.643900 -0.519353
C3    C     C_R   0.380148 0.387526 0.806005 0.783910
C4    C     C_R   0.379970 0.612312 0.805966 0.733480
V2    V     V_3+5 0.489040 0.500000 0.560660 1.627515
O10   O     O_3   0.559070 0.500000 0.859200 -0.370386
H1    H     H_    0.154649 0.774220 0.847998 0.100783
H2    H     H_    0.154303 0.226426 0.849355 0.116123
H3    H     H_    0.327106 0.696210 0.096314 0.216160
H4    H     H_    0.327408 0.303665 0.096701 0.227679
C5    C     C_2   0.305897 0.676301 0.793703 -0.200790
C6    C     C_2   0.306304 0.323341 0.793942 -0.201172
C7    C     C_2   0.287506 0.714011 0.958557 -0.122612
C8    C     C_2   0.287817 0.285822 0.958943 -0.094619
C9    C     C_2   0.209384 0.830898 0.110081 -0.162210
C10   C     C_2   0.209569 0.168911 0.110089 -0.169476
C11   C     C_2   0.212693 0.775893 0.964289 -0.121989
C12   C     C_2   0.212747 0.224198 0.964848 -0.134809
C13   C     C_2   0.805168 0.774754 0.344844 -0.326283
C14   C     C_2   0.779132 0.204729 0.333037 -0.321832
C15   C     C_2   0.843077 0.805767 0.518827 0.266433
C16   C     C_2   0.804921 0.163623 0.501097 0.260734
H5    H     H_    0.815269 0.806483 0.212057 0.202837
H6    H     H_    0.817676 0.196256 0.212078 0.190081
C17   C     C_2   0.754949 0.695706 0.320730 0.048206
C18   C     C_2   0.696377 0.258034 0.297440 0.036250
C19   C     C_2   0.679338 0.684522 0.409682 -0.166643
C20   C     C_2   0.690490 0.324342 0.412950 -0.164968
H7    H     H_    0.658551 0.732921 0.501457 0.164657
H8    H     H_    0.745283 0.335811 0.532880 0.163085
O11   O     O_R   0.925070 0.912130 0.373190 -0.546460
O12   O     O_R   0.925070 0.087870 0.373190 -0.548396
O13   O     O_R   0.914170 0.083600 0.699490 -0.502856
O14   O     O_R   0.914170 0.916400 0.699490 -0.499704
O15   O     O_R   0.094290 0.084740 0.929940 -0.537276
O16   O     O_R   0.094290 0.915260 0.929940 -0.535574
C21   C     C_R   0.887294 0.109504 0.524528 0.643605
C22   C     C_R   0.896560 0.883188 0.528993 0.641959
O17   O     O_3   0.068710 0.000000 0.587750 -0.391583
V3    V     V_3+5 0.998820 0.000000 0.839270 1.579035
O18   O     O_R   0.105520 0.913050 0.263180 -0.557885
O19   O     O_R   0.105520 0.086950 0.263180 -0.558699
C23   C     C_R   0.129858 0.888168 0.100104 0.671493
C24   C     C_R   0.129885 0.111815 0.100123 0.649362
V4    V     V_3+5 0.020980 1.000000 0.346670 1.468897
O20   O     O_3   0.950820 1.000000 0.048230 -0.331021
C25   C     C_2   0.285913 0.843280 0.274131 0.402991
H9    H     H_    0.272546 0.875843 0.403548 0.039545
O21   O     O_2   0.364979 0.821995 0.263989 -0.522319
C26   C     C_2   0.286352 0.156022 0.273378 0.436915
H10   H     H_    0.273215 0.123018 0.402304 0.032627
O22   O     O_2   0.365339 0.177444 0.263150 -0.485900
C27   C     C_2   0.253418 0.698012 0.599749 0.425684
H11   H     H_    0.214520 0.754533 0.578975 0.023591
O23   O     O_2   0.252569 0.652518 0.459806 -0.516168
C28   C     C_2   0.254148 0.301139 0.600039 0.424267
H12   H     H_    0.215315 0.244578 0.579904 0.025012
O24   O     O_2   0.253513 0.346216 0.459480 -0.517366
S1    S     S_3+6 0.841413 0.751012 0.741602 -0.037371
O25   O     O_2   0.755247 0.773288 0.823789 -0.348227
O26   O     O_2   0.842921 0.659932 0.709466 -0.340413
O27   O     O_3   0.933036 0.776122 0.906168 -0.508425
H13   H     H_    0.986783 0.752226 0.854640 0.317876
S2    S     S_3+6 0.737306 0.166187 0.696149 -0.025593
O28   O     O_2   0.769042 0.237190 0.826581 -0.358263
O29   O     O_2   0.636292 0.176241 0.621670 -0.325075
O30   O     O_3   0.751002 0.079591 0.828732 -0.488877
H14   H     H_    0.726879 0.035419 0.737391 0.337015
C29   C     C_2   0.794247 0.632266 0.202607 0.497702
H15   H     H_    0.844983 0.650071 0.111251 0.142113
O31   O     O_2   0.775411 0.559738 0.213821 -0.527784
C30   C     C_2   0.622448 0.231662 0.139621 0.531127
H16   H     H_    0.636733 0.183165 0.041538 0.146499
O32   O     O_2   0.544370 0.259551 0.123072 -0.516286

loop_
_geom_bond_atom_site_label_1
_geom_bond_atom_site_label_2
_ccdc_geom_bond_type
C28   O24   D    
V4    O20   S    
C27   O23   D    
O1    C2    A    
O2    C1    A    
O4    C2    A    
O30   H14   S    
S2    O29   D    
C4    C5    S    
C20   H8    S    
C9    C23   S    
O3    C1    A    
C16   S2    S    
C25   O21   D    
V2    O10   S    
C13   H5    S    
C26   O22   D    
S1    O26   D    
C6    C28   S    
O8    V2    S    
O11   V4    S    
H4    C8    S    
C18   C30   S    
S2    O30   S    
O1    V2    S    
C7    C11   S    
O7    V1    S    
O19   V4    S    
C28   H12   S    
C2    C20   S    
C10   C24   S    
O19   C24   A    
S2    O28   D    
C14   H6    S    
C9    C25   S    
H2    C12   S    
C29   O31   D    
O17   V4    S    
V3    O20   S    
C29   H15   S    
C26   H10   S    
O18   C23   A    
H1    C11   S    
S1    O27   S    
H3    C7    S    
O12   V4    S    
O9    V2    S    
C1    C19   S    
O2    V2    S    
O5    C4    A    
O9    C4    A    
O15   C24   A    
C30   H16   S    
C30   O32   D    
C15   C22   S    
C5    C7    D    
C16   C21   S    
C6    C8    D    
O4    V1    S    
O14   V3    S    
C13   C17   S    
C17   C19   D    
C8    C12   S    
O27   H13   S    
O6    V1    S    
O13   V3    S    
C9    C11   D    
O16   V3    S    
C10   C12   D    
C14   C18   S    
C18   C20   D    
O7    V2    S    
O5    V1    S    
C13   C15   D    
O3    V1    S    
V1    O10   S    
O6    C3    A    
C14   C16   D    
O8    C3    A    
C25   H9    S    
O13   C21   A    
O15   V3    S    
O16   C23   A    
C17   C29   S    
O11   C22   A    
C3    C6    S    
O18   V4    S    
O12   C21   A    
S1    O25   D    
C5    C27   S    
C27   H11   S    
C15   S1    S    
C19   H7    S    
O17   V3    S    
C10   C26   S    
O14   C22   A    
