data_mof_unit_13972.cif
_audit_creation_date              2012-12-10T17:18:57-0500
_audit_creation_method            fapswitch 2.2
_symmetry_space_group_name_H-M    P1
_symmetry_Int_Tables_number       1
_space_group_crystal_system       triclinic
_cell_length_a                    10.183272
_cell_length_b                    10.722021
_cell_length_c                    13.607268
_cell_angle_alpha                 92.154728
_cell_angle_beta                  99.884497
_cell_angle_gamma                 96.339427
_cell_volume                      1452.280378

loop_
_atom_site_label
_atom_site_type_symbol
_atom_type_description
_atom_site_fract_x
_atom_site_fract_y
_atom_site_fract_z
_atom_type_partial_charge
C1    C     C_R   0.052084 0.732869 0.489819 0.847958
C2    C     C_R   0.944601 0.266445 0.502690 0.848910
C3    C     C_R   0.447302 0.526726 0.123375 0.372965
C4    C     C_R   0.553245 0.474510 0.876738 0.375213
C5    C     C_R   0.326746 0.575878 0.094932 -0.245663
C6    C     C_R   0.673581 0.424935 0.905158 -0.241552
C7    C     C_2   0.077159 0.864869 0.471459 0.209632
C8    C     C_2   0.906600 0.131719 0.491878 0.215318
C9    C     C_2   0.970021 0.927713 0.449263 -0.195679
C10   C     C_2   0.984251 0.062592 0.447449 -0.199559
C11   C     C_2   0.430664 0.515004 0.505135 0.007366
C12   C     C_2   0.569338 0.484982 0.494883 0.004771
C13   C     C_R   0.094346 0.518422 0.685876 0.906955
C14   C     C_R   0.905642 0.481545 0.314149 0.875437
C15   C     C_R   0.145943 0.540309 0.793302 -0.144973
C16   C     C_R   0.854020 0.459657 0.206785 -0.137079
C17   C     C_R   0.143184 0.622127 0.962663 0.221660
C18   C     C_R   0.856335 0.377253 0.037548 0.213983
C19   C     C_R   0.089034 0.615858 0.858889 0.138376
C20   C     C_R   0.910284 0.383329 0.141351 0.148983
C21   C     C_R   0.263534 0.490103 0.828454 -0.200534
C22   C     C_R   0.736963 0.510651 0.171552 -0.208345
C23   C     C_R   0.337182 0.525948 0.922451 0.070313
C24   C     C_R   0.663165 0.474880 0.077612 0.070839
C25   C     C_R   0.269778 0.577961 0.993967 0.034324
C26   C     C_R   0.730284 0.422395 0.006137 0.031119
C27   C     C_R   0.471914 0.499930 0.948799 -0.042547
C28   C     C_R   0.528565 0.501234 0.051290 -0.041382
H1    H     H_    0.274120 0.603079 0.153363 0.198330
H2    H     H_    0.726267 0.397730 0.846758 0.200391
H3    H     H_    0.702518 0.578573 0.218976 0.211983
H4    H     H_    0.298422 0.422597 0.780951 0.215763
H5    H     H_    0.068776 0.106549 0.417025 0.202393
H6    H     H_    0.868497 0.880128 0.441313 0.210724
H7    H     H_    0.579110 0.403441 0.448213 0.199196
H8    H     H_    0.420891 0.596540 0.551808 0.201719
H9    H     H_    0.664568 0.631405 0.581808 0.213189
H10   H     H_    0.335422 0.368625 0.418150 0.208913
N1    N     N_2   0.322180 0.446120 0.460900 -0.178763
N2    N     N_2   0.677820 0.553880 0.539100 -0.179307
O1    O     O_R   0.935190 0.693030 0.507870 -0.631929
O2    O     O_R   0.064810 0.306970 0.492130 -0.628855
O3    O     O_R   0.142080 0.658430 0.482770 -0.564061
O4    O     O_R   0.857920 0.341570 0.517230 -0.562730
O5    O     O_R   0.969700 0.527180 0.651960 -0.602582
O6    O     O_R   0.030300 0.472820 0.348040 -0.610578
O7    O     O_R   0.176600 0.492580 0.626860 -0.576226
O8    O     O_R   0.823400 0.507420 0.373140 -0.586041
Zn1   Zn    Zn3+2 0.861850 0.523100 0.516760 1.003393
Zn2   Zn    Zn3+2 0.138150 0.476900 0.483240 1.004492
C29   C     C_3   0.021817 0.306630 0.181890 -0.816702
H11   H     H_    0.006680 0.269339 0.254618 0.233795
H12   H     H_    0.021687 0.221312 0.133237 0.240575
H13   H     H_    0.120573 0.365141 0.190643 0.263551
C30   C     C_3   0.976524 0.691554 0.818529 -0.791606
H14   H     H_    0.991728 0.729894 0.746155 0.248265
H15   H     H_    0.878350 0.631934 0.809111 0.259958
H16   H     H_    0.975176 0.776184 0.867557 0.241232
C31   C     C_3   0.067326 0.673310 0.039087 -0.900926
H17   H     H_    0.962631 0.687209 0.007554 0.253419
H18   H     H_    0.057533 0.605132 0.097303 0.239221
H19   H     H_    0.121661 0.763657 0.074543 0.253720
C32   C     C_3   0.931711 0.325079 0.961233 -0.887284
H20   H     H_    0.035882 0.309693 0.992946 0.253023
H21   H     H_    0.876252 0.235326 0.925503 0.257138
H22   H     H_    0.942754 0.393287 0.903217 0.239090
Cl1   Cl    Cl    0.474583 0.476678 0.246421 -0.692445
Cl2   Cl    Cl    0.526275 0.525090 0.753838 -0.681952
Cl3   Cl    Cl    0.767085 0.065515 0.541634 -0.550187
Cl4   Cl    Cl    0.244360 0.936963 0.484231 -0.548106

loop_
_geom_bond_atom_site_label_1
_geom_bond_atom_site_label_2
_ccdc_geom_bond_type
O4    Zn1   S    
C12   N2    D    
O8    Zn1   S    
C15   C19   A    
C11   C12   S    
C32   H21   S    
O3    Zn2   S    
C14   C16   S    
C23   C27   A    
C2    O2    A    
O7    Zn2   S    
C9    C10   S    
O6    Zn2   S    
C5    H1    S    
C18   C26   A    
C13   C15   S    
O5    Zn1   S    
C30   H14   S    
C29   H13   S    
C17   C25   A    
C7    C9    D    
C4    C27   A    
C7    Cl4   S    
C23   C25   A    
C17   C31   S    
C32   H22   S    
C31   H17   S    
C14   O6    A    
C12   H7    S    
C13   O5    A    
C8    Cl3   S    
C6    C26   A    
O2    Zn2   S    
C5    C25   A    
C2    C8    S    
C1    O1    A    
C16   C20   A    
C17   C19   A    
C24   C26   A    
C10   H5    S    
C18   C20   A    
C30   H15   S    
C21   C23   A    
C9    H6    S    
C11   N1    D    
C21   H4    S    
C22   C24   A    
C18   C32   S    
C31   H18   S    
C3    C28   A    
C22   H3    S    
C29   H12   S    
C19   C30   S    
N2    Zn1   S    
C24   C28   A    
C15   C21   A    
N1    Zn2   S    
H10   N1    S    
C4    C6    A    
C30   H16   S    
O1    Zn1   S    
C27   C28   A    
C4    Cl2   S    
H9    N2    S    
C14   O8    A    
C20   C29   S    
C11   H8    S    
C31   H19   S    
C16   C22   A    
C6    H2    S    
C1    C7    S    
C13   O7    A    
C1    O3    A    
C8    C10   D    
C3    Cl1   S    
C29   H11   S    
C2    O4    A    
C32   H20   S    
C3    C5    A    
