data_mof_unit_42690.cif
_audit_creation_date              2013-03-05T15:54:20-0500
_audit_creation_method            fapswitch 2.2
_symmetry_space_group_name_H-M    P1
_symmetry_Int_Tables_number       1
_space_group_crystal_system       triclinic
_cell_length_a                    15.06504
_cell_length_b                    14.867464
_cell_length_c                    14.867524
_cell_angle_alpha                 109.400866
_cell_angle_beta                  109.192978
_cell_angle_gamma                 109.349412
_cell_volume                      2578.2122563

loop_
_atom_site_label
_atom_site_type_symbol
_atom_site_description
_atom_site_fract_x
_atom_site_fract_y
_atom_site_fract_z
_atom_type_partial_charge
C1    C     C_R   0.001603 0.803264 0.095034 -0.086849
H1    H     H_    0.978680 0.830452 0.156202 0.156389
N1    N     N_R   0.995640 0.706130 0.053910 -0.059681
C2    C     C_R   0.779527 0.218258 0.686693 -0.107595
H2    H     H_    0.801011 0.188888 0.625069 0.119687
N2    N     N_R   0.848310 0.293860 0.791110 -0.042832
C3    C     C_R   0.037110 0.590593 0.774202 -0.013237
H3    H     H_    0.064396 0.674317 0.794485 0.110995
N3    N     N_R   0.054010 0.556790 0.847890 -0.042249
C4    C     C_R   0.685980 0.411407 0.938932 -0.110871
H4    H     H_    0.620155 0.329308 0.898750 0.102345
N4    N     N_R   0.789940 0.443190 0.997130 -0.041314
C5    C     C_R   0.950019 0.408027 0.684006 -0.083430
H5    H     H_    0.901064 0.323740 0.622452 0.084657
N5    N     N_R   0.997630 0.443170 0.791110 -0.044880
C6    C     C_R   0.779671 0.594776 0.028115 -0.093578
H6    H     H_    0.804071 0.680654 0.065096 0.110441
N6    N     N_R   0.846320 0.556810 0.053910 -0.049670
C7    C     C_R   0.687412 0.220003 0.777728 -0.122867
H7    H     H_    0.625157 0.193080 0.798592 0.111288
N7    N     N_R   0.791080 0.293860 0.847890 -0.048722
C8    C     C_R   0.094706 0.806240 0.006327 -0.017027
N8    N     N_R   0.052880 0.706130 0.997130 -0.053000
C9    C     C_R   0.063282 0.869072 0.067588 -0.032577
C10   C     C_R   0.677592 0.179026 0.675246 0.055279
C11   C     C_R   0.972746 0.498699 0.669467 0.031436
C12   C     C_R   0.677448 0.505058 0.954279 0.052467
C13   C     C_R   0.988511 0.592762 0.294957 -0.099458
H8    H     H_    0.001919 0.674556 0.336430 0.172564
N9    N     N_R   0.002370 0.556830 0.208890 -0.053271
C14   C     C_R   0.210510 0.410090 0.904731 0.327365
N10   N     N_R   0.153680 0.443190 0.946090 -0.088305
C15   C     C_R   0.298612 0.801655 0.206511 -0.133654
H9    H     H_    0.350488 0.826932 0.173653 0.171006
N11   N     N_R   0.208920 0.706140 0.152110 -0.061454
C16   C     C_R   0.978507 0.259415 0.072413 -0.157011
H10   H     H_    0.951754 0.258588 0.130876 0.151156
N12   N     N_R   0.947120 0.293870 0.002870 -0.054287
C17   C     C_R   0.067049 0.251444 0.978386 -0.030049
H11   H     H_    0.118965 0.237019 0.947548 0.167512
N13   N     N_R   0.004360 0.293870 0.946090 -0.047968
C18   C     C_R   0.210451 0.803524 0.300513 0.366936
N14   N     N_R   0.151690 0.706140 0.208890 -0.099595
C19   C     C_R   0.901624 0.411575 0.208784 -0.056351
H12   H     H_    0.843018 0.327841 0.178069 0.161564
N15   N     N_R   0.945990 0.443210 0.152110 -0.061459
C20   C     C_R   0.296949 0.592244 0.993127 -0.121923
H13   H     H_    0.343442 0.676664 0.016515 0.185375
N16   N     N_R   0.210060 0.556810 0.002870 -0.063813
Ni1   Ni    Ni4+2 0.999010 0.630300 0.130220 0.260647
Ni2   Ni    Ni4+2 0.000990 0.369700 0.869780 0.305706
Ni3   Ni    Ni4+2 0.130280 0.630280 0.000000 0.280126
Ni4   Ni    Ni4+2 0.869720 0.369720 0.000000 0.245838
C21   C     C_R   0.924551 0.504366 0.297256 0.064574
C22   C     C_R   0.300921 0.502961 0.930717 -0.076184
C23   C     C_R   0.300777 0.866880 0.298795 -0.099848
C24   C     C_R   0.052750 0.230405 0.059032 0.060958
C25   C     C_3   0.477441 0.410735 0.829451 -0.388469
H14   H     H_    0.461785 0.332516 0.830279 0.172345
H15   H     H_    0.490298 0.402647 0.758439 0.211405
C26   C     C_3   0.377459 0.424127 0.815406 -0.307227
H16   H     H_    0.355546 0.449296 0.752802 0.227598
H17   H     H_    0.309056 0.342365 0.779021 0.214214
H18   H     H_    0.569873 0.429027 0.041193 0.225298
H19   H     H_    0.399371 0.393962 0.989214 0.234353
C27   C     C_3   0.562587 0.499091 0.034765 -0.458050
C28   C     C_3   0.585076 0.619438 0.946964 0.100160
C29   C     C_3   0.577483 0.508910 0.939415 0.202281
H20   H     H_    0.659451 0.687843 0.024153 0.066287
C30   C     C_3   0.401170 0.510468 0.928278 0.237486
C31   C     C_3   0.451683 0.481447 0.016565 -0.411669
C32   C     C_3   0.486641 0.629010 0.956215 -0.290076
H21   H     H_    0.626527 0.574389 0.114459 0.171480
H22   H     H_    0.457902 0.529938 0.095936 0.179564
C33   C     C_R   0.580401 0.067412 0.476498 0.094409
C34   C     C_R   0.578375 0.115371 0.573067 0.054018
C35   C     C_R   0.481581 0.107842 0.568958 -0.169273
H23   H     H_    0.479157 0.151549 0.641830 0.132056
C36   C     C_R   0.385918 0.041255 0.469680 -0.092286
H24   H     H_    0.311664 0.033556 0.468326 0.188882
C37   C     C_R   0.386875 0.978445 0.376373 0.037187
C38   C     C_R   0.485033 0.000280 0.378359 0.088447
C39   C     C_3   0.529573 0.055116 0.323180 -0.318713
C40   C     C_3   0.634652 0.126360 0.429626 -0.419036
H25   H     H_    0.534891 0.998718 0.256550 0.239228
H26   H     H_    0.489689 0.100971 0.299818 0.204683
H27   H     H_    0.699624 0.108486 0.425644 0.228328
H28   H     H_    0.658349 0.214793 0.467868 0.203897
C41   C     C_R   0.931204 0.605657 0.472934 0.094135
C42   C     C_R   0.880297 0.509792 0.372207 -0.103849
C43   C     C_R   0.818218 0.411828 0.366347 0.333096
C44   C     C_R   0.861847 0.401099 0.459629 -0.247631
C45   C     C_R   0.927732 0.498710 0.564859 -0.074349
C46   C     C_R   0.948862 0.599364 0.567565 0.168964
C47   C     C_3   0.052830 0.706467 0.635332 -0.496536
C48   C     C_3   0.035129 0.711439 0.531965 -0.380099
H29   H     H_    0.047820 0.771748 0.693945 0.196929
H30   H     H_    0.125138 0.698149 0.671378 0.228391
H31   H     H_    0.022012 0.780653 0.531622 0.224587
H32   H     H_    0.097633 0.704398 0.510888 0.230141
C49   C     C_R   0.026019 0.018162 0.137812 0.113614
C50   C     C_R   0.093606 0.985088 0.109267 0.091824
C51   C     C_R   0.181897 0.063884 0.114493 -0.331272
H33   H     H_    0.247985 0.050573 0.114017 0.133656
C52   C     C_R   0.181681 0.158867 0.114548 -0.037592
C53   C     C_R   0.091808 0.172606 0.110650 0.014744
C54   C     C_R   0.025699 0.111092 0.140187 0.076900
C55   C     C_3   0.904860 0.057041 0.095535 0.150364
C56   C     C_3   0.906706 0.955344 0.092303 -0.563320
H34   H     H_    0.857760 0.045645 0.013351 0.091103
H35   H     H_    0.885394 0.933861 0.150041 0.228153
H36   H     H_    0.865327 0.886389 0.007521 0.234641
N17   N     N_R   0.164600 0.300066 0.820241 0.205655
O1    O     O_R   0.066132 0.251084 0.740442 -0.414511
O2    O     O_R   0.208661 0.241014 0.836754 -0.455556
N18   N     N_R   0.173298 0.840007 0.374644 0.199704
O3    O     O_R   0.220435 0.855448 0.473287 -0.425953
O4    O     O_R   0.091810 0.856818 0.343855 -0.461364
N19   N     N_R   0.598694 0.633338 0.857626 0.235467
O5    O     O_R   0.689927 0.709292 0.880480 -0.419260
O6    O     O_R   0.521413 0.572502 0.756037 -0.401890
C57   C     C_2   0.437317 0.668639 0.880296 0.725487
H37   H     H_    0.489256 0.744387 0.887058 0.078904
O7    O     O_2   0.341193 0.618692 0.812844 -0.596754
C58   C     C_2   0.533485 0.717867 0.074948 0.374636
H38   H     H_    0.564942 0.703863 0.142613 0.067979
O8    O     O_2   0.541201 0.808003 0.097067 -0.554573
N20   N     N_R   0.717638 0.325824 0.268129 0.260745
O9    O     O_R   0.681298 0.341004 0.185151 -0.424885
O10   O     O_R   0.649586 0.247990 0.272077 -0.342707
C59   C     C_2   0.874401 0.302606 0.440931 0.594906
H39   H     H_    0.948164 0.310520 0.496408 0.041511
O11   O     O_2   0.807168 0.213232 0.359910 -0.471931
C60   C     C_2   0.273410 0.237782 0.115283 0.543049
H40   H     H_    0.327961 0.213432 0.095483 0.044051
O12   O     O_2   0.291881 0.331864 0.142267 -0.581735
N21   N     N_R   0.873791 0.105120 0.174728 0.259051
O13   O     O_R   0.772487 0.060776 0.149105 -0.297178
O14   O     O_R   0.945884 0.190949 0.270661 -0.392423
C61   C     C_2   0.179387 0.846898 0.978367 0.418485
H41   H     H_    0.187271 0.909231 0.954459 0.035164
O15   O     O_2   0.239766 0.808754 0.978901 -0.580779

loop_
_geom_bond_atom_site_label_1
_geom_bond_atom_site_label_2
_geom_bond_distance
_ccdc_geom_bond_type
C26   C30   1.569209 S    
C49   C54   1.371968 A    
C27   C29   1.551200 S    
C45   C46   1.406520 A    
N1    N8    1.390995 A    
C47   C48   1.502480 S    
C40   H27   1.110032 S    
N20   O9    1.302063 A    
C2    C10   1.376979 A    
C42   C43   1.401103 A    
C47   H30   1.112927 S    
C23   C37   1.443492 S    
C17   N13   1.348381 A    
C35   H23   1.082323 S    
C55   C56   1.506531 S    
N21   O14   1.302374 A    
C49   C50   1.391361 A    
C3    C11   1.395551 A    
C39   C40   1.503490 S    
C13   H8    1.075637 S    
C7    N7    1.328331 A    
C61   O15   1.220300 D    
C21   C42   1.468694 S    
C56   H35   1.112381 S    
C55   N21   1.463295 S    
C33   C40   1.492410 S    
C53   C54   1.404270 A    
C25   H15   1.110034 S    
C17   C24   1.398637 A    
C48   H31   1.111562 S    
C8    C61   1.473189 S    
N18   O3    1.300516 A    
C1    H1    1.079096 S    
C41   C46   1.384492 A    
C26   H17   1.094877 S    
C12   C29   1.472026 S    
C51   H33   1.079238 S    
C18   C23   1.388898 A    
C27   C31   1.516140 S    
N18   O4    1.299578 A    
C6    H6    1.075795 S    
C54   C55   1.510650 S    
C30   C31   1.557333 S    
N5    Ni2   1.846679 S    
N2    Ni2   1.888481 S    
N11   N14   1.390872 A    
N4    Ni4   1.872621 S    
C4    C12   1.390695 A    
C26   H16   1.107502 S    
C25   C26   1.539977 S    
C35   C36   1.385932 A    
C24   C53   1.466241 S    
N9    Ni1   1.846679 S    
C49   C56   1.493000 S    
C5    H5    1.064747 S    
C50   C51   1.409488 A    
N3    Ni3   1.856451 S    
N1    Ni1   1.846784 S    
C19   N15   1.342818 A    
C37   C38   1.392758 A    
N19   O6    1.301236 A    
C43   N20   1.443650 S    
C28   C29   1.571790 S    
C22   C30   1.490520 S    
C3    H3    1.067429 S    
C44   C59   1.484914 S    
C14   N17   1.430382 S    
C61   H41   1.083026 S    
N12   N13   1.390997 A    
C2    N2    1.326052 A    
C16   C24   1.373155 A    
C56   H36   1.108977 S    
C17   H11   1.072152 S    
C36   C37   1.399330 A    
C13   C21   1.367180 A    
C60   O12   1.220978 D    
C25   H14   1.112580 S    
H19   C31   1.112138 S    
C27   H21   1.113007 S    
C28   H20   1.109414 S    
H18   C27   1.114127 S    
C33   C34   1.390616 A    
N10   Ni2   1.888742 S    
C20   H13   1.074326 S    
N16   Ni3   1.872621 S    
C6    C12   1.382151 A    
C15   H9    1.081206 S    
C51   C52   1.412962 A    
C34   C35   1.404041 A    
C4    N4    1.331078 A    
C18   N18   1.425428 S    
C39   H25   1.111631 S    
C5    N5    1.330819 A    
C58   H38   1.082172 S    
C8    C9    1.391971 A    
C5    C11   1.384781 A    
C18   N14   1.335314 A    
C57   O7    1.221467 D    
C59   H39   1.084087 S    
C41   C42   1.401696 A    
C43   C44   1.413496 A    
C28   C32   1.580886 S    
C19   H12   1.080150 S    
N6    Ni1   1.888744 S    
C20   C22   1.377472 A    
N17   O1    1.300550 A    
C52   C53   1.420479 A    
C25   C29   1.552943 S    
C3    N3    1.335970 A    
C16   H10   1.073432 S    
C32   C57   1.534198 S    
N9    N15   1.384922 A    
C14   N10   1.333259 A    
C40   H28   1.112762 S    
C2    H2    1.075953 S    
C59   O11   1.218650 D    
N20   O10   1.300826 A    
C31   H22   1.112833 S    
N19   O5    1.299695 A    
C47   H29   1.112187 S    
N14   Ni1   1.888481 S    
C60   H40   1.085587 S    
C20   N16   1.315442 A    
N21   O13   1.301177 A    
C32   C58   1.540531 S    
C10   C34   1.432523 S    
C14   C22   1.401533 A    
C7    H7    1.077511 S    
C13   N9    1.327332 A    
N3    N5    1.384921 A    
N7    Ni4   1.856995 S    
N2    N7    1.390873 A    
N8    Ni3   1.871833 S    
N12   Ni4   1.871832 S    
C15   C23   1.374644 A    
C48   H32   1.110558 S    
N15   Ni4   1.856450 S    
C16   N12   1.321340 A    
C44   C45   1.433534 A    
C15   N11   1.320382 A    
C55   H34   1.112617 S    
C9    C50   1.466103 S    
C46   C47   1.499264 S    
C7    C10   1.374755 A    
N10   N16   1.384921 A    
C11   C45   1.478351 S    
C4    H4    1.074289 S    
C36   H24   1.078741 S    
C19   C21   1.390212 A    
C39   H26   1.112648 S    
C1    C9    1.378142 A    
C6    N6    1.319109 A    
C38   C39   1.493885 S    
C33   C38   1.375947 A    
N4    N6    1.384921 A    
N11   Ni3   1.856994 S    
C58   O8    1.223255 D    
C8    N8    1.348219 A    
C30   C32   1.610860 S    
C1    N1    1.326178 A    
C57   H37   1.086174 S    
C28   N19   1.477319 S    
C41   C48   1.497598 S    
N13   Ni2   1.846782 S    
C52   C60   1.481053 S    
N17   O2    1.301508 A    
