data_mof_unit_33508.cif
_audit_creation_date              2012-12-11T15:23:54-0500
_audit_creation_method            fapswitch 2.2
_symmetry_space_group_name_H-M    P1
_symmetry_Int_Tables_number       1
_space_group_crystal_system       triclinic
_cell_length_a                    17.465912
_cell_length_b                    24.620348
_cell_length_c                    15.133492
_cell_angle_alpha                 90.150749
_cell_angle_beta                  125.844407
_cell_angle_gamma                 90.289383
_cell_volume                      5274.97993366

loop_
_atom_site_label
_atom_site_type_symbol
_atom_type_description
_atom_site_fract_x
_atom_site_fract_y
_atom_site_fract_z
_atom_type_partial_charge
C1    C     C_R   0.351210 0.348640 0.907778 -0.088127
C2    C     C_R   0.436362 0.499353 0.636235 -0.051074
C3    C     C_R   0.374470 0.365169 0.678523 -0.155260
C4    C     C_R   0.357954 0.310352 0.649003 -0.082798
C5    C     C_R   0.393229 0.287456 0.595384 -0.091059
C6    C     C_R   0.443289 0.319677 0.569100 -0.144672
C7    C     C_R   0.460795 0.374448 0.599600 -0.139623
C8    C     C_R   0.004014 0.899219 0.304390 0.086977
C9    C     C_R   0.093713 0.875674 0.359302 -0.126069
C10   C     C_R   0.106247 0.821423 0.391380 -0.117090
C11   C     C_R   0.030215 0.790995 0.372582 -0.143149
C12   C     C_R   0.941162 0.814696 0.319842 -0.118416
C13   C     C_R   0.959132 0.999104 0.283680 -0.065445
C14   C     C_R   0.927904 0.868603 0.285855 -0.131053
C15   C     C_R   0.927074 0.897592 0.655617 0.091217
C16   C     C_R   0.874479 0.865169 0.678521 -0.155265
C17   C     C_R   0.857970 0.810350 0.649006 -0.082799
C18   C     C_R   0.893256 0.787454 0.595399 -0.091064
C19   C     C_R   0.943322 0.819676 0.569124 -0.144697
C20   C     C_R   0.960820 0.874448 0.599617 -0.139630
C21   C     C_R   0.303606 0.679807 0.813094 0.172399
C22   C     C_R   0.363335 0.692715 0.782836 -0.009504
C23   C     C_R   0.339151 0.733296 0.706543 0.026693
C24   C     C_R   0.936378 0.999354 0.636243 -0.051121
C25   C     C_R   0.254812 0.761468 0.660133 -0.101226
C26   C     C_R   0.192555 0.747420 0.685860 -0.117955
C27   C     C_R   0.216618 0.706733 0.761939 -0.068785
C28   C     C_R   0.760358 0.646528 0.203451 0.133150
C29   C     C_R   0.739090 0.690549 0.244228 0.025775
C30   C     C_R   0.808066 0.711552 0.347706 -0.083127
C31   C     C_R   0.898998 0.689546 0.409507 -0.097918
C32   C     C_R   0.921471 0.647250 0.366939 -0.077223
C33   C     C_R   0.852677 0.626201 0.263466 -0.202596
C34   C     C_R   0.803632 0.179818 0.813109 0.172300
C35   C     C_R   0.174100 0.495457 0.691751 0.150783
C36   C     C_R   0.863442 0.192797 0.782997 -0.009775
C37   C     C_R   0.839269 0.233394 0.706739 0.026777
C38   C     C_R   0.754868 0.261517 0.660227 -0.101389
C39   C     C_R   0.692546 0.247408 0.685830 -0.117977
C40   C     C_R   0.716599 0.206704 0.761877 -0.068543
C41   C     C_R   0.260361 0.146526 0.203450 0.133098
C42   C     C_R   0.239092 0.190547 0.244228 0.025830
C43   C     C_R   0.308069 0.211552 0.347703 -0.083121
C44   C     C_R   0.399003 0.189549 0.409503 -0.097956
C45   C     C_R   0.421476 0.147253 0.366934 -0.077233
C46   C     C_R   0.793807 0.497283 0.369968 0.081569
C47   C     C_R   0.352683 0.126203 0.263462 -0.202584
C48   C     C_R   0.674102 0.995456 0.691731 0.150755
C49   C     C_R   0.293808 0.997287 0.369965 0.081572
C50   C     C_2   0.917033 0.456009 0.548905 0.437749
C51   C     C_2   0.018989 0.461206 0.634737 0.444832
C52   C     C_2   0.417033 0.956020 0.548899 0.437736
C53   C     C_R   0.686124 0.372711 0.092741 -0.117200
C54   C     C_2   0.518992 0.961209 0.634722 0.444839
C55   C     C_2   0.871426 0.499319 0.486044 -0.303490
C56   C     C_2   0.072395 0.491450 0.615244 -0.384678
C57   C     C_2   0.371435 0.999328 0.486034 -0.303441
C58   C     C_2   0.572398 0.991447 0.615221 -0.384755
C59   C     C_R   0.234859 0.715893 0.994454 -0.241830
C60   C     C_R   0.830089 0.675989 0.030411 -0.179314
C61   C     C_R   0.734819 0.215898 0.994349 -0.241847
C62   C     C_R   0.330070 0.175976 0.030336 -0.179306
C63   C     C_R   0.688714 0.261668 0.989937 -0.153321
C64   C     C_R   0.851201 0.848643 0.907775 -0.088156
C65   C     C_R   0.379415 0.219348 0.027311 -0.164137
C66   C     C_R   0.188754 0.761663 0.990042 -0.153324
C67   C     C_R   0.879430 0.719362 0.027385 -0.164150
C68   C     C_R   0.731041 0.312216 0.004431 0.062237
C69   C     C_R   0.336351 0.270076 0.995901 0.052023
C70   C     C_R   0.231045 0.812214 0.004446 0.062221
C71   C     C_R   0.836334 0.770080 0.995892 0.052010
C72   C     C_R   0.819398 0.318031 0.025319 -0.277843
C73   C     C_R   0.247618 0.278919 0.971888 -0.217496
C74   C     C_R   0.319371 0.818031 0.025252 -0.277853
C75   C     C_R   0.186125 0.872711 0.092744 -0.117216
C76   C     C_R   0.747571 0.778913 0.971798 -0.217550
C77   C     C_R   0.365770 0.771977 0.028671 0.560521
C78   C     C_R   0.699492 0.736677 0.977314 0.516968
C79   C     C_R   0.865796 0.271978 0.028734 0.560545
C80   C     C_R   0.199536 0.236682 0.977397 0.516856
C81   C     C_R   0.433206 0.645817 0.093976 0.459345
C82   C     C_R   0.600094 0.625201 0.911927 0.463140
C83   C     C_R   0.933208 0.145818 0.093976 0.459364
C84   C     C_R   0.100090 0.125205 0.911924 0.463036
C85   C     C_R   0.321905 0.721232 0.011545 0.027091
C86   C     C_R   0.361661 0.672432 0.005915 -0.089708
C87   C     C_R   0.739978 0.684808 0.004156 0.037255
C88   C     C_R   0.821901 0.221234 0.011530 0.027111
C89   C     C_R   0.239988 0.184804 0.004160 0.037328
C90   C     C_R   0.511947 0.526503 0.552635 -0.135229
C91   C     C_R   0.518459 0.525836 0.466706 -0.135814
C92   C     C_R   0.011949 0.026506 0.552629 -0.135235
C93   C     C_R   0.018455 0.025838 0.466695 -0.135781
C94   C     C_R   0.446082 0.501916 0.368368 0.132745
C95   C     C_R   0.433740 0.502593 0.540529 0.114225
C96   C     C_R   0.946077 0.001917 0.368362 0.132738
C97   C     C_R   0.686791 0.640248 0.003662 -0.094034
C98   C     C_R   0.933748 0.002593 0.540532 0.114236
C99   C     C_R   0.365268 0.480252 0.353923 -0.166177
C100  C     C_R   0.359420 0.480060 0.441467 -0.143804
C101  C     C_R   0.865267 0.980252 0.353924 -0.166188
C102  C     C_R   0.859426 0.980059 0.441473 -0.143781
C103  C     C_R   0.488917 0.453668 0.257767 0.050686
C104  C     C_R   0.452688 0.453964 0.697461 0.030421
C105  C     C_R   0.988914 0.953667 0.257762 0.050697
C106  C     C_R   0.952695 0.953965 0.697464 0.030426
C107  C     C_R   0.229435 0.542093 0.721033 0.426585
C108  C     C_R   0.861665 0.172435 0.005913 -0.089744
C109  C     C_R   0.745376 0.542475 0.309819 0.431937
C110  C     C_R   0.729437 0.042093 0.721019 0.426619
C111  C     C_R   0.245376 0.042478 0.309816 0.431941
C112  C     C_R   0.482866 0.544386 0.251060 -0.064309
C113  C     C_R   0.447417 0.543887 0.696315 -0.029329
C114  C     C_R   0.982858 0.044385 0.251051 -0.064305
C115  C     C_R   0.947430 0.043888 0.696320 -0.029306
C116  C     C_R   0.232936 0.451629 0.736043 -0.147182
C117  C     C_R   0.752268 0.453128 0.301545 -0.211311
C118  C     C_R   0.732937 0.951629 0.736031 -0.147173
C119  C     C_R   0.186792 0.140247 0.003659 -0.094030
C120  C     C_R   0.252270 0.953130 0.301547 -0.211344
C121  C     C_R   0.339517 0.647288 0.911730 -0.037535
C122  C     C_R   0.689543 0.625850 0.093193 -0.034214
C123  C     C_R   0.839517 0.147289 0.911729 -0.037581
C124  C     C_R   0.189544 0.125848 0.093191 -0.034189
C125  C     C_R   0.446225 0.346415 0.087757 -0.125894
C126  C     C_R   0.596317 0.372571 0.910186 -0.142218
C127  C     C_R   0.946215 0.846417 0.087755 -0.125892
C128  C     C_R   0.096318 0.872568 0.910190 -0.142207
C129  C     C_R   0.384238 0.316623 0.996316 0.045138
C130  C     C_R   0.459140 0.499105 0.283689 -0.065450
C131  C     C_R   0.682416 0.357988 0.002785 0.072091
C132  C     C_R   0.884219 0.816628 0.996313 0.045176
C133  C     C_R   0.182418 0.857987 0.002791 0.072093
C134  C     C_R   0.504009 0.399218 0.304388 0.086995
C135  C     C_R   0.593710 0.375674 0.359323 -0.126164
C136  C     C_R   0.606237 0.321423 0.391402 -0.117057
C137  C     C_R   0.530195 0.290995 0.372577 -0.143126
C138  C     C_R   0.441140 0.314695 0.319812 -0.118442
C139  C     C_R   0.427891 0.368603 0.285829 -0.131058
C140  C     C_R   0.427061 0.397591 0.655612 0.091209
Cl1   Cl    Cl    0.476845 0.779391 0.053923 -0.556330
Cl2   Cl    Cl    0.726860 0.596217 0.371752 -0.637386
Cl3   Cl    Cl    0.692098 0.098017 0.634306 -0.749883
Cl4   Cl    Cl    0.226857 0.096219 0.371747 -0.637370
Cl5   Cl    Cl    0.861977 0.392612 0.531269 -0.643461
Cl6   Cl    Cl    0.067683 0.425698 0.758151 -0.568621
Cl7   Cl    Cl    0.361938 0.892642 0.531312 -0.643377
Cl8   Cl    Cl    0.567687 0.925707 0.758143 -0.568576
Cl9   Cl    Cl    0.589453 0.750993 0.950733 -0.586912
Cl10  Cl    Cl    0.976903 0.279393 0.054070 -0.556356
Cl11  Cl    Cl    0.089535 0.251008 0.950907 -0.587198
Cl12  Cl    Cl    0.515408 0.675960 0.222424 -0.603230
Cl13  Cl    Cl    0.558216 0.648278 0.780864 -0.700564
Cl14  Cl    Cl    0.015405 0.175957 0.222430 -0.603182
Cl15  Cl    Cl    0.058188 0.148304 0.780868 -0.700533
Cl16  Cl    Cl    0.192079 0.598018 0.634318 -0.749972
H1    H     H_    0.305537 0.335963 0.823402 0.102530
H2    H     H_    0.861370 0.635986 0.052662 0.143913
H3    H     H_    0.701884 0.176433 0.981789 0.153551
H4    H     H_    0.361327 0.135965 0.052526 0.143915
H5    H     H_    0.620318 0.257940 0.975515 0.137339
H6    H     H_    0.449737 0.213588 0.048393 0.133968
H7    H     H_    0.120383 0.757933 0.975683 0.137342
H8    H     H_    0.949774 0.713612 0.048530 0.133960
H9    H     H_    0.851282 0.357842 0.038250 0.172497
H10   H     H_    0.216794 0.319146 0.951208 0.202060
H11   H     H_    0.351231 0.857844 0.038119 0.172503
H12   H     H_    0.739978 0.362670 0.176819 0.124743
H13   H     H_    0.716722 0.819134 0.951058 0.202087
H14   H     H_    0.569565 0.543738 0.629969 0.166080
H15   H     H_    0.581003 0.542632 0.477582 0.168640
H16   H     H_    0.069567 0.043743 0.629959 0.166058
H17   H     H_    0.080995 0.042635 0.477565 0.168646
H18   H     H_    0.308101 0.463303 0.276290 0.133779
H19   H     H_    0.298799 0.461912 0.433022 0.142704
H20   H     H_    0.808098 0.963303 0.276293 0.133778
H21   H     H_    0.798809 0.961911 0.433034 0.142696
H22   H     H_    0.475175 0.585496 0.267893 0.179207
H23   H     H_    0.805529 0.835967 0.823398 0.102526
H24   H     H_    0.420045 0.583474 0.662246 0.186559
H25   H     H_    0.975161 0.085495 0.267880 0.179205
H26   H     H_    0.920060 0.083475 0.662249 0.186627
H27   H     H_    0.212982 0.409218 0.721320 0.159399
H28   H     H_    0.763608 0.410900 0.323450 0.182484
H29   H     H_    0.712984 0.909217 0.721306 0.159381
H30   H     H_    0.263619 0.910903 0.323460 0.182447
H31   H     H_    0.493413 0.329463 0.167416 0.137124
H32   H     H_    0.570182 0.361721 0.828284 0.133355
H33   H     H_    0.993401 0.829462 0.167411 0.137109
H34   H     H_    0.239977 0.862671 0.176823 0.124729
H35   H     H_    0.070185 0.861715 0.828289 0.133358
H36   H     H_    0.652728 0.398641 0.373142 0.164893
H37   H     H_    0.674170 0.302613 0.427548 0.153866
H38   H     H_    0.539942 0.248866 0.396833 0.136455
H39   H     H_    0.381465 0.291060 0.301855 0.131764
H40   H     H_    0.357453 0.385158 0.239591 0.126615
H41   H     H_    0.347541 0.381961 0.720691 0.113502
H42   H     H_    0.318633 0.285511 0.668728 0.130654
H43   H     H_    0.381823 0.244711 0.574760 0.130357
H44   H     H_    0.469921 0.302122 0.526682 0.116017
H45   H     H_    0.904688 0.539132 0.514930 0.156626
H46   H     H_    0.503266 0.398058 0.582728 0.135400
H47   H     H_    0.152723 0.898641 0.373103 0.164889
H48   H     H_    0.174178 0.802613 0.427504 0.153827
H49   H     H_    0.039967 0.748867 0.396840 0.136446
H50   H     H_    0.881495 0.791062 0.301908 0.131744
H51   H     H_    0.857467 0.885158 0.239633 0.126607
H52   H     H_    0.847542 0.881960 0.720681 0.113500
H53   H     H_    0.818646 0.785509 0.668725 0.130654
H54   H     H_    0.881855 0.744710 0.574779 0.130354
H55   H     H_    0.969965 0.802120 0.526718 0.116025
H56   H     H_    0.040856 0.513662 0.539649 0.161665
H57   H     H_    0.003294 0.898058 0.582751 0.135407
H58   H     H_    0.430846 0.673781 0.823154 0.167190
H59   H     H_    0.387424 0.744279 0.686584 0.187021
H60   H     H_    0.238838 0.794960 0.606371 0.146361
H61   H     H_    0.127066 0.769107 0.649391 0.114017
H62   H     H_    0.168639 0.697255 0.783018 0.121602
H63   H     H_    0.669318 0.708215 0.196394 0.201723
H64   H     H_    0.790905 0.745214 0.378989 0.137842
H65   H     H_    0.952651 0.705589 0.489668 0.109814
H66   H     H_    0.992152 0.630854 0.414024 0.167548
H67   H     H_    0.404710 0.039138 0.514903 0.156600
H68   H     H_    0.870717 0.593525 0.230827 0.121687
H69   H     H_    0.931014 0.173917 0.823430 0.167395
H70   H     H_    0.887606 0.244431 0.686895 0.187160
H71   H     H_    0.738896 0.295023 0.606489 0.146400
H72   H     H_    0.627012 0.269062 0.649294 0.113992
H73   H     H_    0.668571 0.197184 0.782876 0.121582
H74   H     H_    0.169318 0.208210 0.196397 0.201782
H75   H     H_    0.290906 0.245214 0.378985 0.137854
H76   H     H_    0.452657 0.205594 0.489662 0.109795
H77   H     H_    0.492160 0.130859 0.414017 0.167548
H78   H     H_    0.540862 0.013655 0.539623 0.161658
H79   H     H_    0.370723 0.093528 0.230822 0.121698
H80   H     H_    0.201948 0.676425 0.981957 0.153556
N1    N     N_R   0.395440 0.396300 0.944370 -0.043628
N2    N     N_R   0.474910 0.470990 0.794360 -0.066139
N3    N     N_R   0.025090 0.970990 0.205640 -0.067318
N4    N     N_R   0.974910 0.970990 0.794360 -0.066146
N5    N     N_R   0.320240 0.527820 0.794510 -0.090859
N6    N     N_R   0.679760 0.527820 0.205490 -0.090753
N7    N     N_R   0.820240 0.027820 0.794510 -0.090839
N8    N     N_R   0.179760 0.027820 0.205490 -0.090754
N9    N     N_R   0.524580 0.527810 0.205160 -0.033033
N10   N     N_R   0.475420 0.527810 0.794840 -0.063094
N11   N     N_R   0.024580 0.027810 0.205160 -0.033029
N12   N     N_R   0.604560 0.396300 0.055630 -0.047113
N13   N     N_R   0.975420 0.027810 0.794840 -0.063085
N14   N     N_R   0.320750 0.470990 0.794990 -0.087893
N15   N     N_R   0.679250 0.470990 0.205010 -0.079044
N16   N     N_R   0.820750 0.970990 0.794990 -0.087893
N17   N     N_R   0.179250 0.970990 0.205010 -0.079035
N18   N     N_R   0.393580 0.602500 0.942610 -0.091079
N19   N     N_R   0.606420 0.602500 0.057390 -0.066566
N20   N     N_R   0.893580 0.102500 0.942610 -0.091057
N21   N     N_R   0.106420 0.102500 0.057390 -0.066577
N22   N     N_R   0.451750 0.396300 0.057540 -0.044991
N23   N     N_R   0.895440 0.896300 0.944370 -0.043622
N24   N     N_R   0.548250 0.396300 0.942460 -0.047463
N25   N     N_R   0.951750 0.896300 0.057540 -0.044991
N26   N     N_R   0.048250 0.896300 0.942460 -0.047464
N27   N     N_R   0.104560 0.896300 0.055630 -0.047116
N28   N     N_R   0.449890 0.602500 0.055780 -0.096716
N29   N     N_R   0.550110 0.602500 0.944220 -0.106428
N30   N     N_R   0.949890 0.102500 0.055780 -0.096727
N31   N     N_R   0.050110 0.102500 0.944220 -0.106429
N32   N     N_R   0.525090 0.470990 0.205640 -0.067315
Ni1   Ni    Ni4+2 0.435420 0.434250 0.870220 0.200176
Ni2   Ni    Ni4+2 0.564580 0.434250 0.129780 0.205682
Ni3   Ni    Ni4+2 0.935420 0.934250 0.870220 0.200179
Ni4   Ni    Ni4+2 0.064580 0.934250 0.129780 0.205672
Ni5   Ni    Ni4+2 0.563400 0.564580 0.128670 0.304151
Ni6   Ni    Ni4+2 0.436600 0.564580 0.871330 0.240836
Ni7   Ni    Ni4+2 0.063400 0.064580 0.128670 0.304146
Ni8   Ni    Ni4+2 0.936600 0.064580 0.871330 0.240895

loop_
_geom_bond_atom_site_label_1
_geom_bond_atom_site_label_2
_ccdc_geom_bond_type
C78   C87   A    
C96   C101  A    
C80   Cl11  S    
C48   C110  A    
C116  H27   S    
C111  N8    A    
C68   C131  S    
C41   C42   A    
C59   H80   S    
N21   N31   A    
C64   C132  A    
C8    C105  S    
C94   C99   A    
N18   Ni6   S    
C117  H28   S    
C92   C98   A    
C121  N18   A    
C5    H43   S    
C83   Cl14  S    
C23   H59   S    
C138  H39   S    
C139  H40   S    
C87   C97   S    
C104  N2    A    
C26   C27   A    
C36   H69   S    
N3    Ni4   S    
N19   Ni5   S    
C34   C40   A    
N6    N15   A    
C109  N6    A    
N4    Ni3   S    
N3    N11   A    
C28   C29   A    
C18   H54   S    
C103  C134  S    
C76   C78   A    
C56   H56   S    
C7    H46   S    
C1    C129  A    
C61   H3    S    
C59   C66   A    
C57   H67   S    
C5    C6    A    
C88   C108  S    
C2    C113  A    
C43   H75   S    
C49   C120  A    
C63   H5    S    
N17   Ni4   S    
C15   C16   A    
C55   H45   S    
C62   C89   A    
C29   H63   S    
C27   H62   S    
N24   Ni1   S    
C49   C57   S    
C83   C108  A    
N9    Ni5   S    
C51   C56   D    
C72   H9    S    
C80   C89   A    
C61   C63   A    
C120  N17   A    
C74   H11   S    
N25   Ni4   S    
C9    H47   S    
C123  N20   A    
C71   C132  S    
C127  C132  A    
C82   Cl13  S    
C67   H8    S    
C118  H29   S    
C19   C20   A    
C60   C67   A    
C126  H32   S    
C16   C17   A    
C74   C77   A    
C46   C55   S    
C70   C74   A    
C70   C133  S    
C110  Cl3   S    
C69   C73   A    
C109  Cl2   S    
C53   C131  A    
C128  N26   A    
C29   C30   A    
C9    C10   A    
C34   C36   A    
C13   C114  A    
C64   N23   A    
C49   C111  A    
C4    H42   S    
C21   C27   A    
C10   C11   A    
C77   C85   A    
N4    N13   A    
C119  C124  A    
C14   H51   S    
C26   H61   S    
C21   C121  S    
C90   H14   S    
C15   C20   A    
C100  H19   S    
N22   Ni2   S    
C110  N7    A    
N15   Ni2   S    
C79   C88   A    
C60   C87   A    
C52   C54   S    
C50   C51   S    
C6    C7    A    
C47   H79   S    
C45   C47   A    
C41   C47   A    
C112  N9    A    
C75   N27   A    
N31   Ni8   S    
N21   Ni7   S    
C13   C96   S    
C101  C102  A    
C89   C119  S    
C135  C136  A    
C75   H34   S    
C117  N15   A    
C13   C105  A    
C52   C57   D    
C134  C139  A    
C64   H23   S    
C95   C100  A    
C8    C9    A    
C48   C118  A    
N26   Ni3   S    
N19   N29   A    
C51   Cl6   S    
N23   N25   A    
C25   C26   A    
C85   C86   S    
C125  N22   A    
C127  N25   A    
C46   C117  A    
C34   C123  S    
C12   H50   S    
N5    Ni6   S    
C37   C38   A    
N2    Ni1   S    
C43   C44   A    
C59   C85   A    
C97   C122  A    
C61   C88   A    
N8    Ni7   S    
N29   Ni6   S    
C53   H12   S    
C31   C32   A    
C2    C104  A    
N30   Ni7   S    
C68   C72   A    
N2    N10   A    
C86   C121  A    
N12   N24   A    
C17   C18   A    
C105  N3    A    
N13   Ni8   S    
C35   C116  A    
C114  N11   A    
C94   C130  S    
C103  N32   A    
C3    H41   S    
C118  N16   A    
C39   H72   S    
C134  C135  A    
C39   C40   A    
N28   Ni5   S    
C111  Cl4   S    
C81   N28   A    
C79   Cl10  S    
C42   H74   S    
C50   Cl5   S    
C37   H70   S    
C112  C130  A    
N32   Ni2   S    
C28   C33   A    
C52   Cl7   S    
N8    N17   A    
C22   H58   S    
C31   H65   S    
C45   H77   S    
C82   C97   A    
C62   H4    S    
N9    N32   A    
C24   C106  A    
C42   C43   A    
C108  C123  A    
N11   Ni7   S    
C3    C4    A    
C81   Cl12  S    
C71   C76   A    
C122  N19   A    
C115  H26   S    
N23   Ni3   S    
C44   C45   A    
C41   C124  S    
C54   Cl8   S    
C54   C58   D    
C28   C122  S    
C102  H21   S    
N20   N30   A    
C137  H38   S    
N27   Ni4   S    
C8    C14   A    
N7    N16   A    
C62   C65   A    
C35   C56   S    
N1    Ni1   S    
C30   H64   S    
C93   C96   A    
C83   N30   A    
N20   Ni8   S    
N5    N14   A    
C81   C86   A    
N6    Ni5   S    
C60   H2    S    
C136  C137  A    
C58   H78   S    
C120  H30   S    
C124  N21   A    
C32   H66   S    
C11   C12   A    
C75   C133  A    
N16   Ni3   S    
C48   C58   S    
N26   N27   A    
C115  N13   A    
C126  N24   A    
C72   C79   A    
C114  H25   S    
C137  C138  A    
C63   C68   A    
C17   H53   S    
C50   C55   D    
C99   C100  A    
C91   H15   S    
C125  H31   S    
C128  H35   S    
C1    N1    A    
C32   C33   A    
C1    H1    S    
C12   C14   A    
C53   N12   A    
C15   C106  S    
C136  H37   S    
C98   C102  A    
C128  C133  A    
C20   H57   S    
C91   C94   A    
C6    H44   S    
C36   C37   A    
C30   C31   A    
C90   C91   A    
C38   C39   A    
C99   H18   S    
C116  N14   A    
C126  C131  A    
C92   H16   S    
C84   C119  A    
C65   C69   A    
N7    Ni8   S    
N10   Ni6   S    
C93   H17   S    
C92   C93   A    
C84   Cl15  S    
C73   C80   A    
C66   H7    S    
C82   N29   A    
C67   C71   A    
C23   C25   A    
C44   H76   S    
C76   H13   S    
C73   H10   S    
C103  C130  A    
C77   Cl1   S    
C135  H36   S    
C35   C107  A    
C138  C139  A    
C107  Cl16  S    
N18   N28   A    
C24   C98   S    
C25   H60   S    
C33   H68   S    
C125  C129  A    
C7    C140  A    
C4    C5    A    
C113  H24   S    
N12   Ni2   S    
C66   C70   A    
C84   N31   A    
C24   C115  A    
C69   C129  S    
C46   C109  A    
N1    N22   A    
C127  H33   S    
C18   C19   A    
C16   H52   S    
C22   C23   A    
C107  N5    A    
C101  H20   S    
C106  N4    A    
C3    C140  A    
C11   H49   S    
N14   Ni1   S    
C2    C95   S    
C40   H73   S    
C21   C22   A    
C112  H22   S    
C10   H48   S    
C65   H6    S    
C90   C95   A    
C113  N10   A    
C78   Cl9   S    
C104  C140  S    
C38   H71   S    
C19   H55   S    
