data_mof_unit_17689.cif
_audit_creation_date              2012-10-26T19:59:40-0400
_audit_creation_method            fapswitch 2.2
_symmetry_space_group_name_H-M    P1
_symmetry_Int_Tables_number       1
_space_group_crystal_system       triclinic
_cell_length_a                    10.744523
_cell_length_b                    8.683259
_cell_length_c                    7.458292
_cell_angle_alpha                 102.942008
_cell_angle_beta                  94.296372
_cell_angle_gamma                 92.42461
_cell_volume                      675.00699829

loop_
_atom_site_label
_atom_site_type_symbol
_atom_type_description
_atom_site_fract_x
_atom_site_fract_y
_atom_site_fract_z
_atom_type_partial_charge
C1    C     C_R   0.496184 0.199763 0.453291 0.549548
C2    C     C_R   0.503766 0.800232 0.546722 0.530331
C3    C     C_R   0.737375 0.506369 0.498824 0.536898
C4    C     C_R   0.150674 0.773627 0.731252 -0.101587
C5    C     C_R   0.095257 0.901186 0.837686 -0.120124
C6    C     C_R   0.965697 0.903417 0.832642 -0.119965
C7    C     C_R   0.890778 0.778080 0.721143 -0.103216
C8    C     C_R   0.944931 0.646209 0.614187 0.025789
C9    C     C_R   0.076551 0.643931 0.619359 0.025422
C10   C     C_R   0.129602 0.514106 0.507008 0.005369
C11   C     C_R   0.054486 0.393594 0.386900 -0.148938
C12   C     C_R   0.926170 0.395768 0.382026 -0.148489
C13   C     C_R   0.871335 0.518483 0.497302 0.004306
C14   C     C_2   0.494285 0.031823 0.427075 -0.155674
C15   C     C_2   0.505472 0.968138 0.572991 -0.163193
C16   C     C_R   0.262892 0.504313 0.502744 0.537042
Cu1   Cu    Cu3+1 0.513920 0.517380 0.684380 0.943565
Cu2   Cu    Cu3+1 0.486080 0.482620 0.315620 0.951941
H1    H     H_    0.095650 0.295783 0.298532 0.121800
H2    H     H_    0.251509 0.779594 0.735738 0.141957
H3    H     H_    0.153106 0.999620 0.922725 0.113313
H4    H     H_    0.923030 0.003608 0.913707 0.113615
H5    H     H_    0.790641 0.787447 0.717115 0.131960
H6    H     H_    0.869311 0.298855 0.291757 0.125610
H7    H     H_    0.483729 0.960242 0.286463 0.132958
H8    H     H_    0.515981 0.039690 0.713612 0.131927
H9    H     H_    0.402242 0.377864 0.948649 0.239592
H10   H     H_    0.597749 0.622158 0.051338 0.240200
N1    N     N_2   0.465100 0.456430 0.038520 -0.255088
N2    N     N_2   0.534900 0.543570 0.961480 -0.255649
O1    O     O_R   0.509050 0.286130 0.619770 -0.500700
O2    O     O_R   0.485540 0.256780 0.308360 -0.501295
O3    O     O_R   0.331410 0.514680 0.655740 -0.510893
O4    O     O_R   0.307900 0.485330 0.344330 -0.496424
O5    O     O_R   0.514460 0.743220 0.691640 -0.515912
O6    O     O_R   0.490950 0.713870 0.380230 -0.502140
O7    O     O_R   0.692100 0.514670 0.655670 -0.500440
O8    O     O_R   0.668590 0.485320 0.344260 -0.503414

loop_
_geom_bond_atom_site_label_1
_geom_bond_atom_site_label_2
_ccdc_geom_bond_type
C2    O5    A    
C11   C12   A    
C6    C7    A    
C2    C15   S    
C16   O3    A    
H9    N1    S    
C9    C10   A    
C12   H6    S    
C3    C13   S    
H10   N2    S    
Cu1   Cu2   S    
Cu2   O8    S    
C7    C8    A    
Cu2   N1    S    
Cu1   O7    S    
Cu1   N2    S    
Cu2   O4    S    
C11   H1    S    
N1    N2    D    
Cu1   O3    S    
C7    H5    S    
C14   H7    S    
C5    C6    A    
Cu1   O1    S    
Cu2   O2    S    
C10   C11   A    
C6    H4    S    
C8    C13   A    
C1    O1    A    
C5    H3    S    
C12   C13   A    
C3    O7    A    
C2    O6    A    
C14   C15   D    
C8    C9    A    
C15   H8    S    
C10   C16   S    
C1    C14   S    
Cu1   O5    S    
C16   O4    A    
C4    C9    A    
Cu2   O6    S    
C1    O2    A    
C3    O8    A    
C4    C5    A    
C4    H2    S    
