data_mof_unit_46668.cif
_audit_creation_date              2012-12-11T17:39:29-0500
_audit_creation_method            fapswitch 2.2
_symmetry_space_group_name_H-M    P1
_symmetry_Int_Tables_number       1
_space_group_crystal_system       triclinic
_cell_length_a                    15.068384
_cell_length_b                    15.064621
_cell_length_c                    14.935142
_cell_angle_alpha                 108.994377
_cell_angle_beta                  109.490779
_cell_angle_gamma                 110.188827
_cell_volume                      2601.19845904

loop_
_atom_site_label
_atom_site_type_symbol
_atom_type_description
_atom_site_fract_x
_atom_site_fract_y
_atom_site_fract_z
_atom_type_partial_charge
C1    C     C_R   0.910403 0.911142 0.713921 -0.153867
C2    C     C_R   0.999514 0.300821 0.435512 0.071230
C3    C     C_R   0.270276 0.322759 0.822181 0.126267
C4    C     C_R   0.720064 0.041436 0.545118 0.060594
C5    C     C_R   0.701844 0.696218 0.287172 -0.153274
C6    C     C_R   0.302311 0.092203 0.501549 -0.137948
C7    C     C_R   0.091193 0.781476 0.519083 -0.106603
C8    C     C_R   0.910681 0.934216 0.187791 -0.128128
C9    C     C_R   0.093057 0.023464 0.281277 -0.126869
C10   C     C_R   0.909058 0.685543 0.437950 -0.143870
C11   C     C_R   0.701289 0.788940 0.197544 -0.123849
C12   C     C_R   0.090342 0.297052 0.493002 -0.156402
C13   C     C_R   0.303003 0.007110 0.598194 -0.169222
C14   C     C_R   0.641242 0.692344 0.192248 0.152902
C15   C     C_R   0.364762 0.064448 0.565369 0.075246
C16   C     C_R   0.002119 0.678103 0.453572 0.045187
C17   C     C_R   0.002666 0.945290 0.178453 0.059560
C18   C     C_R   0.546867 0.703668 0.446553 -0.349860
C19   C     C_R   0.532510 0.792433 0.454393 -0.160048
C20   C     C_R   0.554365 0.869341 0.554946 0.125544
C21   C     C_R   0.577545 0.849211 0.642854 -0.298862
C22   C     C_R   0.589405 0.759438 0.633929 -0.221132
C23   C     C_R   0.244481 0.220910 0.812091 -0.172708
C24   C     C_R   0.581816 0.690453 0.539115 0.656538
C25   C     C_R   0.481481 0.989645 0.586043 -0.250341
C26   C     C_R   0.470000 0.077392 0.584753 0.059617
C27   C     C_R   0.548675 0.161010 0.583300 0.047949
C28   C     C_R   0.634764 0.150397 0.577086 -0.252478
C29   C     C_R   0.639830 0.057157 0.568619 0.060797
C30   C     C_R   0.561469 0.975052 0.572279 0.041662
C31   C     C_R   0.522633 0.260160 0.481161 -0.241895
C32   C     C_R   0.484306 0.326879 0.458441 -0.323652
C33   C     C_R   0.458155 0.386815 0.529891 0.695590
C34   C     C_R   0.744578 0.058542 0.468415 -0.158048
C35   C     C_R   0.480677 0.384922 0.628003 -0.213160
C36   C     C_R   0.519009 0.318094 0.650720 -0.229784
C37   C     C_R   0.535607 0.251587 0.574967 0.136315
C38   C     C_R   0.693265 0.094675 0.118251 -0.254028
C39   C     C_R   0.791075 0.194889 0.176523 -0.222544
C40   C     C_R   0.806741 0.284361 0.262378 0.118625
C41   C     C_R   0.722088 0.274178 0.285930 -0.233260
C42   C     C_R   0.625903 0.173767 0.229453 -0.322291
C43   C     C_R   0.612039 0.082506 0.147169 0.592986
C44   C     C_R   0.921315 0.481443 0.344510 -0.251296
C45   C     C_R   0.246755 0.312403 0.720241 -0.121055
C46   C     C_R   0.010221 0.581402 0.433539 0.066098
C47   C     C_R   0.099920 0.585995 0.510880 0.027312
C48   C     C_R   0.099151 0.491110 0.495158 -0.257872
C49   C     C_R   0.004480 0.390458 0.415874 0.062988
C50   C     C_R   0.914558 0.384830 0.337492 0.052721
C51   C     C_R   0.293381 0.737019 0.650714 -0.189746
C52   C     C_R   0.368746 0.832679 0.751857 -0.130327
C53   C     C_R   0.334458 0.872593 0.824039 -0.067517
C54   C     C_R   0.225577 0.815140 0.796908 -0.125231
C55   C     C_R   0.150176 0.719640 0.696377 -0.119873
C56   C     C_R   0.759581 0.978290 0.570813 -0.107677
C57   C     C_R   0.182871 0.681963 0.621217 0.107086
C58   C     C_2   0.366312 0.520693 0.931850 -0.123106
C59   C     C_2   0.320847 0.422966 0.924442 -0.193531
C60   C     C_2   0.464232 0.616465 0.032289 -0.130983
C61   C     C_2   0.529103 0.606424 0.110520 -0.222701
C62   C     C_R   0.394290 0.154326 0.062159 -0.277320
C63   C     C_R   0.301391 0.067016 0.040560 -0.254658
C64   C     C_R   0.210722 0.077198 0.033961 0.119677
C65   C     C_R   0.219620 0.179679 0.063649 -0.208069
C66   C     C_R   0.315889 0.269159 0.092779 -0.290528
C67   C     C_R   0.908857 0.209862 0.409465 -0.129966
C68   C     C_R   0.401304 0.255642 0.085914 0.628875
C69   C     C_R   0.107551 0.961655 0.084875 -0.234958
C70   C     C_R   0.008222 0.903515 0.077839 0.051131
C71   C     C_R   0.913416 0.831867 0.973973 0.028074
C72   C     C_R   0.915001 0.842938 0.884905 -0.244941
C73   C     C_R   0.009722 0.923915 0.899690 0.055283
C74   C     C_R   0.108536 0.982051 0.001671 0.033189
C75   C     C_R   0.824558 0.674092 0.998196 -0.127943
C76   C     C_R   0.731896 0.590977 0.982349 -0.107169
C77   C     C_R   0.628902 0.576714 0.925104 -0.092285
C78   C     C_R   0.091384 0.999015 0.799647 -0.132579
C79   C     C_R   0.618719 0.647230 0.885846 -0.099819
C80   C     C_R   0.711368 0.730804 0.902045 -0.158733
C81   C     C_R   0.814831 0.744012 0.957058 0.112143
C82   C     C_R   0.003564 0.947395 0.810171 0.066511
H1    H     H_    0.827131 0.854012 0.686536 0.099793
H2    H     H_    0.326901 0.143752 0.468535 0.110197
H3    H     H_    0.175085 0.805991 0.542211 0.116735
H4    H     H_    0.826326 0.884230 0.123789 0.114026
H5    H     H_    0.177800 0.054258 0.305725 0.093013
H6    H     H_    0.825086 0.619631 0.390561 0.100391
H7    H     H_    0.673130 0.818557 0.143517 0.085343
H8    H     H_    0.330802 0.985338 0.660113 0.106280
H9    H     H_    0.533282 0.647169 0.369721 0.129636
H10   H     H_    0.511257 0.805055 0.384606 0.137815
H11   H     H_    0.173418 0.346299 0.513197 0.101066
H12   H     H_    0.592399 0.906305 0.720189 0.145200
H13   H     H_    0.609736 0.746077 0.702802 0.144421
H14   H     H_    0.420087 0.923780 0.584395 0.134272
H15   H     H_    0.694907 0.212222 0.573351 0.136736
H16   H     H_    0.535613 0.209968 0.421979 0.140012
H17   H     H_    0.473565 0.329171 0.384107 0.135841
H18   H     H_    0.463139 0.431635 0.684658 0.132899
H19   H     H_    0.528705 0.312766 0.723624 0.138738
H20   H     H_    0.251535 0.200372 0.875710 0.116586
H21   H     H_    0.681812 0.025522 0.052721 0.136588
H22   H     H_    0.855679 0.201768 0.157516 0.143030
H23   H     H_    0.732870 0.342618 0.351772 0.153208
H24   H     H_    0.562167 0.166824 0.249791 0.148667
H25   H     H_    0.852111 0.478506 0.286819 0.128896
H26   H     H_    0.167120 0.497677 0.558329 0.132642
H27   H     H_    0.320028 0.708103 0.594094 0.129196
H28   H     H_    0.453284 0.876931 0.773666 0.114351
H29   H     H_    0.392075 0.948280 0.900537 0.156467
H30   H     H_    0.198505 0.844831 0.852473 0.111712
H31   H     H_    0.723014 0.102366 0.428729 0.093594
H32   H     H_    0.065497 0.677031 0.675279 0.117678
H33   H     H_    0.345547 0.528319 0.858959 0.121120
H34   H     H_    0.335573 0.415616 0.996939 0.140483
H35   H     H_    0.492612 0.692791 0.031774 0.134484
H36   H     H_    0.504053 0.530718 0.111989 0.166911
H37   H     H_    0.459809 0.142621 0.058200 0.156704
H38   H     H_    0.298505 0.990529 0.024762 0.159870
H39   H     H_    0.152027 0.189969 0.063890 0.141606
H40   H     H_    0.322161 0.347907 0.116183 0.136112
H41   H     H_    0.255484 0.374738 0.697627 0.094109
H42   H     H_    0.184042 0.007598 0.161104 0.127680
H43   H     H_    0.841294 0.790593 0.805469 0.138376
H44   H     H_    0.903793 0.683680 0.042072 0.113380
H45   H     H_    0.740111 0.537755 0.014552 0.120158
H46   H     H_    0.557168 0.511548 0.911919 0.111406
H47   H     H_    0.539156 0.637517 0.843449 0.109680
H48   H     H_    0.703523 0.787544 0.875255 0.100602
H49   H     H_    0.758576 0.954079 0.630847 0.118638
H50   H     H_    0.823871 0.180111 0.359710 0.117897
H51   H     H_    0.173259 0.015642 0.843209 0.113287
H52   H     H_    0.672783 0.640266 0.314747 0.084271
N1    N     N_R   0.941940 0.944580 0.650780 -0.040405
N2    N     N_R   0.206190 0.054080 0.497260 -0.040457
N3    N     N_R   0.056380 0.847410 0.553580 -0.041605
N4    N     N_R   0.944890 0.999100 0.292900 -0.042497
N5    N     N_R   0.058060 0.055420 0.349220 -0.041725
N6    N     N_R   0.943200 0.791100 0.497260 -0.039864
N7    N     N_R   0.795540 0.849750 0.292910 -0.045150
N8    N     N_R   0.205730 0.996760 0.553580 -0.038183
N9    N     N_R   0.056800 0.208900 0.502740 -0.036286
N10   N     N_R   0.204460 0.150250 0.707090 -0.040350
N11   N     N_R   0.794270 0.003240 0.446420 -0.042098
N12   N     N_R   0.204920 0.207570 0.650770 -0.041487
N13   N     N_R   0.793810 0.945920 0.502740 -0.043655
N14   N     N_R   0.943620 0.152590 0.446420 -0.039430
N15   N     N_R   0.055110 0.000900 0.707100 -0.038288
N16   N     N_R   0.795080 0.792430 0.349230 -0.041411
Ni1   Ni    Ni4+2 0.869690 0.869690 0.500000 0.206859
Ni2   Ni    Ni4+2 0.130310 0.130310 0.500000 0.213790
Ni3   Ni    Ni4+2 0.129250 0.998840 0.629170 0.213130
Ni4   Ni    Ni4+2 0.870750 0.001160 0.370830 0.205854
O1    O     O_3   0.604929 0.609051 0.539727 -0.623346
C83   C     C_3   0.672845 0.602209 0.494628 0.204904
H53   H     H_    0.727323 0.681590 0.504959 0.083342
H54   H     H_    0.620994 0.540013 0.406111 0.113472
C84   C     C_3   0.746254 0.566797 0.552226 -0.873506
H55   H     H_    0.696473 0.489328 0.546998 0.271357
H56   H     H_    0.795297 0.554143 0.513375 0.205189
H57   H     H_    0.802751 0.630553 0.639794 0.248178
O2    O     O_3   0.414416 0.451069 0.511189 -0.661556
C85   C     C_3   0.351752 0.414743 0.398681 0.181945
H58   H     H_    0.295432 0.324517 0.350623 0.079294
H59   H     H_    0.406837 0.439260 0.366090 0.133441
C86   C     C_3   0.282817 0.468784 0.385818 -0.254564
H60   H     H_    0.224004 0.440883 0.413253 0.195812
H61   H     H_    0.336439 0.558833 0.437982 0.212878
C87   C     C_3   0.219494 0.439927 0.267115 -1.017302
H62   H     H_    0.276936 0.470018 0.238714 0.265538
H63   H     H_    0.168915 0.478965 0.260764 0.277330
H64   H     H_    0.164584 0.350221 0.213575 0.264126
O3    O     O_3   0.515529 0.983535 0.088033 -0.663022
C88   C     C_3   0.508928 0.936430 0.154996 0.238958
H65   H     H_    0.518013 0.992122 0.232333 0.089072
H66   H     H_    0.573167 0.914074 0.175425 0.090502
C89   C     C_3   0.397328 0.833612 0.093022 -0.886085
H67   H     H_    0.381758 0.778277 0.012006 0.260998
H68   H     H_    0.394099 0.790646 0.140837 0.216745
H69   H     H_    0.332481 0.855247 0.080096 0.245629
O4    O     O_3   0.492310 0.343386 0.106695 -0.693291
C90   C     C_3   0.509408 0.317826 0.015818 0.134974
H70   H     H_    0.507315 0.377407 0.988001 0.125865
H71   H     H_    0.445673 0.235377 0.943007 0.091552
C91   C     C_3   0.621960 0.328841 0.050771 -0.269266
H72   H     H_    0.686293 0.415347 0.112012 0.193452
H73   H     H_    0.629789 0.278182 0.089204 0.220597
C92   C     C_3   0.639085 0.291630 0.953028 -1.021078
H74   H     H_    0.579047 0.203548 0.893795 0.269078
H75   H     H_    0.722820 0.304211 0.981728 0.276736
H76   H     H_    0.629268 0.339102 0.910969 0.259817

loop_
_geom_bond_atom_site_label_1
_geom_bond_atom_site_label_2
_ccdc_geom_bond_type
C28   H15   S    
C66   C68   A    
C13   H8    S    
C41   C42   A    
C54   C55   A    
C3    C23   A    
C35   C36   A    
C83   C84   S    
C90   H70   S    
C2    C12   A    
C89   H67   S    
C39   H22   S    
C86   H61   S    
C20   C30   S    
C53   C54   A    
C45   H41   S    
C34   H31   S    
C10   H6    S    
C26   C27   A    
C62   C63   A    
C41   H23   S    
C18   C24   A    
C18   H9    S    
C36   C37   A    
C33   O2    S    
C90   H71   S    
C38   C39   A    
C33   C35   A    
C34   N11   A    
C40   C50   S    
N7    Ni4   S    
C23   H20   S    
C87   H62   S    
C58   C60   S    
C79   H47   S    
N5    Ni2   S    
C8    N4    A    
C18   C19   A    
C73   C74   A    
C31   H16   S    
N10   Ni3   S    
C92   H75   S    
N15   Ni3   S    
O3    C88   S    
C6    N2    A    
C19   H10   S    
C67   N14   A    
N11   N13   A    
C6    C15   A    
O4    C90   S    
O2    C85   S    
C91   C92   S    
C84   H55   S    
C59   H34   S    
N2    N8    A    
C66   H40   S    
C70   C71   A    
C51   C57   A    
C65   H39   S    
C86   C87   S    
C29   C30   A    
C4    C29   S    
C24   O1    S    
C72   C73   A    
C53   H29   S    
C17   C70   S    
C51   H27   S    
C21   C22   A    
C4    C56   A    
C85   H59   S    
C69   C70   A    
C10   N6    A    
N2    Ni2   S    
C44   C46   A    
N7    N16   A    
C88   C89   S    
C77   C79   A    
C5    H52   S    
N3    N6    A    
C4    C34   A    
C6    H2    S    
C63   C64   A    
C54   H30   S    
C45   N12   A    
C56   H49   S    
C47   C48   A    
C69   C74   A    
C80   H48   S    
C76   C77   A    
C88   H66   S    
C2    C67   A    
C90   C91   S    
C16   C46   S    
C86   H60   S    
C7    N3    A    
C75   C81   A    
C15   C26   S    
C69   H42   S    
C25   C26   A    
N1    N15   A    
C14   C61   S    
C3    C45   A    
C5    N16   A    
C51   C52   A    
C36   H19   S    
C83   H53   S    
C92   H76   S    
N13   Ni1   S    
C75   C76   A    
C38   H21   S    
C2    C49   S    
C47   C57   S    
C11   N7    A    
C78   C82   A    
C31   C32   A    
C52   H28   S    
C48   C49   A    
C68   O4    S    
C11   H7    S    
C84   H56   S    
C5    C14   A    
C84   H57   S    
N3    Ni3   S    
C60   H35   S    
C11   C14   A    
C13   N8    A    
C42   H24   S    
N6    Ni1   S    
C62   H37   S    
C77   H46   S    
C25   H14   S    
N12   Ni2   S    
N11   Ni4   S    
N10   N12   A    
C40   C41   A    
C49   C50   A    
C55   C57   A    
C58   H33   S    
C22   C24   A    
C23   N10   A    
C58   C59   D    
C42   C43   A    
C91   H73   S    
C35   H18   S    
C28   C29   A    
C73   C82   S    
C27   C28   A    
C52   C53   A    
C44   H25   S    
C9    C17   A    
C25   C30   A    
N14   Ni4   S    
C46   C47   A    
C85   H58   S    
C61   H36   S    
C85   C86   S    
C7    C16   A    
C80   C81   A    
C89   H68   S    
C12   N9    A    
C55   H32   S    
C1    H1    S    
C19   C20   A    
C8    C17   A    
C32   H17   S    
C62   C68   A    
C72   H43   S    
C75   H44   S    
C64   C65   A    
C56   N13   A    
C13   C15   A    
C1    C82   A    
C38   C43   A    
C88   H65   S    
C10   C16   A    
C32   C33   A    
C63   H38   S    
C9    N5    A    
N4    Ni4   S    
C48   H26   S    
C87   H63   S    
C27   C37   S    
N1    Ni1   S    
C83   H54   S    
C43   O3    S    
C67   H50   S    
C8    H4    S    
N8    Ni3   S    
C92   H74   S    
C12   H11   S    
C78   H51   S    
N9    N14   A    
C89   H69   S    
N4    N5    A    
C79   C80   A    
C39   C40   A    
C22   H13   S    
C31   C37   A    
C71   C72   A    
C7    H3    S    
C20   C21   A    
C44   C50   A    
C65   C66   A    
C21   H12   S    
O1    C83   S    
C76   H45   S    
C64   C74   S    
N16   Ni1   S    
C60   C61   D    
C91   H72   S    
C1    N1    A    
N9    Ni2   S    
C78   N15   A    
C3    C59   S    
C71   C81   S    
C87   H64   S    
C9    H5    S    
