data_mof_unit_22447.cif
_audit_creation_date              2012-12-10T20:31:02-0500
_audit_creation_method            fapswitch 2.2
_symmetry_space_group_name_H-M    P1
_symmetry_Int_Tables_number       1
_space_group_crystal_system       triclinic
_cell_length_a                    14.879157
_cell_length_b                    10.724005
_cell_length_c                    9.914582
_cell_angle_alpha                 89.817179
_cell_angle_beta                  90.62129
_cell_angle_gamma                 90.715021
_cell_volume                      1581.78831586

loop_
_atom_site_label
_atom_site_type_symbol
_atom_type_description
_atom_site_fract_x
_atom_site_fract_y
_atom_site_fract_z
_atom_type_partial_charge
C1    C     C_R   0.501780 0.260177 0.500369 0.882930
C2    C     C_R   0.907867 0.606310 0.544932 0.098457
C3    C     C_R   0.948596 0.291216 0.400866 -0.248240
C4    C     C_R   0.041733 0.289464 0.401383 -0.201981
C5    C     C_R   0.091425 0.393477 0.447365 0.139877
C6    C     C_R   0.046590 0.501326 0.492414 -0.035199
C7    C     C_R   0.095222 0.608122 0.536943 0.099841
C8    C     C_R   0.049846 0.714376 0.583307 0.105643
C9    C     C_R   0.955989 0.711666 0.588364 -0.265909
C10   C     C_R   0.184969 0.391581 0.450704 0.015111
C11   C     C_R   0.231837 0.497874 0.495942 -0.114512
C12   C     C_R   0.327257 0.499352 0.499111 0.879856
C13   C     C_R   0.188396 0.604727 0.537450 -0.279634
C14   C     C_R   0.513462 0.063159 0.623287 0.043013
C15   C     C_R   0.513058 0.128705 0.501508 -0.110333
C16   C     C_R   0.527578 0.065182 0.380256 -0.231398
C17   C     C_R   0.527227 0.936191 0.380022 -0.218530
C18   C     C_R   0.512381 0.871314 0.500922 -0.113160
C19   C     C_R   0.512458 0.935689 0.622775 0.005421
C20   C     C_3   0.455980 0.925024 0.748567 0.155764
C21   C     C_3   0.456060 0.069849 0.747385 0.168684
C22   C     C_R   0.421433 0.496121 0.070592 0.184459
C23   C     C_R   0.501591 0.739726 0.500003 0.871584
C24   C     C_R   0.577583 0.511182 0.074020 -0.204637
C25   C     C_R   0.578229 0.510870 0.930913 0.134328
C26   C     C_R   0.420392 0.498851 0.927910 0.131937
C27   C     C_3   0.348760 0.397602 0.927497 -0.140799
C28   C     C_3   0.353105 0.395256 0.080543 -0.528955
C29   C     C_R   0.672757 0.500761 0.500613 0.886542
C30   C     C_R   0.814797 0.604050 0.550049 -0.253873
C31   C     C_R   0.767914 0.500262 0.501519 -0.045801
C32   C     C_R   0.811209 0.397096 0.449867 -0.271191
C33   C     C_R   0.904123 0.395963 0.448089 0.141839
C34   C     C_R   0.952980 0.501400 0.494822 0.061417
H1    H     H_    0.778567 0.683403 0.588579 0.132330
H2    H     H_    0.533125 0.888106 0.284729 0.173042
H3    H     H_    0.640411 0.519090 0.129295 0.165017
H4    H     H_    0.372991 0.310108 0.883243 0.176167
H5    H     H_    0.291537 0.427083 0.131979 0.212314
H6    H     H_    0.772345 0.317665 0.412964 0.137226
H7    H     H_    0.381482 0.307485 0.122069 0.187536
H8    H     H_    0.911338 0.210190 0.364914 0.149190
H9    H     H_    0.074425 0.206391 0.365594 0.171466
H10   H     H_    0.228180 0.684304 0.571264 0.156130
H11   H     H_    0.920420 0.791995 0.625536 0.143102
H12   H     H_    0.533832 0.114067 0.284945 0.170630
N1    N     N_R   0.499390 0.499140 0.142800 -0.109628
N2    N     N_R   0.499390 0.499180 0.857150 -0.129745
O1    O     O_R   0.500010 0.316790 0.614690 -0.612471
O2    O     O_R   0.500000 0.316760 0.385350 -0.627906
O3    O     O_R   0.367850 0.499990 0.614680 -0.628358
O4    O     O_R   0.367840 0.499950 0.385340 -0.616860
O5    O     O_R   0.500000 0.683240 0.614650 -0.629862
O6    O     O_R   0.499990 0.683210 0.385310 -0.618542
O7    O     O_R   0.632160 0.500050 0.614660 -0.589748
O8    O     O_R   0.632150 0.500010 0.385320 -0.629120
Zn1   Zn    Zn3+2 0.500010 0.500020 0.653130 0.940254
Zn2   Zn    Zn3+2 0.499990 0.499980 0.346870 0.934595
N3    N     N_3   0.365820 0.870241 0.723940 -0.483884
H13   H     H_    0.368114 0.773351 0.733166 0.195113
H14   H     H_    0.344166 0.887630 0.625016 0.167007
C35   C     C_3   0.504136 0.863512 0.872318 -0.334082
C36   C     C_3   0.607585 0.877064 0.874326 -0.328822
C37   C     C_3   0.646285 0.854588 0.015315 -0.918531
H15   H     H_    0.626695 0.931254 0.083594 0.263502
H16   H     H_    0.621347 0.764687 0.056851 0.266079
H17   H     H_    0.720775 0.852316 0.010914 0.251103
H18   H     H_    0.636290 0.808476 0.803382 0.220305
H19   H     H_    0.629690 0.971291 0.841090 0.239999
H20   H     H_    0.475533 0.902511 0.966067 0.194943
H21   H     H_    0.488101 0.762188 0.874875 0.195224
N4    N     N_3   0.368417 0.127752 0.721916 -0.474438
H22   H     H_    0.324272 0.099753 0.797899 0.189996
H23   H     H_    0.341098 0.097989 0.629808 0.173914
N5    N     N_3   0.503995 0.127494 0.861687 -0.464857
H24   H     H_    0.461946 0.125066 0.945498 0.166637
H25   H     H_    0.517015 0.221256 0.840196 0.221026
N6    N     N_3   0.662692 0.520704 0.864971 -0.390991
H26   H     H_    0.694754 0.603004 0.896486 0.169965
H27   H     H_    0.702276 0.445937 0.896453 0.170860
C38   C     C_3   0.254136 0.431891 0.874291 -0.341859
C39   C     C_3   0.226543 0.567814 0.899683 -0.317007
C40   C     C_3   0.124515 0.580875 0.895428 -0.858718
H28   H     H_    0.095772 0.537068 0.803194 0.272199
H29   H     H_    0.094435 0.534652 0.984949 0.252857
H30   H     H_    0.106710 0.681097 0.896508 0.261432
H31   H     H_    0.250864 0.601161 0.999629 0.218047
H32   H     H_    0.256834 0.628848 0.821403 0.225490
H33   H     H_    0.249515 0.412049 0.764908 0.215154
H34   H     H_    0.205104 0.367065 0.922666 0.202083
N7    N     N_3   0.231605 0.280449 0.413565 -0.486741
H35   H     H_    0.272044 0.253207 0.494934 0.176099
H36   H     H_    0.273060 0.300540 0.331922 0.199355
N8    N     N_3   0.099217 0.823192 0.627734 -0.467895
H37   H     H_    0.127032 0.865343 0.542326 0.178534
H38   H     H_    0.055981 0.888356 0.669602 0.181588

loop_
_geom_bond_atom_site_label_1
_geom_bond_atom_site_label_2
_ccdc_geom_bond_type
C7    C13   A    
C3    H8    S    
C9    H11   S    
C19   C20   S    
C38   C39   S    
N2    Zn1   S    
C26   C27   S    
C30   H1    S    
C14   C21   S    
C30   C31   A    
N6    H27   S    
C3    C33   A    
C27   H4    S    
C39   H31   S    
C28   H7    S    
O1    Zn1   S    
C35   H20   S    
C18   C19   A    
C40   H28   S    
C8    C9    A    
C1    C15   S    
C17   H2    S    
C1    O2    A    
C26   N2    A    
C38   H33   S    
C2    C34   A    
C22   N1    A    
N3    H13   S    
C22   C28   S    
C12   O4    A    
C23   O5    A    
C33   C34   A    
N3    H14   S    
C21   N4    S    
C18   C23   S    
O2    Zn2   S    
C37   H17   S    
C36   H19   S    
C7    C8    A    
C8    N8    S    
C24   C25   A    
N4    H23   S    
C16   H12   S    
N7    H35   S    
O5    Zn1   S    
N6    H26   S    
C16   C17   A    
C29   O7    A    
C28   H5    S    
C25   N6    S    
C6    C34   A    
C37   H16   S    
N5    H24   S    
C35   C36   S    
N7    H36   S    
C31   C32   A    
C27   C38   S    
C17   C18   A    
C20   N3    S    
N8    H38   S    
N5    H25   S    
C25   N2    A    
O4    Zn2   S    
O3    Zn1   S    
C38   H34   S    
C40   H29   S    
C10   N7    S    
O7    Zn1   S    
C3    C4    A    
C12   O3    A    
C23   O6    A    
O6    Zn2   S    
C24   H3    S    
C36   H18   S    
C24   N1    A    
C14   C19   A    
N4    H22   S    
C11   C12   S    
C6    C7    A    
C29   O8    A    
C21   N5    S    
C2    C30   A    
C32   C33   A    
C5    C10   A    
C29   C31   S    
C37   H15   S    
N1    Zn2   S    
C11   C13   A    
C5    C6    A    
C39   H32   S    
C4    H9    S    
O8    Zn2   S    
C35   H21   S    
C32   H6    S    
C20   C35   S    
N8    H37   S    
C10   C11   A    
C36   C37   S    
C4    C5    A    
C40   H30   S    
C20   C21   S    
C39   C40   S    
C22   C26   A    
C27   C28   S    
C14   C15   A    
C2    C9    A    
C1    O1    A    
C13   H10   S    
C15   C16   A    
