data_mof_unit_23884.cif
_audit_creation_date              2012-12-10T17:16:48-0500
_audit_creation_method            fapswitch 2.2
_symmetry_space_group_name_H-M    P1
_symmetry_Int_Tables_number       1
_space_group_crystal_system       triclinic
_cell_length_a                    18.610552
_cell_length_b                    18.101293
_cell_length_c                    51.463569
_cell_angle_alpha                 90.024851
_cell_angle_beta                  89.974232
_cell_angle_gamma                 89.875675
_cell_volume                      17336.7484136

loop_
_atom_site_label
_atom_site_type_symbol
_atom_type_description
_atom_site_fract_x
_atom_site_fract_y
_atom_site_fract_z
_atom_type_partial_charge
C1    C     C_R   0.999977 0.500014 0.929200 0.904907
C2    C     C_R   0.499742 0.000004 0.929304 1.024970
C3    C     C_R   0.499979 0.000145 0.429200 0.917015
C4    C     C_R   0.999661 0.499930 0.429277 1.030658
C5    C     C_R   0.556624 0.955832 0.777215 -0.072825
C6    C     C_R   0.957073 0.548769 0.776562 -0.069768
C7    C     C_R   0.457332 0.042191 0.778158 -0.070145
C8    C     C_R   0.031895 0.439119 0.776755 -0.072463
C9    C     C_R   0.042865 0.446855 0.277609 -0.074801
C10   C     C_R   0.466204 0.060312 0.276639 -0.074795
C11   C     C_R   0.951179 0.541950 0.277755 -0.073394
C12   C     C_R   0.535437 0.946792 0.276762 -0.070902
C13   C     C_R   0.507491 0.000816 0.763898 0.011064
C14   C     C_R   0.993871 0.493311 0.762853 0.004747
C15   C     C_R   0.997173 0.494703 0.263886 0.015730
C16   C     C_R   0.500853 0.003423 0.262892 0.005118
C17   C     C_R   0.611555 0.920680 0.763493 -0.182022
C18   C     C_R   0.914572 0.599382 0.763060 -0.173105
C19   C     C_R   0.404296 0.082083 0.765113 -0.173799
C20   C     C_R   0.071456 0.385845 0.763321 -0.167396
C21   C     C_R   0.092346 0.403401 0.264141 -0.179078
C22   C     C_R   0.428603 0.114766 0.263085 -0.168919
C23   C     C_R   0.901785 0.585763 0.264420 -0.179337
C24   C     C_R   0.573350 0.892265 0.263331 -0.174604
C25   C     C_R   0.098985 0.407504 0.237118 0.334596
C26   C     C_R   0.423358 0.113571 0.235974 0.325677
C27   C     C_R   0.895881 0.583006 0.237361 0.333702
C28   C     C_R   0.578716 0.892945 0.236219 0.325895
C29   C     C_R   0.619639 0.930300 0.736661 0.338223
C30   C     C_R   0.906922 0.595898 0.736035 0.334222
C31   C     C_R   0.398244 0.079866 0.738015 0.333171
C32   C     C_R   0.075734 0.386022 0.736187 0.326010
C33   C     C_R   0.050490 0.453655 0.222766 -0.147561
C34   C     C_R   0.459364 0.056560 0.221677 -0.144841
C35   C     C_R   0.945083 0.537977 0.222864 -0.147594
C36   C     C_R   0.542440 0.949444 0.221788 -0.144431
C37   C     C_R   0.565457 0.969767 0.722498 -0.143788
C38   C     C_R   0.947708 0.542505 0.721646 -0.141249
C39   C     C_R   0.451226 0.040609 0.723164 -0.148364
C40   C     C_R   0.037035 0.440790 0.721773 -0.146552
C41   C     C_R   0.997556 0.495412 0.236432 -0.072197
C42   C     C_R   0.500901 0.003151 0.235393 -0.063311
C43   C     C_R   0.508118 0.003831 0.736440 -0.071175
C44   C     C_R   0.992848 0.492208 0.735360 -0.063528
C45   C     C_R   0.052315 0.460824 0.195464 0.686021
C46   C     C_R   0.455601 0.049597 0.194352 0.689676
C47   C     C_R   0.944482 0.532815 0.195500 0.686539
C48   C     C_R   0.545832 0.955535 0.194431 0.688459
C49   C     C_R   0.565111 0.976554 0.695128 0.686807
C50   C     C_R   0.945980 0.536672 0.694239 0.688794
C51   C     C_R   0.449864 0.035029 0.695767 0.683991
C52   C     C_R   0.040957 0.447655 0.694465 0.690782
C53   C     C_R   0.008279 0.564973 0.141090 0.356517
C54   C     C_R   0.480582 0.937168 0.139641 0.363501
C55   C     C_R   0.990547 0.432204 0.140603 0.356557
C56   C     C_R   0.519799 0.065741 0.139284 0.363853
C57   C     C_R   0.503252 0.070096 0.640163 0.358200
C58   C     C_R   0.980903 0.430306 0.638789 0.364960
C59   C     C_R   0.504933 0.935777 0.641053 0.352980
C60   C     C_R   0.013902 0.560671 0.640189 0.362771
C61   C     C_R   0.992951 0.566416 0.114311 0.286674
C62   C     C_R   0.494226 0.933623 0.112691 0.267029
C63   C     C_R   0.007036 0.432141 0.113935 0.287351
C64   C     C_R   0.505724 0.068150 0.112363 0.267509
C65   C     C_R   0.485958 0.067072 0.613553 0.295978
C66   C     C_R   0.996780 0.429833 0.611988 0.262788
C67   C     C_R   0.517915 0.935791 0.614044 0.295739
C68   C     C_R   0.001675 0.564896 0.613143 0.277750
C69   C     C_R   0.000137 0.499603 0.099746 -0.401456
C70   C     C_R   0.499946 0.000600 0.098629 -0.366788
C71   C     C_R   0.500982 0.000743 0.599567 -0.398784
C72   C     C_R   0.999859 0.498261 0.598652 -0.360220
C73   C     C_R   0.000079 0.499964 0.070584 0.962996
C74   C     C_R   0.499981 0.000065 0.070042 1.008720
C75   C     C_R   0.500084 0.000085 0.570519 0.989821
C76   C     C_R   0.999993 0.499879 0.570053 0.990919
C77   C     C_R   0.999200 0.498193 0.154631 -0.090052
C78   C     C_R   0.500323 0.001744 0.153352 -0.089594
C79   C     C_R   0.505025 0.003782 0.654447 -0.090759
C80   C     C_R   0.996320 0.494541 0.653348 -0.092146
C81   C     C_R   0.568620 0.007778 0.860146 -0.111381
C82   C     C_R   0.932801 0.493160 0.859375 -0.163185
C83   C     C_R   0.440524 0.975195 0.860002 -0.151226
C84   C     C_R   0.063910 0.503248 0.858764 -0.164384
C85   C     C_R   0.062159 0.512168 0.359392 -0.094649
C86   C     C_R   0.434373 0.998910 0.359023 -0.168186
C87   C     C_R   0.934700 0.479397 0.359966 -0.104945
C88   C     C_R   0.565557 0.007189 0.359071 -0.163162
C89   C     C_R   0.569039 0.005017 0.887612 0.235323
C90   C     C_R   0.934704 0.511635 0.886007 0.312402
C91   C     C_R   0.437661 0.992696 0.886737 0.281468
C92   C     C_R   0.063803 0.487225 0.885613 0.312080
C93   C     C_R   0.063955 0.511068 0.386824 0.204077
C94   C     C_R   0.435434 0.014467 0.385881 0.310240
C95   C     C_R   0.933447 0.485614 0.387312 0.190562
C96   C     C_R   0.564250 0.988588 0.385735 0.297789
C97   C     C_R   0.502408 0.999958 0.900806 -0.275879
C98   C     C_R   0.999628 0.499778 0.900103 -0.255191
C99   C     C_R   0.998875 0.499528 0.400762 -0.281968
C100  C     C_R   0.499860 0.000971 0.400105 -0.249078
C101  C     C_R   0.504879 0.991078 0.846241 0.058115
C102  C     C_R   0.997911 0.497546 0.845121 0.057456
C103  C     C_R   0.998148 0.494977 0.346098 0.053362
C104  C     C_R   0.500010 0.003704 0.345131 0.064115
C105  C     C_R   0.860070 0.640593 0.000305 0.861197
C106  C     C_R   0.359470 0.860421 0.998765 0.892938
C107  C     C_R   0.139844 0.359284 0.000233 0.863097
C108  C     C_R   0.640578 0.139517 0.998720 0.901095
C109  C     C_R   0.139297 0.641155 0.999853 0.864143
C110  C     C_R   0.639955 0.859572 0.998940 0.930245
C111  C     C_R   0.860693 0.358870 0.999863 0.863316
C112  C     C_R   0.360013 0.140360 0.998912 0.939305
C113  C     C_R   0.360705 0.140970 0.499830 0.882859
C114  C     C_R   0.859375 0.360489 0.498691 0.908039
C115  C     C_R   0.638175 0.858257 0.499237 0.902860
C116  C     C_R   0.140750 0.639383 0.498648 0.928021
C117  C     C_R   0.639778 0.140612 0.500100 0.863855
C118  C     C_R   0.138407 0.358366 0.500059 0.907812
C119  C     C_R   0.360300 0.859338 0.500107 0.888023
C120  C     C_R   0.860730 0.640960 0.499669 0.919850
C121  C     C_R   0.184833 0.706119 0.951309 -0.113133
C122  C     C_R   0.382529 0.294416 0.977692 -0.151196
C123  C     C_R   0.815939 0.293358 0.951351 -0.111485
C124  C     C_R   0.617380 0.705370 0.977785 -0.164139
C125  C     C_R   0.711606 0.600056 0.996426 -0.124479
C126  C     C_R   0.694387 0.205562 0.949579 -0.093389
C127  C     C_R   0.288327 0.399608 0.996489 -0.123817
C128  C     C_R   0.306093 0.794262 0.949708 -0.104540
C129  C     C_R   0.684701 0.205920 0.451948 -0.121913
C130  C     C_R   0.875916 0.777058 0.528961 -0.146504
C131  C     C_R   0.316453 0.793147 0.451980 -0.112590
C132  C     C_R   0.105116 0.203672 0.509522 -0.150611
C133  C     C_R   0.215176 0.100030 0.511757 -0.137257
C134  C     C_R   0.191924 0.710311 0.449969 -0.109806
C135  C     C_R   0.766005 0.881627 0.528926 -0.143676
C136  C     C_R   0.808978 0.289105 0.450008 -0.118314
C137  C     C_R   0.214436 0.724592 0.927153 -0.068405
C138  C     C_R   0.396706 0.369231 0.973198 -0.079887
C139  C     C_R   0.786979 0.274442 0.927154 -0.064712
C140  C     C_R   0.603283 0.630587 0.973174 -0.073630
C141  C     C_R   0.648569 0.576797 0.984270 -0.058239
C142  C     C_R   0.721423 0.235351 0.926345 -0.078344
C143  C     C_R   0.351465 0.422943 0.984399 -0.059138
C144  C     C_R   0.280015 0.763644 0.926490 -0.071020
C145  C     C_R   0.715453 0.221500 0.427751 -0.068704
C146  C     C_R   0.883744 0.842252 0.543519 -0.088909
C147  C     C_R   0.286676 0.776343 0.427735 -0.070730
C148  C     C_R   0.088186 0.129061 0.513891 -0.069648
C149  C     C_R   0.144419 0.076986 0.515961 -0.082008
C150  C     C_R   0.219485 0.740409 0.426860 -0.074808
C151  C     C_R   0.828506 0.895779 0.543231 -0.083483
C152  C     C_R   0.782747 0.257210 0.427004 -0.074294
C153  C     C_R   0.276669 0.775519 0.974239 0.018666
C154  C     C_R   0.267519 0.324454 0.996411 0.042449
C155  C     C_R   0.723543 0.224362 0.974162 0.018118
C156  C     C_R   0.732331 0.675226 0.996502 0.045171
C157  C     C_R   0.680825 0.729039 0.990566 0.054189
C158  C     C_R   0.782033 0.273503 0.974919 0.037550
C159  C     C_R   0.319049 0.270694 0.990445 0.048947
C160  C     C_R   0.218282 0.726267 0.974940 0.038562
C161  C     C_R   0.778289 0.273167 0.474646 0.023999
C162  C     C_R   0.757628 0.816080 0.514298 0.048838
C163  C     C_R   0.222322 0.726436 0.474618 0.025819
C164  C     C_R   0.232148 0.174104 0.505466 0.050782
C165  C     C_R   0.176659 0.226981 0.504889 0.044142
C166  C     C_R   0.281635 0.774219 0.475498 0.051161
C167  C     C_R   0.813207 0.763158 0.514271 0.037510
C168  C     C_R   0.719071 0.225237 0.475517 0.044399
C169  C     C_R   0.191351 0.701891 0.999202 -0.220120
C170  C     C_R   0.302844 0.195379 0.995671 -0.256449
C171  C     C_R   0.808669 0.298095 0.999190 -0.219316
C172  C     C_R   0.697044 0.804343 0.995853 -0.274013
C173  C     C_R   0.803381 0.696947 0.002237 -0.234894
C174  C     C_R   0.694275 0.198330 0.998017 -0.211724
C175  C     C_R   0.196382 0.302691 0.001997 -0.232342
C176  C     C_R   0.305713 0.801690 0.998091 -0.208347
C177  C     C_R   0.692799 0.200436 0.499798 -0.221682
C178  C     C_R   0.805552 0.698567 0.499007 -0.241018
C179  C     C_R   0.307804 0.799045 0.499765 -0.211376
C180  C     C_R   0.193933 0.301546 0.499281 -0.255543
C181  C     C_R   0.304087 0.196888 0.501428 -0.220579
C182  C     C_R   0.193707 0.698993 0.498385 -0.215449
C183  C     C_R   0.693909 0.801858 0.500226 -0.221760
C184  C     C_R   0.806764 0.300636 0.498419 -0.215626
C185  C     C_R   0.218283 0.731917 0.022759 0.209813
C186  C     C_R   0.231314 0.172853 0.999392 0.246773
C187  C     C_R   0.781525 0.268217 0.022725 0.211259
C188  C     C_R   0.768531 0.826697 0.999862 0.238437
C189  C     C_R   0.820841 0.773167 0.005897 0.241775
C190  C     C_R   0.717848 0.227290 0.021875 0.264804
C191  C     C_R   0.178761 0.226348 0.005343 0.237579
C192  C     C_R   0.281966 0.772876 0.021946 0.265757
C193  C     C_R   0.721535 0.228167 0.523512 0.200164
C194  C     C_R   0.744434 0.688144 0.483161 0.228494
C195  C     C_R   0.280034 0.770183 0.523458 0.200359
C196  C     C_R   0.265276 0.323223 0.493889 0.226254
C197  C     C_R   0.321583 0.272744 0.498307 0.243420
C198  C     C_R   0.217352 0.726910 0.522493 0.255702
C199  C     C_R   0.684478 0.734977 0.486452 0.241691
C200  C     C_R   0.784117 0.271617 0.522479 0.275687
C201  C     C_R   0.460785 0.041962 0.805440 0.658394
C202  C     C_R   0.029408 0.439286 0.804054 0.659878
C203  C     C_R   0.550474 0.948091 0.804294 0.583813
C204  C     C_R   0.962749 0.551780 0.803779 0.652730
C205  C     C_R   0.955432 0.544196 0.304962 0.589262
C206  C     C_R   0.531437 0.945946 0.304034 0.651149
C207  C     C_R   0.038580 0.444059 0.304818 0.590548
C208  C     C_R   0.469745 0.061421 0.303917 0.674286
H1    H     H_    0.133710 0.677806 0.951405 0.162447
H2    H     H_    0.417630 0.256657 0.967819 0.211150
H3    H     H_    0.867055 0.321686 0.951536 0.161967
H4    H     H_    0.582180 0.743149 0.968000 0.204504
H5    H     H_    0.745000 0.558680 0.005658 0.173844
H6    H     H_    0.648114 0.170639 0.947946 0.229951
H7    H     H_    0.254912 0.440913 0.005772 0.173854
H8    H     H_    0.351872 0.829877 0.948094 0.222321
H9    H     H_    0.632479 0.179771 0.452130 0.169637
H10   H     H_    0.919233 0.737033 0.529392 0.173188
H11   H     H_    0.368578 0.819505 0.452254 0.170395
H12   H     H_    0.061148 0.242712 0.509005 0.188130
H13   H     H_    0.257210 0.059516 0.514597 0.165978
H14   H     H_    0.144112 0.677872 0.448173 0.229490
H15   H     H_    0.724103 0.923201 0.529088 0.151940
H16   H     H_    0.856079 0.322672 0.448133 0.226974
H17   H     H_    0.650508 0.887993 0.774072 0.236217
H18   H     H_    0.885380 0.641012 0.773874 0.237065
H19   H     H_    0.365334 0.113026 0.776331 0.235368
H20   H     H_    0.100478 0.344239 0.774192 0.236003
H21   H     H_    0.127908 0.367511 0.274987 0.237856
H22   H     H_    0.401889 0.158201 0.273862 0.237033
H23   H     H_    0.865886 0.621063 0.275382 0.238166
H24   H     H_    0.600128 0.849122 0.274209 0.237427
N1    N     N_R   0.505216 0.993307 0.818092 -0.319836
N2    N     N_R   0.996920 0.496337 0.817057 -0.305818
N3    N     N_R   0.997281 0.494239 0.318028 -0.338276
N4    N     N_R   0.500236 0.003615 0.317095 -0.302639
N5    N     N_R   0.998712 0.497346 0.182637 -0.321838
N6    N     N_R   0.500595 0.002318 0.181439 -0.312797
N7    N     N_R   0.506817 0.005440 0.682535 -0.320126
N8    N     N_R   0.994228 0.492717 0.681419 -0.313407
O1    O     O_3   0.000000 0.500000 0.999730 -0.584255
O2    O     O_3   0.500000 0.000000 0.999730 -0.557386
O3    O     O_3   0.500000 0.000000 0.499730 -0.579524
O4    O     O_3   1.000000 0.500000 0.499730 -0.551974
O5    O     O_R   0.061020 0.500000 0.941690 -0.576989
O6    O     O_R   0.500000 0.061020 0.941690 -0.575962
O7    O     O_R   0.938980 0.500000 0.941690 -0.577820
O8    O     O_R   0.500000 0.938980 0.941690 -0.640889
O9    O     O_R   0.561020 0.000000 0.441690 -0.578127
O10   O     O_R   1.000000 0.561020 0.441690 -0.586733
O11   O     O_R   0.438980 0.000000 0.441690 -0.576608
O12   O     O_R   1.000000 0.438980 0.441690 -0.621729
O13   O     O_R   1.000000 0.560630 0.057780 -0.563788
O14   O     O_R   0.439370 0.000000 0.057780 -0.597677
O15   O     O_R   1.000000 0.439370 0.057780 -0.564986
O16   O     O_R   0.560630 0.000000 0.057780 -0.598087
O17   O     O_R   0.500000 0.060630 0.557780 -0.567075
O18   O     O_R   0.939370 0.500000 0.557780 -0.604693
O19   O     O_R   0.500000 0.939370 0.557780 -0.569688
O20   O     O_R   0.060630 0.500000 0.557780 -0.604602
O21   O     O_R   0.854090 0.585380 0.984510 -0.619150
O22   O     O_R   0.414620 0.854090 0.984510 -0.658952
O23   O     O_R   0.145910 0.414620 0.984510 -0.619623
O24   O     O_R   0.585380 0.145910 0.984510 -0.657120
O25   O     O_R   0.145910 0.585380 0.984510 -0.624509
O26   O     O_R   0.585380 0.854090 0.984510 -0.678593
O27   O     O_R   0.854090 0.414620 0.984510 -0.624342
O28   O     O_R   0.414620 0.145910 0.984510 -0.663928
O29   O     O_R   0.354090 0.085380 0.484510 -0.618828
O30   O     O_R   0.914620 0.354090 0.484510 -0.655348
O31   O     O_R   0.645910 0.914620 0.484510 -0.616121
O32   O     O_R   0.085380 0.645910 0.484510 -0.656720
O33   O     O_R   0.645910 0.085380 0.484510 -0.654508
O34   O     O_R   0.085380 0.354090 0.484510 -0.661921
O35   O     O_R   0.354090 0.914620 0.484510 -0.638665
O36   O     O_R   0.914620 0.645910 0.484510 -0.617295
O37   O     O_R   0.085720 0.353770 0.014950 -0.552228
O38   O     O_R   0.646230 0.085720 0.014950 -0.579481
O39   O     O_R   0.914280 0.646230 0.014950 -0.553184
O40   O     O_R   0.353770 0.914280 0.014950 -0.579465
O41   O     O_R   0.914280 0.353770 0.014950 -0.552768
O42   O     O_R   0.353770 0.085720 0.014950 -0.565771
O43   O     O_R   0.085720 0.646230 0.014950 -0.553197
O44   O     O_R   0.646230 0.914280 0.014950 -0.559954
O45   O     O_R   0.585720 0.853770 0.514950 -0.589744
O46   O     O_R   0.146230 0.585720 0.514950 -0.593911
O47   O     O_R   0.414280 0.146230 0.514950 -0.559751
O48   O     O_R   0.853770 0.414280 0.514950 -0.608735
O49   O     O_R   0.414280 0.853770 0.514950 -0.552177
O50   O     O_R   0.853770 0.585720 0.514950 -0.600926
O51   O     O_R   0.585720 0.146230 0.514950 -0.541406
O52   O     O_R   0.146230 0.414280 0.514950 -0.567429
O53   O     O_2   0.418897 0.088681 0.819224 -0.536720
O54   O     O_2   0.060254 0.383684 0.817530 -0.540768
O55   O     O_2   0.589583 0.896137 0.816714 -0.501546
O56   O     O_2   0.933136 0.608744 0.816935 -0.541595
O57   O     O_2   0.917939 0.595714 0.318278 -0.506162
O58   O     O_2   0.559509 0.888681 0.317439 -0.541755
O59   O     O_2   0.075754 0.392083 0.317997 -0.498495
O60   O     O_2   0.441815 0.119002 0.317221 -0.534531
O61   O     O_2   0.107009 0.432653 0.181490 -0.397041
O62   O     O_2   0.407299 0.088537 0.180511 -0.407284
O63   O     O_2   0.890388 0.561936 0.181489 -0.397339
O64   O     O_2   0.593928 0.916155 0.180625 -0.407495
O65   O     O_2   0.621678 0.954340 0.680823 -0.395706
O66   O     O_2   0.897235 0.574226 0.680149 -0.405222
O67   O     O_2   0.392094 0.057359 0.682148 -0.398689
O68   O     O_2   0.091516 0.411255 0.680793 -0.407412
Zn1   Zn    Zn3+2 1.000000 0.586680 0.021470 1.154595
Zn2   Zn    Zn3+2 0.413320 0.000000 0.021470 1.136838
Zn3   Zn    Zn3+2 1.000000 0.413320 0.021470 1.154915
Zn4   Zn    Zn3+2 0.586680 0.000000 0.021470 1.140373
Zn5   Zn    Zn3+2 0.500000 0.086680 0.521470 1.163176
Zn6   Zn    Zn3+2 0.913320 0.500000 0.521470 1.101851
Zn7   Zn    Zn3+2 0.500000 0.913320 0.521470 1.140237
Zn8   Zn    Zn3+2 0.086680 0.500000 0.521470 1.123560
Zn9   Zn    Zn3+2 0.913510 0.500000 0.977990 1.067857
Zn10  Zn    Zn3+2 0.500000 0.913510 0.977990 1.042653
Zn11  Zn    Zn3+2 0.086490 0.500000 0.977990 1.068159
Zn12  Zn    Zn3+2 0.500000 0.086490 0.977990 1.079833
Zn13  Zn    Zn3+2 0.413510 0.000000 0.477990 1.082593
Zn14  Zn    Zn3+2 1.000000 0.413510 0.477990 1.059872
Zn15  Zn    Zn3+2 0.586490 0.000000 0.477990 1.075157
Zn16  Zn    Zn3+2 1.000000 0.586490 0.477990 1.092658
S1    S     S_3+6 0.167089 0.728404 0.052221 0.163592
O69   O     O_2   0.162770 0.649917 0.061609 -0.226074
O70   O     O_2   0.197686 0.775568 0.073513 -0.160379
O71   O     O_3   0.083769 0.760054 0.046130 -0.399183
H25   H     H_    0.090807 0.810393 0.039044 0.378919
S2    S     S_3+6 0.207159 0.080480 0.990490 0.125873
O72   O     O_2   0.206993 0.032031 0.014203 -0.181110
O73   O     O_2   0.133992 0.078905 0.978111 -0.187051
O74   O     O_3   0.266403 0.045512 0.969060 -0.536467
H26   H     H_    0.257197 0.073039 0.952775 0.400228
S3    S     S_3+6 0.832638 0.271539 0.052184 0.163397
O75   O     O_2   0.837217 0.349993 0.061611 -0.226238
O76   O     O_2   0.801826 0.224444 0.073450 -0.161495
O77   O     O_3   0.915844 0.239598 0.046045 -0.399156
H27   H     H_    0.908630 0.189367 0.038874 0.378830
S4    S     S_3+6 0.793336 0.918848 0.991006 0.129879
O78   O     O_2   0.792482 0.967617 0.014652 -0.179542
O79   O     O_2   0.866981 0.920187 0.978986 -0.179164
O80   O     O_3   0.735063 0.953391 0.969233 -0.518533
H28   H     H_    0.738356 0.919531 0.954160 0.378835
S5    S     S_3+6 0.904392 0.801091 0.020359 0.140106
O81   O     O_2   0.964909 0.784821 0.001854 -0.238986
O82   O     O_2   0.907041 0.881401 0.027571 -0.169709
O83   O     O_3   0.917190 0.753450 0.047960 -0.421207
H29   H     H_    0.875756 0.766753 0.059123 0.361650
S6    S     S_3+6 0.658359 0.226284 0.049038 0.145974
O84   O     O_2   0.669176 0.156206 0.064255 -0.205746
O85   O     O_2   0.671672 0.291485 0.066471 -0.148491
O86   O     O_3   0.572679 0.231382 0.038655 -0.516193
H30   H     H_    0.553949 0.180334 0.039552 0.357332
S7    S     S_3+6 0.094708 0.198379 0.019414 0.139419
O87   O     O_2   0.034691 0.216042 0.000878 -0.240719
O88   O     O_2   0.091177 0.117796 0.026153 -0.168527
O89   O     O_3   0.081802 0.244928 0.047258 -0.421829
H31   H     H_    0.122422 0.230085 0.058554 0.361482
S8    S     S_3+6 0.341202 0.774251 0.049170 0.147110
O90   O     O_2   0.329900 0.844337 0.064361 -0.205191
O91   O     O_2   0.328006 0.709050 0.066598 -0.148279
O92   O     O_3   0.427027 0.769536 0.038892 -0.514853
H32   H     H_    0.445631 0.820613 0.039938 0.358866
S9    S     S_3+6 0.674501 0.214854 0.553686 0.153425
O93   O     O_2   0.670743 0.133695 0.559684 -0.221569
O94   O     O_2   0.707205 0.253911 0.576512 -0.157095
O95   O     O_3   0.590630 0.248196 0.550452 -0.414342
H33   H     H_    0.596939 0.300320 0.545076 0.370918
S10   S     S_3+6 0.749334 0.623656 0.456948 0.150483
O96   O     O_2   0.735913 0.547139 0.467137 -0.197657
O97   O     O_2   0.696395 0.640573 0.435719 -0.137397
O98   O     O_3   0.831819 0.626791 0.443774 -0.511391
H34   H     H_    0.836786 0.677868 0.437114 0.355106
S11   S     S_3+6 0.328239 0.781944 0.553465 0.150347
O99   O     O_2   0.330900 0.862703 0.560204 -0.239933
O100  O     O_2   0.296945 0.740676 0.576063 -0.148334
O101  O     O_3   0.412565 0.750224 0.549521 -0.449313
H35   H     H_    0.406882 0.698793 0.543280 0.357981
S12   S     S_3+6 0.281182 0.409024 0.477674 0.139857
O102  O     O_2   0.297488 0.467855 0.497412 -0.199914
O103  O     O_2   0.342860 0.402231 0.458937 -0.156768
O104  O     O_3   0.208661 0.435190 0.460660 -0.498992
H36   H     H_    0.196869 0.391786 0.449769 0.356393
S13   S     S_3+6 0.412693 0.303657 0.502547 0.123051
O105  O     O_2   0.459558 0.268303 0.482234 -0.260861
O106  O     O_2   0.421952 0.385897 0.501156 -0.166013
O107  O     O_3   0.441710 0.277561 0.532099 -0.453586
H37   H     H_    0.405673 0.297598 0.544411 0.364595
S14   S     S_3+6 0.159488 0.719167 0.550098 0.145130
O108  O     O_2   0.181762 0.653656 0.566197 -0.207291
O109  O     O_2   0.163094 0.787934 0.566432 -0.150654
O110  O     O_3   0.073613 0.708269 0.540575 -0.531658
H38   H     H_    0.060389 0.657277 0.545536 0.364665
S15   S     S_3+6 0.597410 0.708706 0.474776 0.110664
O111  O     O_2   0.584241 0.745421 0.449044 -0.192141
O112  O     O_2   0.592147 0.626391 0.471430 -0.173022
O113  O     O_3   0.531626 0.734054 0.495321 -0.534591
H39   H     H_    0.540647 0.705282 0.511368 0.375901
S16   S     S_3+6 0.843182 0.277919 0.549785 0.157358
O114  O     O_2   0.821563 0.342502 0.566479 -0.215962
O115  O     O_2   0.840161 0.208238 0.565630 -0.152124
O116  O     O_3   0.928829 0.289141 0.540008 -0.506391
H40   H     H_    0.941044 0.341026 0.544094 0.360537
C209  C     C_2   0.173079 0.706054 0.903331 1.014592
O117  O     O_2   0.134941 0.651123 0.902903 -0.598428
O118  O     O_R   0.174453 0.753403 0.881870 -0.737649
H41   H     H_    0.143457 0.735048 0.867021 0.365999
C210  C     C_2   0.453146 0.387917 0.954039 1.042347
O119  O     O_2   0.509298 0.352649 0.953458 -0.588355
O120  O     O_R   0.439502 0.441605 0.935199 -0.746619
H42   H     H_    0.477493 0.441782 0.921098 0.366469
C211  C     C_2   0.828993 0.292731 0.903451 1.008004
O121  O     O_2   0.866648 0.348016 0.903023 -0.605622
O122  O     O_R   0.828767 0.244830 0.882123 -0.723627
H43   H     H_    0.860118 0.263101 0.867353 0.367775
C212  C     C_2   0.546847 0.612041 0.954008 1.035198
O123  O     O_2   0.490535 0.647050 0.953578 -0.589145
O124  O     O_R   0.560668 0.558825 0.934999 -0.747876
H44   H     H_    0.522631 0.558756 0.920926 0.365835
C213  C     C_2   0.632566 0.496533 0.983509 1.010726
O125  O     O_2   0.570522 0.475133 0.982440 -0.550838
O126  O     O_R   0.688565 0.445022 0.984876 -0.780719
H45   H     H_    0.670731 0.392140 0.984501 0.358435
C214  C     C_2   0.676370 0.230046 0.902386 1.042679
O127  O     O_2   0.687970 0.270091 0.883733 -0.561025
O128  O     O_R   0.616939 0.182866 0.901833 -0.764363
H46   H     H_    0.589964 0.184905 0.884733 0.363425
C215  C     C_2   0.367590 0.503195 0.983799 1.011120
O129  O     O_2   0.429674 0.524517 0.982794 -0.550195
O130  O     O_R   0.311656 0.554771 0.985248 -0.780936
H47   H     H_    0.329563 0.607632 0.984980 0.358754
C216  C     C_2   0.326496 0.767573 0.902850 1.045673
O131  O     O_2   0.314967 0.727737 0.884130 -0.574080
O132  O     O_R   0.387414 0.812779 0.902802 -0.767285
H48   H     H_    0.416749 0.807962 0.886279 0.354303
C217  C     C_2   0.674055 0.202955 0.403946 1.026115
O133  O     O_2   0.634388 0.149171 0.403761 -0.610898
O134  O     O_R   0.677386 0.249018 0.382171 -0.713245
H49   H     H_    0.646181 0.230839 0.367351 0.368070
C218  C     C_2   0.949019 0.851641 0.559539 1.062223
O135  O     O_2   0.008090 0.839495 0.550117 -0.491402
O136  O     O_R   0.943056 0.874048 0.585452 -0.747664
H50   H     H_    0.991464 0.878000 0.594369 0.394375
C219  C     C_2   0.329037 0.793929 0.404051 1.028496
O137  O     O_2   0.368374 0.847975 0.403757 -0.597128
O138  O     O_R   0.327027 0.746693 0.382554 -0.713866
H51   H     H_    0.358791 0.764313 0.367802 0.369801
C220  C     C_2   0.011420 0.106690 0.514648 0.988563
O139  O     O_2   0.966402 0.148016 0.524046 -0.541691
O140  O     O_R   0.990025 0.039448 0.503741 -0.759566
H52   H     H_    0.936333 0.030966 0.505188 0.359758
C221  C     C_2   0.132408 0.999103 0.523984 1.016460
O141  O     O_2   0.084825 0.983868 0.539461 -0.524854
O142  O     O_R   0.177612 0.943331 0.514570 -0.793151
H53   H     H_    0.164530 0.892754 0.521554 0.371054
C222  C     C_2   0.173441 0.739053 0.403066 1.037428
O143  O     O_2   0.187383 0.778355 0.384429 -0.559787
O144  O     O_R   0.110704 0.696576 0.402662 -0.769275
H54   H     H_    0.083565 0.700805 0.385645 0.365134
C223  C     C_2   0.835390 0.968407 0.556573 0.975674
O145  O     O_2   0.781778 0.999891 0.564804 -0.532667
O146  O     O_R   0.902558 0.002219 0.558981 -0.744637
H55   H     H_    0.899810 0.051820 0.568090 0.401873
C224  C     C_2   0.830352 0.256184 0.403586 1.035454
O147  O     O_2   0.816719 0.216271 0.385074 -0.540717
O148  O     O_R   0.894067 0.297159 0.403441 -0.778184
H56   H     H_    0.922128 0.291485 0.386662 0.367558
S17   S     S_3+6 0.168154 0.351949 0.223115 0.164307
O149  O     O_2   0.223216 0.401015 0.210579 -0.127971
O150  O     O_2   0.205167 0.306013 0.243456 -0.229970
O151  O     O_3   0.133770 0.294803 0.200612 -0.390673
H57   H     H_    0.100426 0.262414 0.210344 0.371404
S18   S     S_3+6 0.374710 0.187968 0.221633 0.165387
O152  O     O_2   0.306713 0.158913 0.209693 -0.126757
O153  O     O_2   0.355034 0.245161 0.241614 -0.223686
O154  O     O_3   0.424477 0.228847 0.198527 -0.393939
H58   H     H_    0.469378 0.243530 0.207456 0.369560
S19   S     S_3+6 0.826789 0.638871 0.223507 0.163619
O155  O     O_2   0.772810 0.590216 0.210183 -0.130708
O156  O     O_2   0.788387 0.682832 0.244073 -0.228752
O157  O     O_3   0.861647 0.698063 0.201770 -0.389707
H59   H     H_    0.894611 0.729687 0.211973 0.371262
S20   S     S_3+6 0.627923 0.818589 0.222065 0.163241
O158  O     O_2   0.695452 0.847952 0.209861 -0.132641
O159  O     O_2   0.648469 0.762321 0.242230 -0.223193
O160  O     O_3   0.578252 0.776370 0.199235 -0.392181
H60   H     H_    0.533727 0.761315 0.208342 0.370297
S21   S     S_3+6 0.698819 0.891403 0.722707 0.160598
O161  O     O_2   0.740945 0.950936 0.709250 -0.143047
O162  O     O_2   0.745958 0.857590 0.743240 -0.231790
O163  O     O_3   0.677056 0.825577 0.701065 -0.380327
H61   H     H_    0.651596 0.787466 0.711334 0.377464
S22   S     S_3+6 0.847047 0.661672 0.721998 0.152363
O164  O     O_2   0.786327 0.621920 0.708811 -0.152621
O165  O     O_2   0.815771 0.711749 0.742402 -0.236706
O166  O     O_3   0.890654 0.713794 0.700077 -0.384275
H62   H     H_    0.930916 0.736262 0.709848 0.372179
S23   S     S_3+6 0.323867 0.128886 0.724575 0.164055
O167  O     O_2   0.273984 0.075273 0.711520 -0.130700
O168  O     O_2   0.282535 0.168942 0.745383 -0.229629
O169  O     O_3   0.352266 0.191183 0.702694 -0.388281
H63   H     H_    0.383408 0.225258 0.712666 0.369661
S24   S     S_3+6 0.126408 0.312855 0.721964 0.162606
O170  O     O_2   0.193786 0.343639 0.710092 -0.135172
O171  O     O_2   0.147250 0.256440 0.742036 -0.222384
O172  O     O_3   0.077995 0.270436 0.698826 -0.392362
H64   H     H_    0.032977 0.255440 0.707622 0.369718
S25   S     S_3+6 0.046164 0.642969 0.157005 0.128694
O173  O     O_2   0.988806 0.685163 0.171214 -0.210440
O174  O     O_2   0.101801 0.617676 0.176223 -0.272296
O175  O     O_3   0.085769 0.698883 0.135224 -0.437338
H65   H     H_    0.102759 0.741790 0.145443 0.405387
S26   S     S_3+6 0.431858 0.864824 0.155175 0.133459
O176  O     O_2   0.478771 0.797760 0.158061 -0.176150
O177  O     O_2   0.404662 0.887671 0.181483 -0.306497
O178  O     O_3   0.360555 0.843213 0.136629 -0.443748
H66   H     H_    0.339621 0.798660 0.144816 0.410967
S27   S     S_3+6 0.951664 0.353470 0.155730 0.127668
O179  O     O_2   0.008277 0.309939 0.169793 -0.210960
O180  O     O_2   0.895574 0.377878 0.174943 -0.274115
O181  O     O_3   0.912387 0.299270 0.133341 -0.436375
H67   H     H_    0.894328 0.256084 0.143169 0.405556
S28   S     S_3+6 0.568646 0.138841 0.154323 0.133098
O182  O     O_2   0.521758 0.206062 0.156833 -0.175004
O183  O     O_2   0.596023 0.117397 0.180736 -0.308966
O184  O     O_3   0.639809 0.159432 0.135543 -0.443784
H68   H     H_    0.660760 0.204470 0.143395 0.411106
S29   S     S_3+6 0.531516 0.154279 0.654749 0.132127
O185  O     O_2   0.469367 0.191402 0.668026 -0.200312
O186  O     O_2   0.589095 0.138859 0.674501 -0.275068
O187  O     O_3   0.565098 0.211246 0.632006 -0.437058
H69   H     H_    0.577500 0.257117 0.641480 0.404062
S30   S     S_3+6 0.934762 0.354144 0.653056 0.135791
O188  O     O_2   0.984698 0.289300 0.655605 -0.172393
O189  O     O_2   0.904761 0.373042 0.679352 -0.305571
O190  O     O_3   0.865852 0.330738 0.633614 -0.441096
H70   H     H_    0.846948 0.284089 0.640960 0.413685
S31   S     S_3+6 0.480485 0.853117 0.657539 0.130271
O191  O     O_2   0.544993 0.819726 0.670575 -0.204343
O192  O     O_2   0.424692 0.870125 0.677817 -0.276836
O193  O     O_3   0.445967 0.791820 0.636424 -0.438132
H71   H     H_    0.436389 0.746987 0.646884 0.404078
S32   S     S_3+6 0.057293 0.634657 0.656849 0.133500
O194  O     O_2   0.004798 0.696178 0.661792 -0.179913
O195  O     O_2   0.088207 0.609492 0.682333 -0.302036
O196  O     O_3   0.125176 0.666480 0.638456 -0.439234
H72   H     H_    0.142383 0.711325 0.647543 0.409906
S33   S     S_3+6 0.952966 0.647538 0.101162 0.151380
O197  O     O_2   0.009132 0.690796 0.086836 -0.121893
O198  O     O_2   0.893384 0.626605 0.082874 -0.296251
O199  O     O_3   0.917587 0.700750 0.124704 -0.430908
H73   H     H_    0.900931 0.746025 0.115713 0.394505
S34   S     S_3+6 0.514995 0.846350 0.098357 0.124894
O200  O     O_2   0.448780 0.799413 0.096943 -0.147177
O201  O     O_2   0.546694 0.853751 0.071650 -0.347906
O202  O     O_3   0.575840 0.803674 0.117305 -0.435612
H74   H     H_    0.581054 0.753542 0.109802 0.406684
S35   S     S_3+6 0.048066 0.351757 0.100591 0.150632
O203  O     O_2   0.992429 0.307992 0.086197 -0.122025
O204  O     O_2   0.107465 0.373547 0.082336 -0.296089
O205  O     O_3   0.083916 0.298742 0.124069 -0.430946
H75   H     H_    0.101084 0.253718 0.115016 0.393963
S36   S     S_3+6 0.484008 0.154762 0.097753 0.123997
O206  O     O_2   0.549585 0.202625 0.096307 -0.146614
O207  O     O_2   0.452711 0.146341 0.071030 -0.350571
O208  O     O_3   0.422425 0.196990 0.116547 -0.436467
H76   H     H_    0.416567 0.246857 0.108906 0.406446
S37   S     S_3+6 0.435104 0.141010 0.599756 0.140109
O209  O     O_2   0.484466 0.192564 0.585516 -0.157652
O210  O     O_2   0.380178 0.110933 0.581142 -0.307188
O211  O     O_3   0.391307 0.188324 0.623004 -0.429693
H77   H     H_    0.368321 0.230255 0.613828 0.394706
S38   S     S_3+6 0.023639 0.344914 0.597187 0.115814
O212  O     O_2   0.960578 0.293774 0.595076 -0.155095
O213  O     O_2   0.056166 0.355562 0.570750 -0.345844
O214  O     O_3   0.086023 0.305315 0.616306 -0.437526
H78   H     H_    0.094841 0.256080 0.608507 0.404286
S39   S     S_3+6 0.565728 0.860025 0.600016 0.147587
O215  O     O_2   0.513781 0.809300 0.586625 -0.164473
O216  O     O_2   0.619578 0.888061 0.580598 -0.294386
O217  O     O_3   0.610665 0.812330 0.622853 -0.427273
H79   H     H_    0.632544 0.770098 0.613478 0.397125
S40   S     S_3+6 0.978577 0.651960 0.599083 0.098498
O218  O     O_2   0.044125 0.699574 0.596715 -0.166595
O219  O     O_2   0.944436 0.643827 0.572808 -0.373569
O220  O     O_3   0.919038 0.694309 0.618673 -0.432696
H80   H     H_    0.907486 0.741471 0.609854 0.404045
C225  C     C_2   0.634246 0.028334 0.845564 1.049832
O221  O     O_2   0.634506 0.084477 0.832363 -0.604190
O222  O     O_R   0.694707 0.982387 0.846223 -0.659151
H81   H     H_    0.735623 0.001966 0.835209 0.370036
C226  C     C_2   0.864353 0.465607 0.847356 1.044583
O223  O     O_2   0.860344 0.453395 0.824050 -0.617684
O224  O     O_R   0.805414 0.448400 0.863078 -0.682420
H82   H     H_    0.763108 0.428504 0.852850 0.375762
C227  C     C_2   0.379475 0.934729 0.847219 1.019965
O225  O     O_2   0.379472 0.923117 0.823828 -0.602452
O226  O     O_R   0.324189 0.904545 0.862207 -0.694041
H83   H     H_    0.287324 0.877000 0.851435 0.381331
C228  C     C_2   0.131478 0.529864 0.845898 1.041965
O227  O     O_2   0.135209 0.536651 0.822319 -0.615272
O228  O     O_R   0.189934 0.552137 0.861047 -0.685817
H84   H     H_    0.231765 0.570694 0.850259 0.373963
C229  C     C_2   0.126894 0.531169 0.343997 1.049625
O229  O     O_2   0.126205 0.585636 0.329953 -0.593802
O230  O     O_R   0.187561 0.485560 0.344904 -0.668779
H85   H     H_    0.227793 0.503932 0.333317 0.372475
C230  C     C_2   0.365985 0.973561 0.346461 1.043701
O231  O     O_2   0.359757 0.971266 0.322848 -0.612910
O232  O     O_R   0.309429 0.947860 0.361891 -0.689100
H86   H     H_    0.266656 0.930746 0.351300 0.377502
C231  C     C_2   0.870317 0.455282 0.345244 1.045700
O233  O     O_2   0.872898 0.398646 0.332315 -0.587737
O234  O     O_R   0.807888 0.498334 0.345419 -0.682873
H87   H     H_    0.768203 0.476300 0.334400 0.373986
C232  C     C_2   0.633752 0.033690 0.346538 1.040899
O235  O     O_2   0.686794 0.046199 0.359830 -0.495995
O236  O     O_R   0.636594 0.049744 0.319991 -0.810899
H88   H     H_    0.685342 0.068591 0.314247 0.371682
S41   S     S_3+6 0.652600 0.005211 0.905040 0.081830
O237  O     O_2   0.705640 0.057148 0.892828 -0.201162
O238  O     O_2   0.643937 0.027206 0.933000 -0.326243
O239  O     O_3   0.686981 0.919345 0.903808 -0.463413
H89   H     H_    0.651455 0.888103 0.912985 0.344874
S42   S     S_3+6 0.860936 0.562445 0.899302 0.126816
O240  O     O_2   0.812544 0.511372 0.914235 -0.150868
O241  O     O_2   0.887702 0.621973 0.917224 -0.288525
O242  O     O_3   0.812975 0.602543 0.875437 -0.466944
H90   H     H_    0.846855 0.636987 0.866892 0.378870
S43   S     S_3+6 0.354580 0.017907 0.901710 0.087064
O243  O     O_2   0.326574 0.954175 0.917359 -0.224639
O244  O     O_2   0.365628 0.082700 0.919521 -0.316130
O245  O     O_3   0.292900 0.042084 0.879367 -0.445283
H91   H     H_    0.314173 0.084769 0.870126 0.375441
S44   S     S_3+6 0.139117 0.438892 0.898876 0.127051
O246  O     O_2   0.186693 0.491861 0.913321 -0.150297
O247  O     O_2   0.114238 0.379600 0.917237 -0.287417
O248  O     O_3   0.187399 0.398733 0.875079 -0.470532
H92   H     H_    0.154194 0.362858 0.866926 0.376696
S45   S     S_3+6 0.148976 0.517814 0.403105 0.100911
O249  O     O_2   0.196620 0.573294 0.389952 -0.205114
O250  O     O_2   0.141877 0.539758 0.431104 -0.292863
O251  O     O_3   0.189509 0.434883 0.401338 -0.429989
H93   H     H_    0.150886 0.398485 0.404620 0.339930
S46   S     S_3+6 0.360626 0.062900 0.399509 0.127059
O252  O     O_2   0.313085 0.009797 0.413907 -0.159305
O253  O     O_2   0.386134 0.121644 0.417985 -0.276608
O254  O     O_3   0.312055 0.103797 0.375974 -0.469695
H94   H     H_    0.345319 0.139544 0.367782 0.378433
S47   S     S_3+6 0.848381 0.481382 0.403736 0.126554
O255  O     O_2   0.805391 0.417197 0.393838 -0.227154
O256  O     O_2   0.855085 0.474173 0.432701 -0.267250
O257  O     O_3   0.802022 0.558775 0.396799 -0.371508
H95   H     H_    0.838700 0.596360 0.392445 0.358722
S48   S     S_3+6 0.638163 0.937649 0.398791 0.135519
O258  O     O_2   0.687614 0.989000 0.413129 -0.167981
O259  O     O_2   0.611846 0.879117 0.417168 -0.249614
O260  O     O_3   0.684638 0.896053 0.374830 -0.462144
H96   H     H_    0.649957 0.861821 0.366607 0.380475

loop_
_geom_bond_atom_site_label_1
_geom_bond_atom_site_label_2
_ccdc_geom_bond_type
S27   O181  S    
O226  H83   S    
O2    Zn10  S    
C130  C146  A    
C33   C45   A    
C214  O127  D    
C36   C42   A    
C34   C42   A    
C13   C43   A    
O144  H54   S    
C35   C47   A    
S46   O254  S    
C179  C195  A    
O74   H26   S    
C151  C223  S    
C76   O20   A    
C211  O121  D    
C177  C193  A    
C66   S38   S    
C138  C210  S    
C197  S13   S    
C226  O224  S    
C61   S33   S    
C138  C143  A    
S40   O220  S    
O193  H71   S    
C62   S34   S    
C139  C142  A    
C95   C99   A    
C62   C70   A    
C222  O143  D    
S40   O218  D    
C86   C230  S    
S8    O90   D    
S15   O111  D    
C199  S15   S    
C212  O124  S    
C87   C231  S    
C125  H5    S    
C130  C167  A    
C66   C72   A    
O45   Zn7   S    
C131  C166  A    
C109  C169  S    
C220  O140  S    
O46   Zn8   S    
C70   C74   S    
C52   O68   S    
O217  H79   S    
C208  N4    A    
C5    C13   A    
C85   C103  A    
S36   O208  S    
O120  H42   S    
S45   O251  S    
S11   O100  D    
C211  O122  S    
C78   N6    S    
C225  O221  D    
C155  C158  A    
O26   Zn10  S    
C119  C179  S    
O1    Zn11  S    
O95   H33   S    
C136  C152  A    
C117  C177  S    
S42   O240  D    
C23   C27   A    
C56   S28   S    
C156  C173  A    
S2    O72   D    
O146  H55   S    
C58   S30   S    
C205  N3    A    
C147  C150  A    
C140  C141  A    
C4    O12   A    
C117  O33   A    
C9    C207  A    
O12   Zn14  S    
S25   O174  D    
C161  C168  A    
C196  C197  A    
S37   O211  S    
C191  S7    S    
C27   C35   A    
O202  H74   S    
O128  H46   S    
S38   O212  D    
C229  O230  S    
C202  N2    A    
C115  C183  S    
S7    O87   D    
C22   H22   S    
S28   O184  S    
C230  O231  D    
C68   C72   A    
C46   N6    A    
O175  H65   S    
O205  H75   S    
O30   Zn14  S    
S5    O81   D    
C112  O42   A    
C144  C216  S    
S5    O83   S    
C128  C144  A    
C74   O14   A    
S2    O73   D    
S44   O248  S    
C87   C103  A    
C31   S23   S    
C102  N2    S    
C7    C19   A    
C91   S43   S    
S41   O239  S    
C208  O60   S    
O104  H36   S    
O228  H84   S    
C32   C40   A    
C83   C91   A    
S24   O170  D    
C185  C192  A    
O37   Zn3   S    
O110  H38   S    
S17   O151  S    
O6    Zn12  S    
C4    O10   A    
S48   O258  D    
O38   Zn4   S    
S47   O255  D    
O18   Zn6   S    
C135  H15   S    
C232  O235  D    
O51   Zn5   S    
O4    Zn14  S    
S32   O194  D    
C119  O49   A    
C161  C184  A    
C9    C15   A    
C111  O27   A    
C162  C183  A    
S33   O198  D    
C1    O5    A    
C209  O117  D    
C113  O47   A    
C9    C21   A    
S18   O152  D    
S25   O173  D    
C115  O45   A    
C226  O223  D    
C11   C23   A    
O83   H29   S    
S47   O257  S    
O35   Zn13  S    
O3    Zn13  S    
S6    O84   D    
C45   N5    A    
S37   O210  D    
S3    O75   D    
C127  H7    S    
C7    C13   A    
C167  C178  A    
O187  H69   S    
C195  C198  A    
C201  O53   S    
C89   C97   A    
S30   O188  D    
C203  O55   S    
C210  O119  D    
S41   O237  D    
C23   H23   S    
S12   O102  D    
S13   O106  D    
C118  C180  S    
C39   C51   A    
C213  O125  D    
C159  C170  A    
O8    Zn10  S    
O3    Zn7   S    
O124  H44   S    
S4    O80   S    
C49   N7    A    
C86   C104  A    
S10   O96   D    
C207  N3    A    
C218  O135  D    
C81   C101  A    
C215  O129  D    
C30   C38   A    
C142  C214  S    
C67   S39   S    
C3    O11   A    
C109  O43   A    
C115  O31   A    
C26   S18   S    
C123  C139  A    
C106  O22   A    
C56   C78   A    
C134  C163  A    
C206  N4    A    
C121  C137  A    
S1    O70   D    
C10   C208  A    
C2    O8    A    
C164  C181  A    
O230  H85   S    
C59   C67   A    
C53   C61   A    
O1    Zn1   S    
O130  H47   S    
C125  C141  A    
O107  H37   S    
C134  H14   S    
S30   O190  S    
C87   C95   A    
C217  O134  S    
C204  N2    A    
C122  H2    S    
C131  C147  A    
C34   C46   A    
C45   O61   S    
S24   O172  S    
C68   S40   S    
C185  S1    S    
C105  C173  S    
S31   O193  S    
C219  O137  D    
C195  S11   S    
S48   O260  S    
C93   S45   S    
C3    C100  S    
C127  C154  A    
O239  H89   S    
C88   C104  A    
S36   O207  D    
C120  O36   A    
S35   O205  S    
S17   O149  D    
S43   O244  D    
C86   C94   A    
C64   S36   S    
S22   O165  D    
O4    Zn16  S    
S32   O196  S    
C12   C16   A    
C132  C165  A    
C81   C225  S    
O22   Zn10  S    
C1    O7    A    
S9    O95   S    
C200  S16   S    
S46   O253  D    
C206  O58   S    
S23   O168  D    
C121  C160  A    
C149  C221  S    
C132  H12   S    
C63   S35   S    
C6    C14   A    
O15   Zn3   S    
C160  C169  A    
O224  H82   S    
C136  H16   S    
C94   C100  A    
O92   H32   S    
C57   C65   A    
C28   S20   S    
S29   O185  D    
C82   C102  A    
S21   O162  D    
C28   C36   A    
C214  O128  S    
C128  H8    S    
S12   O104  S    
C155  C174  A    
S7    O88   D    
C137  C144  A    
S28   O183  D    
O3    Zn5   S    
C55   S27   S    
C118  O34   A    
S44   O247  D    
C20   C32   A    
S11   O101  S    
S3    O76   D    
S27   O180  D    
C21   C25   A    
C60   C80   A    
C103  N3    S    
C83   C101  A    
C129  C168  A    
C129  C145  A    
O36   Zn16  S    
C3    O9    A    
C75   O19   A    
S16   O114  D    
O52   Zn8   S    
C180  C196  A    
C1    C98   S    
C5    C203  A    
C48   N6    A    
C228  O227  D    
C58   C80   A    
C12   C24   A    
C139  C211  S    
C20   H20   S    
S35   O203  D    
O29   Zn13  S    
S39   O217  S    
O47   Zn5   S    
C153  C160  A    
S26   O176  D    
C140  C212  S    
C154  C159  A    
O242  H90   S    
S47   O256  D    
C137  C209  S    
O1    Zn3   S    
O2    Zn4   S    
C96   C100  A    
C224  O148  S    
C204  O56   S    
C111  C171  S    
C90   S42   S    
C35   C41   A    
C145  C152  A    
O181  H67   S    
C52   N8    A    
C146  C151  A    
C40   C44   A    
C186  S2    S    
C231  O234  S    
C220  O139  D    
C4    C99   S    
O160  H60   S    
C192  S8    S    
C106  C176  S    
C84   C92   A    
C108  O24   A    
O4    Zn6   S    
S20   O160  S    
C217  O133  D    
C25   C33   A    
S45   O250  D    
C110  C172  S    
C121  H1    S    
C88   C96   A    
C231  O233  D    
C145  C217  S    
C17   C29   A    
S12   O103  D    
S19   O155  D    
C120  O50   A    
C19   C31   A    
O86   H30   S    
S19   O157  S    
O151  H57   S    
C10   C22   A    
C178  C194  A    
C229  O229  D    
S34   O201  D    
C40   C52   A    
C164  C165  A    
S4    O79   D    
C49   O65   S    
O178  H66   S    
O28   Zn12  S    
S15   O113  S    
C218  O136  S    
C5    C17   A    
O40   Zn2   S    
C168  C177  A    
C89   S41   S    
C202  O54   S    
S29   O187  S    
C84   C102  A    
O163  H61   S    
C207  O59   S    
C186  C191  A    
C221  O142  S    
C120  C178  S    
C187  C190  A    
C129  H9    S    
C126  H6    S    
C47   N5    A    
C85   C229  S    
C112  C170  S    
O7    Zn9   S    
C2    C97   S    
C116  C182  S    
C216  O132  S    
S2    O74   S    
C108  C174  S    
C133  H13   S    
C122  C159  A    
C69   C73   S    
C57   S29   S    
S5    O82   D    
C93   C99   A    
C27   S19   S    
S38   O214  S    
C125  C156  A    
C75   O17   A    
C81   C89   A    
C126  C155  A    
C25   S17   S    
C181  C197  A    
O142  H53   S    
O49   Zn7   S    
C117  O51   A    
C77   N5    S    
C111  O41   A    
C118  O52   A    
S16   O116  S    
C114  O30   A    
S20   O159  D    
C50   O66   S    
S24   O171  D    
O39   Zn1   S    
C136  C161  A    
S17   O150  D    
S11   O99   D    
O33   Zn15  S    
O260  H96   S    
O138  H51   S    
C24   C28   A    
C148  C220  S    
O172  H64   S    
C163  C166  A    
C122  C138  A    
S48   O259  D    
C59   C79   A    
O71   H25   S    
C54   C62   A    
S6    O86   S    
C48   O64   S    
C223  O145  D    
S38   O213  D    
C94   S46   S    
C126  C142  A    
S39   O215  D    
O211  H77   S    
S32   O195  D    
C210  O120  S    
C37   C43   A    
C53   C77   A    
O134  H49   S    
C6    C204  A    
S33   O197  D    
C92   S44   S    
C232  O236  S    
S18   O153  D    
C153  C176  A    
C82   C226  S    
O31   Zn15  S    
C124  C157  A    
C170  C186  A    
O21   Zn9   S    
C8    C20   A    
C91   C97   A    
S6    O85   D    
O4    Zn8   S    
C15   C41   A    
C128  C153  A    
C174  C190  A    
O101  H35   S    
C73   O13   A    
C205  O57   S    
C189  S5    S    
C54   S26   S    
C101  N1    S    
S30   O189  D    
S34   O200  D    
C133  C164  A    
C110  O26   A    
O122  H43   S    
S18   O154  S    
C14   C44   A    
S13   O105  D    
C187  S3    S    
C198  S14   S    
O169  H63   S    
S25   O175  S    
O1    Zn9   S    
C124  C140  A    
O11   Zn13  S    
O41   Zn3   S    
C113  O29   A    
C24   H24   S    
C225  O222  S    
S3    O77   S    
S10   O97   D    
S43   O243  D    
O43   Zn1   S    
S14   O108  D    
O214  H78   S    
C193  C200  A    
C124  H4    S    
C227  O226  S    
C82   C90   A    
C33   C41   A    
C169  C185  A    
C50   N8    A    
C2    O6    A    
O2    Zn2   S    
C88   C232  S    
C193  S9    S    
C107  C175  S    
C135  C151  A    
O196  H72   S    
C67   C71   A    
S1    O69   D    
S10   O98   S    
C119  O35   A    
O16   Zn4   S    
C85   C93   A    
C110  O44   A    
C60   C68   A    
O157  H59   S    
C22   C26   A    
O48   Zn6   S    
C29   C37   A    
O234  H87   S    
O50   Zn6   S    
O257  H95   S    
C51   N7    A    
C194  S10   S    
S9    O93   D    
C116  O32   A    
O9    Zn15  S    
S23   O167  D    
C12   C206  A    
C54   C78   A    
O80   H28   S    
S31   O192  D    
C57   C79   A    
O116  H40   S    
C182  C198  A    
C79   N7    S    
C152  C224  S    
S14   O110  S    
S8    O91   D    
C212  O123  D    
O44   Zn4   S    
C92   C98   A    
S27   O179  D    
S35   O204  D    
C38   C44   A    
C188  S4    S    
S22   O166  S    
C29   S21   S    
O154  H58   S    
C154  C175  A    
C131  H11   S    
C156  C157  A    
C172  C188  A    
C203  N1    A    
S33   O199  S    
S9    O94   D    
C157  C172  A    
C175  C191  A    
C55   C77   A    
C114  C184  S    
C158  C171  A    
C176  C192  A    
C209  O118  S    
C143  C215  S    
O184  H68   S    
C134  C150  A    
C37   C49   A    
C130  H10   S    
O166  H62   S    
C222  O144  S    
C219  O138  S    
C59   S31   S    
C19   H19   S    
O5    Zn11  S    
C223  O146  S    
C73   O15   A    
C201  N1    A    
C58   C66   A    
O251  H93   S    
C123  H3    S    
O236  H88   S    
C36   C48   A    
C18   C30   A    
C64   C70   A    
C228  O228  S    
C18   H18   S    
S21   O161  D    
C141  C213  S    
S13   O107  S    
S23   O169  S    
C190  S6    S    
C21   H21   S    
C213  O126  S    
C163  C182  A    
O20   Zn8   S    
O89   H31   S    
C17   H17   S    
C147  C219  S    
C108  O38   A    
O42   Zn2   S    
O3    Zn15  S    
C230  O232  S    
C26   C34   A    
C215  O130  S    
C39   C43   A    
C112  O28   A    
C6    C18   A    
C113  C181  S    
S41   O238  D    
O2    Zn12  S    
O13   Zn1   S    
C132  C148  A    
O148  H56   S    
C63   C69   A    
C133  C149  A    
C148  C149  A    
S16   O115  D    
O126  H45   S    
C10   C16   A    
C127  C143  A    
C150  C222  S    
C184  C200  A    
O190  H70   S    
C65   C71   A    
C76   O18   A    
C183  C199  A    
O140  H52   S    
C55   C63   A    
C188  C189  A    
S39   O216  D    
S1    O71   S    
S26   O177  D    
C46   O62   S    
C227  O225  D    
O17   Zn5   S    
C96   S48   S    
O220  H80   S    
C146  C218  S    
O232  H86   S    
C114  O48   A    
C104  N4    S    
O118  H41   S    
O23   Zn11  S    
C56   C64   A    
C224  O147  D    
C72   C76   S    
C116  O46   A    
O24   Zn12  S    
O32   Zn16  S    
O199  H73   S    
C83   C227  S    
C109  O25   A    
C32   S24   S    
O77   H27   S    
C11   C15   A    
C105  O39   A    
C135  C162  A    
C65   S37   S    
S26   O178  S    
C106  O40   A    
C107  O37   A    
C16   C42   A    
S31   O191  D    
S36   O206  D    
S45   O249  D    
S43   O245  S    
C61   C69   A    
S22   O164  D    
C8    C14   A    
S34   O202  S    
S14   O109  D    
O25   Zn11  S    
C47   O63   S    
O10   Zn16  S    
O27   Zn9   S    
O208  H76   S    
S42   O241  D    
S19   O156  D    
S46   O252  D    
C38   C50   A    
C123  C158  A    
O34   Zn14  S    
C11   C205  A    
O254  H94   S    
C95   S47   S    
C166  C179  A    
C171  C187  A    
O222  H81   S    
C80   N8    S    
C8    C202  A    
O132  H48   S    
S20   O158  D    
O136  H50   S    
O98   H34   S    
C7    C201  A    
C71   C75   S    
S15   O112  D    
C196  S12   S    
S37   O209  D    
C53   S25   S    
C30   S22   S    
C173  C189  A    
S29   O186  D    
C31   C39   A    
S8    O92   S    
C221  O141  D    
S21   O163  S    
S42   O242  S    
O14   Zn2   S    
C51   O67   S    
C162  C167  A    
C194  C199  A    
C60   S32   S    
S7    O89   S    
S28   O182  D    
C105  O21   A    
C216  O131  D    
C84   C228  S    
C165  C180  A    
S4    O78   D    
O113  H39   S    
C107  O23   A    
S40   O219  D    
O245  H91   S    
C90   C98   A    
C74   O16   A    
O248  H92   S    
O19   Zn7   S    
S44   O246  D    
