data_mof_unit_6669.cif
_audit_creation_date              2012-12-11T15:57:41-0500
_audit_creation_method            fapswitch 2.2
_symmetry_space_group_name_H-M    P1
_symmetry_Int_Tables_number       1
_space_group_crystal_system       triclinic
_cell_length_a                    10.77327
_cell_length_b                    10.756108
_cell_length_c                    17.074206
_cell_angle_alpha                 100.020771
_cell_angle_beta                  99.80538
_cell_angle_gamma                 61.217162
_cell_volume                      1699.03100066

loop_
_atom_site_label
_atom_site_type_symbol
_atom_type_description
_atom_site_fract_x
_atom_site_fract_y
_atom_site_fract_z
_atom_type_partial_charge
C1    C     C_R   0.354349 0.776881 0.403052 0.603285
C2    C     C_2   0.887579 0.307808 0.173120 0.137992
C3    C     C_2   0.917730 0.192510 0.209361 0.192261
C4    C     C_2   0.860831 0.213450 0.285781 0.245570
C5    C     C_2   0.328009 0.863973 0.340398 0.221008
C6    C     C_2   0.345294 0.823326 0.157918 0.198797
C7    C     C_2   0.415249 0.872846 0.218798 0.192188
C8    C     C_2   0.438010 0.831166 0.299123 -0.177989
C9    C     C_2   0.374305 0.360083 0.673432 0.170179
C10   C     C_2   0.348622 0.356072 0.842524 -0.120621
C11   C     C_2   0.464312 0.269681 0.804534 -0.138388
C12   C     C_R   0.369624 0.346024 0.357283 0.549748
C13   C     C_2   0.485361 0.294146 0.727672 0.211974
C14   C     C_1   0.822933 0.340659 0.707891 0.000433
C15   C     C_1   0.851124 0.311529 0.775303 -0.020611
C16   C     C_1   0.358125 0.764822 0.713372 -0.039139
C17   C     C_1   0.325092 0.811798 0.780179 -0.036525
C18   C     C_R   0.945718 0.288241 0.098659 0.601771
C19   C     C_R   0.317637 0.298281 0.120336 0.533227
C20   C     C_R   0.292677 0.894484 0.084950 0.610461
C21   C     C_R   0.889664 0.295383 0.857625 0.549698
C22   C     C_R   0.310959 0.296945 0.898555 0.545427
C23   C     C_R   0.779802 0.374029 0.406780 0.566341
C24   C     C_R   0.280017 0.881346 0.857057 0.536128
C25   C     C_R   0.381065 0.715080 0.631249 0.532582
C26   C     C_R   0.405238 0.375853 0.597797 0.588206
C27   C     C_R   0.774502 0.380576 0.629318 0.536824
C28   C     C_1   0.342407 0.335127 0.274169 -0.021719
C29   C     C_1   0.330081 0.325258 0.203471 -0.015536
C30   C     C_2   0.872851 0.311338 0.343374 -0.022348
Cr1   Cr    Cr6+3 0.608020 0.610770 0.522990 1.029918
Cr2   Cr    Cr6+3 0.289390 0.599570 0.488050 1.040906
Cr3   Cr    Cr6+3 0.602610 0.289690 0.489020 1.093991
Cr4   Cr    Cr6+3 0.053780 0.052210 0.965970 1.056636
Cr5   Cr    Cr6+3 0.060060 0.372530 0.992430 1.020210
Cr6   Cr    Cr6+3 0.372600 0.061970 0.991430 1.056680
H1    H     H_    0.274758 0.462453 0.826284 0.137494
H2    H     H_    0.937063 0.361165 0.336774 0.073672
H3    H     H_    0.546472 0.757317 0.319386 0.123629
H4    H     H_    0.542238 0.167925 0.825599 0.149951
O1    O     O_R   0.749250 0.499990 0.439200 -0.527825
O2    O     O_R   0.299400 0.468710 0.556310 -0.534434
O3    O     O_R   0.489240 0.256450 0.560730 -0.458212
O4    O     O_R   0.723350 0.306730 0.584410 -0.473387
O5    O     O_3   0.500010 0.500010 0.500020 -0.314096
O6    O     O_R   0.170650 0.915100 0.051290 -0.475071
O7    O     O_R   0.941960 0.184500 0.049060 -0.447525
O8    O     O_R   0.922640 0.402670 0.071640 -0.524448
O9    O     O_R   0.196880 0.368740 0.083740 -0.531005
O10   O     O_R   0.411120 0.181190 0.091480 -0.471714
O11   O     O_R   0.364220 0.944920 0.062310 -0.463597
O12   O     O_R   0.477870 0.725740 0.440280 -0.526048
O13   O     O_R   0.158740 0.906940 0.874970 -0.514002
O14   O     O_R   0.930920 0.176940 0.885610 -0.500171
O15   O     O_R   0.910730 0.394510 0.895320 -0.504190
O16   O     O_R   0.185840 0.361180 0.920280 -0.497871
O17   O     O_R   0.399210 0.173040 0.915160 -0.516373
O18   O     O_R   0.353170 0.937370 0.898860 -0.497948
O19   O     O_3   0.162150 0.162240 0.983280 -0.281533
O20   O     O_R   0.260770 0.742210 0.412610 -0.464293
O21   O     O_R   0.297990 0.466320 0.394220 -0.500861
O22   O     O_R   0.487720 0.253870 0.385870 -0.484553
O23   O     O_R   0.721940 0.304340 0.422320 -0.429744
O24   O     O_R   0.750770 0.502570 0.614050 -0.521140
O25   O     O_R   0.479280 0.728140 0.602370 -0.480967
O26   O     O_R   0.262290 0.744790 0.587460 -0.504135
O27   O     O_3   0.994917 0.056061 0.173021 -0.682729
H5    H     H_    0.000012 0.986300 0.206058 0.367975
O28   O     O_3   0.622396 0.231655 0.706061 -0.700573
H6    H     H_    0.689641 0.174856 0.748952 0.320378
N1    N     N_2   0.230663 0.401017 0.684815 -0.564708
H7    H     H_    0.156204 0.495027 0.662267 0.270312
C31   C     C_3   0.191078 0.287957 0.661552 -0.279413
H8    H     H_    0.081727 0.325898 0.676931 0.148915
H9    H     H_    0.264304 0.193552 0.693946 0.167862
H10   H     H_    0.193653 0.256554 0.596055 0.164500
O29   O     O_3   0.783305 0.145404 0.294047 -0.660031
H11   H     H_    0.771007 0.093494 0.241792 0.330153
N2    N     N_2   0.791471 0.448528 0.203910 -0.570038
H12   H     H_    0.813773 0.528859 0.196966 0.276400
C32   C     C_3   0.642571 0.484671 0.186626 -0.297974
H13   H     H_    0.588968 0.535932 0.241863 0.147559
H14   H     H_    0.626723 0.388930 0.165553 0.155964
H15   H     H_    0.593201 0.558722 0.139610 0.160293
O30   O     O_3   0.460023 0.968489 0.206935 -0.680041
H16   H     H_    0.506466 0.992873 0.258281 0.337949
N3    N     N_2   0.301794 0.720098 0.167477 -0.534649
H17   H     H_    0.328392 0.677492 0.221040 0.248840
C33   C     C_3   0.296031 0.621885 0.098640 -0.275798
H18   H     H_    0.372090 0.511222 0.111136 0.111969
H19   H     H_    0.325995 0.639247 0.043960 0.133808
H20   H     H_    0.186882 0.632955 0.086634 0.189822
O31   O     O_3   0.190135 0.964631 0.320306 -0.692683
H21   H     H_    0.193397 0.034358 0.290708 0.336770

loop_
_geom_bond_atom_site_label_1
_geom_bond_atom_site_label_2
_ccdc_geom_bond_type
N3    H17   S    
O31   H21   S    
C9    C26   S    
C2    C18   S    
Cr3   O5    S    
C31   H8    S    
Cr1   O12   S    
Cr6   O19   S    
C18   O7    A    
C22   O17   A    
C32   H13   S    
C21   O15   A    
C7    C8    S    
O29   H11   S    
C10   C22   S    
C12   C28   S    
C10   H1    S    
C1    C5    S    
C28   C29   T    
Cr2   O21   S    
C20   O11   A    
Cr6   O18   S    
C21   O14   A    
C30   H2    S    
Cr5   O19   S    
Cr2   O5    S    
C9    C13   D    
C2    N2    S    
C27   O4    A    
C16   C17   T    
Cr5   O9    S    
Cr4   O6    S    
C8    H3    S    
C14   C27   S    
C33   H19   S    
C23   O23   A    
C31   H9    S    
O28   H6    S    
Cr5   O8    S    
C32   H14   S    
C26   O3    A    
C17   C24   S    
Cr5   O15   S    
O27   H5    S    
Cr3   O3    S    
C23   C30   S    
C25   O25   A    
Cr6   O17   S    
C10   C11   D    
C1    O20   A    
N2    C32   S    
Cr3   O22   S    
C22   O16   A    
C24   O13   A    
O30   H16   S    
C6    N3    S    
C12   O22   A    
C19   O9    A    
Cr3   O23   S    
C33   H20   S    
Cr6   O11   S    
Cr4   O14   S    
N3    C33   S    
Cr4   O19   S    
C31   H10   S    
Cr2   O20   S    
C3    C4    S    
C19   C29   S    
C32   H15   S    
Cr6   O10   S    
C26   O2    A    
Cr2   O26   S    
C16   C25   S    
Cr1   O25   S    
Cr1   O1    S    
Cr5   O16   S    
Cr3   O4    S    
Cr1   O24   S    
C3    O27   S    
C25   O26   A    
C9    N1    S    
C18   O8    A    
C5    C8    D    
C5    O31   S    
C6    C7    D    
C6    C20   S    
C23   O1    A    
C2    C3    D    
C4    O29   S    
C12   O21   A    
C11   C13   S    
C19   O10   A    
C7    O30   S    
C13   O28   S    
C11   H4    S    
C1    O12   A    
C4    C30   D    
C27   O24   A    
N2    H12   S    
C15   C21   S    
N1    H7    S    
Cr4   O13   S    
C24   O18   A    
Cr1   O5    S    
N1    C31   S    
Cr2   O2    S    
C14   C15   T    
Cr4   O7    S    
C33   H18   S    
C20   O6    A    
