data_mof_unit_56321.cif
_audit_creation_date              2012-12-10T19:46:54-0500
_audit_creation_method            fapswitch 2.2
_symmetry_space_group_name_H-M    P1
_symmetry_Int_Tables_number       1
_space_group_crystal_system       triclinic
_cell_length_a                    10.920214
_cell_length_b                    10.928862
_cell_length_c                    13.106018
_cell_angle_alpha                 90.673829
_cell_angle_beta                  90.388022
_cell_angle_gamma                 90.204458
_cell_volume                      1563.98998351

loop_
_atom_site_label
_atom_site_type_symbol
_atom_type_description
_atom_site_fract_x
_atom_site_fract_y
_atom_site_fract_z
_atom_type_partial_charge
C1    C     C_R   0.495900 0.259454 0.499132 0.832207
C2    C     C_R   0.504098 0.740546 0.500868 0.832268
C3    C     C_R   0.872949 0.493569 0.502522 -0.093179
C4    C     C_R   0.127050 0.506414 0.497478 -0.093265
C5    C     C_R   0.940777 0.478204 0.593834 0.025528
C6    C     C_R   0.059223 0.521773 0.406166 0.025446
C7    C     C_R   0.309117 0.204264 0.185572 -0.142035
C8    C     C_R   0.690518 0.795490 0.814529 -0.142129
C9    C     C_R   0.334309 0.160500 0.283423 0.048588
C10   C     C_R   0.665452 0.839232 0.716648 0.048740
C11   C     C_R   0.452025 0.114810 0.306344 0.089986
C12   C     C_R   0.547854 0.885199 0.693692 0.089980
C13   C     C_R   0.542817 0.115704 0.230906 -0.134435
C14   C     C_R   0.457059 0.884622 0.769134 -0.134602
C15   C     C_R   0.517034 0.161312 0.133966 -0.123997
C16   C     C_R   0.482718 0.839049 0.866108 -0.123917
C17   C     C_R   0.400085 0.204817 0.111152 -0.105657
C18   C     C_R   0.599547 0.795255 0.888950 -0.105658
C19   C     C_R   0.485566 0.932443 0.409820 -0.217985
C20   C     C_R   0.514469 0.067561 0.590179 -0.218042
C21   C     C_R   0.504574 0.873005 0.502371 -0.095989
C22   C     C_R   0.495454 0.126997 0.497630 -0.095994
C23   C     C_R   0.259542 0.505597 0.499228 0.834623
C24   C     C_R   0.740457 0.494393 0.500772 0.834687
C25   C     C_R   0.520356 0.941134 0.593703 0.004246
C26   C     C_R   0.479660 0.058869 0.406301 0.004212
C27   C     C_1   0.500142 0.500090 0.173540 0.160808
C28   C     C_1   0.499861 0.499907 0.826460 0.160808
C29   C     C_1   0.500119 0.500072 0.050684 -0.096578
C30   C     C_1   0.499887 0.499923 0.949316 -0.096507
C31   C     C_R   0.223093 0.685457 0.192231 0.029812
C32   C     C_R   0.776933 0.314462 0.807754 0.029804
C33   C     C_R   0.178006 0.658264 0.289342 -0.133044
C34   C     C_R   0.821989 0.341692 0.710639 -0.133096
C35   C     C_R   0.114603 0.548036 0.305470 0.098891
C36   C     C_R   0.885403 0.451920 0.694530 0.098897
C37   C     C_R   0.095549 0.466522 0.223045 -0.201310
C38   C     C_R   0.904499 0.533394 0.776975 -0.201371
C39   C     C_R   0.140523 0.494010 0.126070 0.039458
C40   C     C_R   0.859559 0.505867 0.873954 0.039327
C41   C     C_R   0.204221 0.603386 0.110855 -0.172480
C42   C     C_R   0.795849 0.396493 0.889150 -0.172462
C43   C     C_R   0.932690 0.514025 0.410212 -0.213133
C44   C     C_R   0.067310 0.485956 0.589788 -0.213146
Cu1   Cu    Cu3+1 0.499990 0.499990 0.592680 0.986258
Cu2   Cu    Cu3+1 0.500010 0.500010 0.407320 0.986264
H1    H     H_    0.238551 0.624913 0.035657 0.134841
H2    H     H_    0.761545 0.374937 0.964350 0.134809
H3    H     H_    0.633313 0.080313 0.247143 0.137541
H4    H     H_    0.366660 0.920245 0.752878 0.137603
H5    H     H_    0.587381 0.161806 0.076174 0.148307
H6    H     H_    0.412371 0.838815 0.923903 0.148415
H7    H     H_    0.472840 0.880076 0.339790 0.175881
H8    H     H_    0.527180 0.119932 0.660209 0.175881
H9    H     H_    0.191111 0.722835 0.351947 0.122415
H10   H     H_    0.808857 0.277147 0.648019 0.122386
H11   H     H_    0.045104 0.382207 0.234469 0.136303
H12   H     H_    0.954951 0.617708 0.765566 0.136403
H13   H     H_    0.880288 0.527153 0.340578 0.166356
H14   H     H_    0.119714 0.472825 0.659420 0.166353
H15   H     H_    0.379805 0.238801 0.035684 0.151422
H16   H     H_    0.619735 0.761295 0.964444 0.151395
H17   H     H_    0.218429 0.236392 0.166667 0.136428
H18   H     H_    0.781114 0.763132 0.833458 0.136440
N1    N     N_1   0.500030 0.500030 0.268070 -0.137002
N2    N     N_1   0.499970 0.499970 0.731930 -0.137024
O1    O     O_R   0.499980 0.319630 0.578260 -0.586072
O2    O     O_R   0.500020 0.680370 0.421740 -0.586051
O3    O     O_R   0.500000 0.319650 0.421740 -0.577850
O4    O     O_R   0.500000 0.680350 0.578260 -0.577869
O5    O     O_R   0.319630 0.500000 0.578260 -0.583183
O6    O     O_R   0.680370 0.500000 0.421740 -0.583197
O7    O     O_R   0.319650 0.500020 0.421740 -0.576014
O8    O     O_R   0.680350 0.499980 0.578260 -0.576016
C45   C     C_1   0.287152 0.798430 0.174858 0.200578
N3    N     N_1   0.338598 0.889074 0.159898 -0.295688
C46   C     C_1   0.712874 0.201486 0.825112 0.200586
N4    N     N_1   0.661430 0.110838 0.840063 -0.295602
C47   C     C_1   0.120094 0.410840 0.041574 0.193539
N5    N     N_1   0.103906 0.343963 0.973659 -0.285924
C48   C     C_1   0.880029 0.588997 0.958471 0.193610
N6    N     N_1   0.896247 0.655842 0.026402 -0.285853
C49   C     C_1   0.238042 0.161493 0.358401 0.199911
N7    N     N_1   0.160947 0.162600 0.418548 -0.282412
C50   C     C_1   0.761730 0.837925 0.641680 0.200021
N8    N     N_1   0.838833 0.836565 0.581541 -0.282495

loop_
_geom_bond_atom_site_label_1
_geom_bond_atom_site_label_2
_ccdc_geom_bond_type
C33   H9    S    
C10   C50   S    
C34   H10   S    
Cu1   O5    S    
C48   N6    T    
C39   C41   A    
C46   N4    T    
C3    C43   A    
C35   C37   A    
C2    O2    A    
C27   C29   S    
C20   C25   A    
C5    C36   S    
C6    C35   S    
C7    C9    A    
C19   C26   A    
Cu2   O3    S    
C17   H15   S    
C32   C46   S    
C38   H12   S    
C7    C17   A    
Cu1   O1    S    
C31   C33   A    
C15   H5    S    
Cu2   O6    S    
C43   H13   S    
C19   H7    S    
C40   C42   A    
C1    C22   S    
C3    C24   S    
C23   O7    A    
C23   O5    A    
Cu2   N1    S    
C4    C6    A    
C4    C23   S    
C18   H16   S    
C4    C44   A    
C11   C26   S    
C50   N8    T    
C8    C18   A    
Cu1   O8    S    
C39   C47   S    
C28   N2    T    
C45   N3    T    
Cu2   O2    S    
C29   C30   T    
C27   N1    T    
C31   C45   S    
C49   N7    T    
C2    C21   S    
C41   H1    S    
C16   C18   A    
C42   H2    S    
C9    C11   A    
C7    H17   S    
C10   C12   A    
C8    H18   S    
C13   H3    S    
C20   H8    S    
C5    C44   A    
C12   C14   A    
C6    C43   A    
C13   C15   A    
C14   C16   A    
C24   O6    A    
C15   C17   A    
C21   C25   A    
C31   C41   A    
C19   C21   A    
Cu1   O4    S    
C40   C48   S    
C16   H6    S    
C20   C22   A    
C3    C5    A    
C9    C49   S    
C1    O1    A    
C12   C25   S    
C28   C30   S    
C37   C39   A    
C38   C40   A    
C11   C13   A    
C24   O8    A    
C14   H4    S    
C44   H14   S    
C36   C38   A    
C33   C35   A    
C34   C36   A    
C1    O3    A    
C47   N5    T    
Cu1   Cu2   S    
C8    C10   A    
C22   C26   A    
Cu1   N2    S    
C32   C42   A    
C2    O4    A    
Cu2   O7    S    
C37   H11   S    
C32   C34   A    
