data_mof_unit_52839.cif
_audit_creation_date              2012-12-11T16:19:05-0500
_audit_creation_method            fapswitch 2.2
_symmetry_space_group_name_H-M    P1
_symmetry_Int_Tables_number       1
_space_group_crystal_system       orthorhombic
_cell_length_a                    6.896851
_cell_length_b                    31.467313
_cell_length_c                    35.200505
_cell_angle_alpha                 90.0
_cell_angle_beta                  90.0
_cell_angle_gamma                 90.0
_cell_volume                      7639.40259124

loop_
_atom_site_label
_atom_site_type_symbol
_atom_type_description
_atom_site_fract_x
_atom_site_fract_y
_atom_site_fract_z
_atom_type_partial_charge
O1    O     O_R   0.417270 0.211480 0.210950 -0.522354
O2    O     O_R   0.582730 0.788520 0.789050 -0.547093
O3    O     O_R   0.582730 0.788520 0.710950 -0.522355
O4    O     O_R   0.417270 0.211480 0.289050 -0.547093
O5    O     O_R   0.917270 0.288520 0.289050 -0.522354
O6    O     O_R   0.082730 0.711480 0.710950 -0.547093
O7    O     O_R   0.082730 0.711480 0.789050 -0.522354
O8    O     O_R   0.917270 0.288520 0.210950 -0.547093
O9    O     O_R   0.746940 0.206370 0.288750 -0.522925
O10   O     O_R   0.253060 0.793630 0.711250 -0.544649
O11   O     O_R   0.253060 0.793630 0.788750 -0.522925
O12   O     O_R   0.746940 0.206370 0.211250 -0.544649
O13   O     O_R   0.246940 0.293630 0.211250 -0.522925
O14   O     O_R   0.753060 0.706370 0.788750 -0.544649
O15   O     O_R   0.753060 0.706370 0.711250 -0.522924
O16   O     O_R   0.246940 0.293630 0.288750 -0.544649
C1    C     C_R   0.577719 0.195445 0.301742 0.743283
C2    C     C_R   0.422080 0.804555 0.698373 0.744238
C3    C     C_R   0.422281 0.804555 0.801742 0.743282
C4    C     C_R   0.577920 0.195444 0.198373 0.744238
C5    C     C_R   0.077719 0.304555 0.198258 0.743282
C6    C     C_R   0.922080 0.695445 0.801627 0.744239
C7    C     C_R   0.922281 0.695445 0.698258 0.743283
C8    C     C_R   0.077920 0.304555 0.301627 0.744238
O17   O     O_3   0.583760 0.276950 0.250000 -0.361262
O18   O     O_3   0.416240 0.723050 0.750000 -0.361261
O19   O     O_3   0.083760 0.223050 0.250000 -0.361261
O20   O     O_3   0.916240 0.776950 0.750000 -0.361262
V1    V     V_3+5 0.858600 0.245000 0.250000 1.551862
V2    V     V_3+5 0.141400 0.755000 0.750000 1.551862
V3    V     V_3+5 0.358600 0.255000 0.250000 1.551862
V4    V     V_3+5 0.641400 0.745000 0.750000 1.551862
C9    C     C_R   0.930358 0.587091 0.538487 0.591095
C10   C     C_R   0.986754 0.411601 0.460763 0.595731
C11   C     C_R   0.069641 0.412909 0.038487 0.591095
C12   C     C_R   0.013247 0.588399 0.960763 0.595731
C13   C     C_R   0.430361 0.912909 0.961513 0.591095
C14   C     C_R   0.486751 0.088399 0.039236 0.595730
C15   C     C_R   0.569640 0.087091 0.461513 0.591096
C16   C     C_R   0.513248 0.911601 0.539237 0.595730
N1    N     N_R   0.942538 0.572787 0.575009 -0.564680
N2    N     N_R   0.010747 0.426287 0.424589 -0.564533
N3    N     N_R   0.057463 0.427213 0.075009 -0.564680
N4    N     N_R   0.989253 0.573713 0.924589 -0.564533
N5    N     N_R   0.442537 0.927213 0.924991 -0.564680
N6    N     N_R   0.510747 0.073713 0.075410 -0.564533
N7    N     N_R   0.557463 0.072787 0.424991 -0.564680
N8    N     N_R   0.489253 0.926287 0.575410 -0.564533
C17   C     C_R   0.961863 0.530530 0.582889 0.590357
C18   C     C_R   0.017430 0.468793 0.416989 0.585877
C19   C     C_R   0.038139 0.469470 0.082889 0.590358
C20   C     C_R   0.982568 0.531207 0.916989 0.585877
C21   C     C_R   0.461859 0.969470 0.917110 0.590357
C22   C     C_R   0.517434 0.031207 0.083011 0.585877
C23   C     C_R   0.538140 0.030530 0.417110 0.590357
C24   C     C_R   0.482567 0.968793 0.583011 0.585878
C25   C     C_R   0.962324 0.499813 0.553219 -0.077264
C26   C     C_R   0.990405 0.499239 0.446401 -0.076001
C27   C     C_R   0.037678 0.500186 0.053219 -0.077264
C28   C     C_R   0.009593 0.500761 0.946401 -0.076000
C29   C     C_R   0.462320 0.000187 0.946781 -0.077264
C30   C     C_R   0.490409 0.000761 0.053599 -0.076001
C31   C     C_R   0.537679 0.999813 0.446781 -0.077264
C32   C     C_R   0.509592 0.999239 0.553599 -0.076001
C33   C     C_R   0.962712 0.514310 0.514989 -0.010460
C34   C     C_R   0.976943 0.484605 0.484498 -0.010376
C35   C     C_R   0.037288 0.485689 0.014989 -0.010460
C36   C     C_R   0.023057 0.515395 0.984498 -0.010376
C37   C     C_R   0.462712 0.985689 0.985011 -0.010460
C38   C     C_R   0.476944 0.015395 0.015502 -0.010376
C39   C     C_R   0.537288 0.014310 0.485011 -0.010460
C40   C     C_R   0.523057 0.984605 0.515502 -0.010376
C41   C     C_R   0.949428 0.558570 0.507317 -0.078436
C42   C     C_R   0.978326 0.440222 0.492046 -0.079237
C43   C     C_R   0.050570 0.441429 0.007317 -0.078436
C44   C     C_R   0.021676 0.559778 0.992046 -0.079238
C45   C     C_R   0.449432 0.941429 0.992683 -0.078436
C46   C     C_R   0.478322 0.059778 0.007954 -0.079237
C47   C     C_R   0.550570 0.058570 0.492683 -0.078436
C48   C     C_R   0.521676 0.940222 0.507954 -0.079237
C49   C     C_R   0.963724 0.455378 0.560560 -0.118347
C50   C     C_R   0.977103 0.543554 0.438939 -0.118209
C51   C     C_R   0.036280 0.544622 0.060560 -0.118347
C52   C     C_R   0.022893 0.456445 0.938939 -0.118209
C53   C     C_R   0.463716 0.044622 0.939440 -0.118347
C54   C     C_R   0.477111 0.956445 0.061061 -0.118209
C55   C     C_R   0.536281 0.955378 0.439440 -0.118347
C56   C     C_R   0.522892 0.043554 0.561061 -0.118210
C57   C     C_R   0.970731 0.425948 0.530355 -0.119024
C58   C     C_R   0.955753 0.572835 0.468997 -0.118788
C59   C     C_R   0.029273 0.574052 0.030355 -0.119024
C60   C     C_R   0.044244 0.427165 0.968997 -0.118788
C61   C     C_R   0.470723 0.074052 0.969645 -0.119024
C62   C     C_R   0.455761 0.927165 0.031003 -0.118788
C63   C     C_R   0.529274 0.925948 0.469645 -0.119024
C64   C     C_R   0.544242 0.072835 0.531003 -0.118788
O21   O     O_2   0.900934 0.628960 0.532757 -0.486072
O22   O     O_2   0.971713 0.369295 0.466054 -0.484589
O23   O     O_2   0.099063 0.371040 0.032757 -0.486073
O24   O     O_2   0.028289 0.630705 0.966054 -0.484589
O25   O     O_2   0.400941 0.871039 0.967243 -0.486072
O26   O     O_2   0.471707 0.130705 0.033946 -0.484589
O27   O     O_2   0.599062 0.128960 0.467243 -0.486072
O28   O     O_2   0.528291 0.869295 0.533946 -0.484589
O29   O     O_2   0.982203 0.518695 0.619487 -0.484910
O30   O     O_2   0.051295 0.481162 0.380921 -0.486980
O31   O     O_2   0.017800 0.481305 0.119487 -0.484909
O32   O     O_2   0.948702 0.518838 0.880921 -0.486981
O33   O     O_2   0.482196 0.981305 0.880513 -0.484909
O34   O     O_2   0.551302 0.018838 0.119079 -0.486981
O35   O     O_2   0.517801 0.018695 0.380513 -0.484910
O36   O     O_2   0.448701 0.981162 0.619079 -0.486980
C65   C     C_R   0.879152 0.391777 0.366430 0.418576
C66   C     C_R   0.777130 0.605237 0.630829 0.423317
C67   C     C_R   0.120848 0.608223 0.866430 0.418576
C68   C     C_R   0.222869 0.394763 0.130829 0.423318
C69   C     C_R   0.379152 0.108223 0.133570 0.418576
C70   C     C_R   0.277130 0.894763 0.869171 0.423318
C71   C     C_R   0.620848 0.891777 0.633570 0.418576
C72   C     C_R   0.722870 0.105237 0.369171 0.423318
C73   C     C_R   0.902636 0.364719 0.335093 0.347723
C74   C     C_R   0.779518 0.632672 0.662275 0.350117
C75   C     C_R   0.097364 0.635281 0.835093 0.347722
C76   C     C_R   0.220481 0.367328 0.162275 0.350117
C77   C     C_R   0.402635 0.135281 0.164907 0.347722
C78   C     C_R   0.279519 0.867328 0.837724 0.350117
C79   C     C_R   0.597364 0.864719 0.664907 0.347723
C80   C     C_R   0.720482 0.132672 0.337725 0.350117
C81   C     C_R   0.066798 0.337512 0.332359 -0.342121
C82   C     C_R   0.932617 0.662509 0.667299 -0.346586
C83   C     C_R   0.933202 0.662488 0.832359 -0.342120
C84   C     C_R   0.067383 0.337491 0.167299 -0.346586
C85   C     C_R   0.566798 0.162488 0.167641 -0.342120
C86   C     C_R   0.432617 0.837491 0.832701 -0.346586
C87   C     C_R   0.433202 0.837512 0.667641 -0.342120
C88   C     C_R   0.567383 0.162509 0.332701 -0.346586
C89   C     C_R   0.214880 0.341235 0.360196 -0.154790
C90   C     C_R   0.091807 0.661016 0.641617 -0.158847
C91   C     C_R   0.785120 0.658765 0.860196 -0.154791
C92   C     C_R   0.908193 0.338984 0.141617 -0.158846
C93   C     C_R   0.714880 0.158765 0.139804 -0.154791
C94   C     C_R   0.591807 0.838984 0.858383 -0.158846
C95   C     C_R   0.285120 0.841235 0.639804 -0.154790
C96   C     C_R   0.408193 0.161016 0.358383 -0.158847
C97   C     C_R   0.200274 0.371302 0.389715 0.386844
C98   C     C_R   0.098641 0.630645 0.612259 0.392686
C99   C     C_R   0.799725 0.628698 0.889715 0.386844
C100  C     C_R   0.901359 0.369355 0.112259 0.392686
C101  C     C_R   0.700275 0.128697 0.110285 0.386845
C102  C     C_R   0.598641 0.869355 0.887741 0.392686
C103  C     C_R   0.299726 0.871302 0.610285 0.386844
C104  C     C_R   0.401359 0.130645 0.387741 0.392686
C105  C     C_R   0.029713 0.396154 0.393572 0.096343
C106  C     C_R   0.938804 0.603181 0.606040 0.092423
C107  C     C_R   0.970286 0.603846 0.893572 0.096344
C108  C     C_R   0.061196 0.396818 0.106040 0.092422
C109  C     C_R   0.529714 0.103846 0.106428 0.096344
C110  C     C_R   0.438804 0.896818 0.893960 0.092422
C111  C     C_R   0.470286 0.896154 0.606428 0.096343
C112  C     C_R   0.561196 0.103181 0.393960 0.092422
C113  C     C_1   0.951781 0.438790 0.599076 0.431066
N9    N     N_1   0.942145 0.425346 0.629632 -0.235386
C114  C     C_1   0.978709 0.560048 0.400320 0.431195
N10   N     N_1   0.979712 0.573413 0.369679 -0.235655
C115  C     C_1   0.048225 0.561210 0.099076 0.431066
N11   N     N_1   0.057862 0.574654 0.129632 -0.235386
C116  C     C_1   0.021286 0.439952 0.900320 0.431195
N12   N     N_1   0.020281 0.426587 0.869679 -0.235656
C117  C     C_1   0.451769 0.061210 0.900924 0.431066
N13   N     N_1   0.442129 0.074654 0.870368 -0.235385
C118  C     C_1   0.478721 0.939951 0.099680 0.431195
N14   N     N_1   0.479728 0.926586 0.130321 -0.235655
C119  C     C_1   0.548226 0.938790 0.400924 0.431066
N15   N     N_1   0.557864 0.925346 0.370368 -0.235386
C120  C     C_1   0.521284 0.060048 0.599680 0.431195
N16   N     N_1   0.520278 0.073413 0.630321 -0.235655
C121  C     C_1   0.974934 0.380934 0.539779 0.431375
N17   N     N_1   0.978309 0.345183 0.547515 -0.235675
C122  C     C_1   0.945605 0.617787 0.459509 0.431285
N18   N     N_1   0.937705 0.653490 0.451724 -0.236017
C123  C     C_1   0.025072 0.619066 0.039779 0.431375
N19   N     N_1   0.021699 0.654817 0.047515 -0.235675
C124  C     C_1   0.054390 0.382213 0.959509 0.431284
N20   N     N_1   0.062288 0.346509 0.951724 -0.236016
C125  C     C_1   0.474922 0.119066 0.960221 0.431374
N21   N     N_1   0.478293 0.154817 0.952485 -0.235674
C126  C     C_1   0.445617 0.882213 0.040491 0.431285
N22   N     N_1   0.437721 0.846509 0.048276 -0.236016
C127  C     C_1   0.525074 0.880934 0.460221 0.431374
N23   N     N_1   0.521701 0.845183 0.452485 -0.235675
C128  C     C_1   0.554388 0.117787 0.540491 0.431285
N24   N     N_1   0.562285 0.153491 0.548276 -0.236016
O37   O     O_3   0.707686 0.414402 0.368797 -0.579027
H1    H     H_    0.694887 0.427131 0.394363 0.313731
O38   O     O_3   0.615213 0.579866 0.626107 -0.577465
H2    H     H_    0.616733 0.566892 0.600514 0.306984
O39   O     O_3   0.292314 0.585598 0.868797 -0.579028
H3    H     H_    0.305112 0.572868 0.894363 0.313730
O40   O     O_3   0.384787 0.420134 0.126107 -0.577465
H4    H     H_    0.383268 0.433108 0.100514 0.306984
O41   O     O_3   0.207687 0.085598 0.131203 -0.579028
H5    H     H_    0.194889 0.072868 0.105637 0.313731
O42   O     O_3   0.115212 0.920134 0.873893 -0.577465
H6    H     H_    0.116731 0.933108 0.899486 0.306984
O43   O     O_3   0.792313 0.914402 0.631203 -0.579028
H7    H     H_    0.805112 0.927132 0.605637 0.313731
O44   O     O_3   0.884788 0.079866 0.373893 -0.577465
H8    H     H_    0.883268 0.066892 0.399486 0.306984
O45   O     O_3   0.760333 0.365921 0.307535 -0.590701
H9    H     H_    0.822572 0.361564 0.282477 0.294409
O46   O     O_3   0.628255 0.629109 0.687714 -0.588239
H10   H     H_    0.681997 0.632355 0.713653 0.298059
O47   O     O_3   0.239667 0.634079 0.807535 -0.590702
H11   H     H_    0.177428 0.638436 0.782477 0.294409
O48   O     O_3   0.371744 0.370891 0.187714 -0.588239
H12   H     H_    0.318002 0.367645 0.213654 0.298059
O49   O     O_3   0.260333 0.134079 0.192464 -0.590702
H13   H     H_    0.322572 0.138436 0.217523 0.294409
O50   O     O_3   0.128256 0.870891 0.812286 -0.588239
H14   H     H_    0.181998 0.867645 0.786346 0.298059
O51   O     O_3   0.739667 0.865921 0.692465 -0.590702
H15   H     H_    0.677428 0.861564 0.717523 0.294409
O52   O     O_3   0.871745 0.129109 0.312286 -0.588239
H16   H     H_    0.818003 0.132354 0.286346 0.298059
C129  C     C_1   0.383958 0.313918 0.359580 0.532600
N25   N     N_1   0.519173 0.292126 0.359183 -0.330442
C130  C     C_1   0.251993 0.690648 0.644316 0.526353
N26   N     N_1   0.380521 0.714197 0.646299 -0.336829
C131  C     C_1   0.616042 0.686082 0.859580 0.532601
N27   N     N_1   0.480826 0.707873 0.859183 -0.330441
C132  C     C_1   0.748007 0.309352 0.144316 0.526352
N28   N     N_1   0.619479 0.285803 0.146299 -0.336830
C133  C     C_1   0.883958 0.186082 0.140420 0.532601
N29   N     N_1   0.019174 0.207873 0.140817 -0.330441
C134  C     C_1   0.751993 0.809352 0.855684 0.526352
N30   N     N_1   0.880520 0.785802 0.853701 -0.336830
C135  C     C_1   0.116042 0.813918 0.640420 0.532600
N31   N     N_1   0.980827 0.792127 0.640817 -0.330441
C136  C     C_1   0.248007 0.190648 0.355683 0.526353
N32   N     N_1   0.119479 0.214197 0.353701 -0.336830
O53   O     O_3   0.355041 0.375106 0.414542 -0.607250
H17   H     H_    0.341529 0.401334 0.429788 0.309953
O54   O     O_3   0.263772 0.629100 0.589908 -0.601351
H18   H     H_    0.265679 0.602490 0.574972 0.315090
O55   O     O_3   0.644959 0.624893 0.914542 -0.607250
H19   H     H_    0.658471 0.598666 0.929788 0.309953
O56   O     O_3   0.736228 0.370900 0.089908 -0.601351
H20   H     H_    0.734321 0.397510 0.074972 0.315089
O57   O     O_3   0.855041 0.124893 0.085458 -0.607251
H21   H     H_    0.841528 0.098666 0.070211 0.309953
O58   O     O_3   0.763771 0.870900 0.910092 -0.601351
H22   H     H_    0.765680 0.897511 0.925027 0.315089
O59   O     O_3   0.144959 0.875106 0.585458 -0.607251
H23   H     H_    0.158472 0.901334 0.570211 0.309953
O60   O     O_3   0.236229 0.129100 0.410092 -0.601351
H24   H     H_    0.234320 0.102489 0.425028 0.315090

loop_
_geom_bond_atom_site_label_1
_geom_bond_atom_site_label_2
_ccdc_geom_bond_type
O17   V3    S    
O42   H6    S    
C56   C64   A    
O18   V4    S    
C115  N11   T    
C6    C83   S    
O19   V1    S    
O41   H5    S    
C95   C135  S    
C37   C45   A    
C70   O42   S    
C10   N2    A    
C124  N20   T    
C32   C40   A    
N3    C19   A    
C92   C100  A    
C104  C112  A    
C113  N9    T    
C93   C101  A    
C102  O58   S    
C5    C84   S    
C119  N15   T    
C3    C86   S    
C67   O39   S    
C22   O34   S    
O57   H21   S    
C131  N27   T    
C56   C120  S    
O8    V1    S    
C64   C128  S    
C89   C97   A    
C136  N32   T    
C27   C51   A    
C41   C58   A    
C80   C88   A    
O59   H23   S    
O12   V1    S    
C69   O41   S    
C38   C46   A    
C50   C114  S    
O39   H3    S    
C46   C61   A    
C21   O33   S    
O54   H18   S    
C34   C42   A    
C77   O49   S    
C45   C62   A    
O1    V3    S    
C40   C48   A    
C17   C25   A    
C76   C84   A    
O3    C2    A    
O2    V4    S    
O53   H17   S    
C117  N13   T    
C10   C42   A    
C16   N8    A    
C89   C129  S    
C54   C62   A    
C27   C35   A    
C21   C29   A    
C8    C81   S    
C26   C34   A    
C68   C76   A    
C84   C92   A    
C114  N10   T    
O11   V2    S    
C23   C31   A    
C98   O54   S    
C31   C55   A    
C134  N30   T    
C16   C48   A    
C59   C123  S    
C65   C73   A    
C71   O43   S    
C73   O45   S    
C4    C85   S    
C20   C28   A    
C133  N29   T    
O37   H1    S    
O9    V1    S    
C103  O59   S    
C97   C105  A    
O15   C7    A    
N4    C20   A    
C95   C103  A    
N7    C23   A    
N5    C21   A    
O40   H4    S    
O16   C8    A    
O7    V2    S    
C135  N31   T    
O17   V1    S    
N4    C107  S    
C30   C38   A    
O12   C4    A    
C37   C38   A    
C99   O55   S    
C65   O37   S    
C93   C133  S    
C11   O23   S    
C80   O52   S    
N1    C17   A    
O13   V3    S    
O8    C5    A    
C19   C27   A    
O5    V1    S    
N7    C112  S    
C101  O57   S    
C55   C119  S    
N8    C111  S    
C18   O30   S    
C67   C75   A    
C66   O38   S    
C69   C109  A    
C35   C36   A    
C18   C26   A    
O20   V4    S    
N2    C105  S    
C83   C91   A    
C62   C126  S    
O52   H16   S    
O58   H22   S    
C33   C41   A    
C73   C81   A    
C116  N12   T    
C68   O40   S    
C79   O51   S    
C17   O29   S    
O38   H2    S    
C14   C46   A    
O49   H13   S    
C123  N19   T    
N6    C109  S    
O19   V3    S    
C65   C105  A    
C100  O56   S    
C53   C117  S    
C39   C47   A    
C54   C118  S    
C7    C82   S    
C55   C63   A    
O16   V3    S    
C103  C111  A    
O48   H12   S    
O46   H10   S    
O51   H15   S    
O60   H24   S    
C86   C94   A    
C30   C54   A    
O10   V2    S    
C130  N26   T    
C98   C106  A    
O47   H11   S    
O11   C3    A    
N6    C22   A    
C1    C88   S    
C24   C32   A    
O45   H9    S    
C97   O53   S    
C127  N23   T    
C12   O24   S    
O9    C1    A    
C48   C63   A    
C52   C60   A    
C51   C115  S    
C118  N14   T    
C78   C86   A    
C29   C53   A    
C43   C60   A    
N2    C18   A    
C2    C87   S    
O4    C1    A    
C91   C99   A    
C9    C41   A    
C94   C134  S    
O6    V2    S    
C31   C39   A    
O18   V2    S    
C57   C121  S    
C75   O47   S    
C25   C49   A    
C70   C110  A    
C23   O35   S    
C35   C43   A    
C13   N5    A    
N3    C108  S    
C82   C90   A    
O50   H14   S    
C11   N3    A    
C78   O50   S    
C42   C57   A    
C15   N7    A    
N1    C106  S    
C29   C37   A    
C128  N24   T    
N8    C24   A    
O43   H7    S    
C58   C122  S    
O1    C4    A    
C32   C56   A    
C102  C110  A    
C75   C83   A    
O2    C3    A    
C72   O44   S    
C49   C113  S    
C91   C131  S    
C71   C111  A    
N5    C110  S    
C11   C43   A    
O14   V4    S    
C60   C124  S    
O15   V4    S    
C104  O60   S    
O56   H20   S    
C72   C80   A    
C15   O27   S    
C122  N18   T    
C36   C44   A    
O7    C6    A    
C70   C78   A    
C77   C85   A    
C50   C58   A    
C61   C125  S    
C90   C98   A    
C28   C36   A    
C9    N1    A    
C94   C102  A    
C26   C50   A    
C16   O28   S    
C67   C107  A    
C49   C57   A    
C39   C40   A    
C88   C96   A    
C120  N16   T    
C72   C112  A    
O13   C5    A    
C14   N6    A    
C13   O25   S    
C28   C52   A    
O14   C6    A    
C125  N21   T    
O5    C8    A    
C13   C45   A    
O10   C2    A    
O6    C7    A    
C51   C59   A    
O20   V2    S    
C87   C95   A    
C10   O22   S    
C24   O36   S    
C9    O21   S    
C33   C34   A    
C99   C107  A    
C14   O26   S    
O3    V4    S    
C79   C87   A    
C68   C108  A    
O4    V3    S    
C12   N4    A    
C63   C127  S    
C44   C59   A    
C90   C130  S    
C66   C74   A    
C47   C64   A    
C53   C61   A    
C81   C89   A    
C96   C136  S    
C92   C132  S    
C19   O31   S    
C121  N17   T    
C132  N28   T    
C52   C116  S    
O44   H8    S    
C74   O46   S    
C22   C30   A    
C20   O32   S    
C126  N22   T    
C85   C93   A    
C100  C108  A    
C101  C109  A    
O55   H19   S    
C69   C77   A    
C12   C44   A    
C74   C82   A    
C66   C106  A    
C96   C104  A    
C25   C33   A    
C15   C47   A    
C129  N25   T    
C76   O48   S    
C71   C79   A    
