data_mof_unit_55752.cif
_audit_creation_date              2012-12-10T17:27:05-0500
_audit_creation_method            fapswitch 2.2
_symmetry_space_group_name_H-M    P1
_symmetry_Int_Tables_number       1
_space_group_crystal_system       triclinic
_cell_length_a                    18.365411
_cell_length_b                    18.057578
_cell_length_c                    11.996448
_cell_angle_alpha                 88.992449
_cell_angle_beta                  86.256291
_cell_angle_gamma                 90.107257
_cell_volume                      3969.31853906

loop_
_atom_site_label
_atom_site_type_symbol
_atom_type_description
_atom_site_fract_x
_atom_site_fract_y
_atom_site_fract_z
_atom_type_partial_charge
C1    C     C_R   0.400492 0.100673 0.520728 0.915308
C2    C     C_R   0.534920 0.999111 0.020758 0.091189
C3    C     C_R   0.964936 0.499936 0.979264 0.098811
C4    C     C_R   0.034920 0.499111 0.020758 0.091189
C5    C     C_R   0.587238 0.998908 0.829498 0.035070
C6    C     C_R   0.412707 0.000512 0.170582 0.037632
C7    C     C_R   0.087238 0.498907 0.829498 0.035070
C8    C     C_R   0.912707 0.500513 0.170582 0.037633
C9    C     C_R   0.596360 0.998417 0.944806 -0.326488
C10   C     C_R   0.403497 0.000437 0.055282 -0.337492
C11   C     C_R   0.096360 0.498416 0.944806 -0.326489
C12   C     C_R   0.598455 0.898234 0.479644 0.919436
C13   C     C_R   0.903496 0.500439 0.055282 -0.337495
C14   C     C_R   0.458493 0.000320 0.862504 -0.060050
C15   C     C_R   0.541435 0.999118 0.137465 -0.066467
C16   C     C_R   0.958493 0.500321 0.862504 -0.060049
C17   C     C_R   0.041435 0.499117 0.137465 -0.066466
C18   C     C_R   0.652872 0.159070 0.465796 -0.142388
C19   C     C_R   0.344223 0.844319 0.536216 -0.131109
C20   C     C_R   0.344309 0.155263 0.532960 -0.141754
C21   C     C_R   0.649472 0.838430 0.469777 -0.136010
C22   C     C_R   0.152871 0.659070 0.465796 -0.142389
C23   C     C_R   0.599475 0.100999 0.478108 0.915003
C24   C     C_R   0.844223 0.344319 0.536216 -0.131110
C25   C     C_R   0.844310 0.655264 0.532960 -0.141754
C26   C     C_R   0.149472 0.338429 0.469778 -0.136010
C27   C     C_R   0.284504 0.745084 0.644082 0.499222
C28   C     C_R   0.706795 0.263409 0.363543 0.485091
C29   C     C_R   0.706618 0.740186 0.360749 0.510599
C30   C     C_R   0.277782 0.244204 0.647344 0.514419
C31   C     C_R   0.784504 0.245084 0.644082 0.499223
C32   C     C_R   0.206793 0.763411 0.363545 0.485090
C33   C     C_R   0.206616 0.240185 0.360750 0.510599
C34   C     C_R   0.400153 0.899537 0.522097 0.915965
C35   C     C_R   0.777784 0.744207 0.647342 0.514419
C36   C     C_R   0.336538 0.801350 0.634083 -0.306817
C37   C     C_R   0.659229 0.203510 0.369114 -0.293766
C38   C     C_R   0.655902 0.797738 0.372193 -0.333611
C39   C     C_R   0.334231 0.193169 0.632812 -0.307059
C40   C     C_R   0.836538 0.301350 0.634083 -0.306823
C41   C     C_R   0.159227 0.703511 0.369115 -0.293761
C42   C     C_R   0.155901 0.297737 0.372193 -0.333610
C43   C     C_R   0.834233 0.693170 0.632811 -0.307059
C44   C     C_R   0.300127 0.833073 0.448130 -0.256641
C45   C     C_R   0.900492 0.600674 0.520728 0.915308
C46   C     C_R   0.694812 0.172476 0.556069 -0.237386
C47   C     C_R   0.689189 0.820252 0.560853 -0.228315
C48   C     C_R   0.300436 0.168662 0.444615 -0.243929
C49   C     C_R   0.800127 0.333072 0.448130 -0.256634
C50   C     C_R   0.194811 0.672477 0.556069 -0.237388
C51   C     C_R   0.189187 0.320250 0.560854 -0.228315
C52   C     C_R   0.800437 0.668663 0.444615 -0.243927
C53   C     C_R   0.249774 0.776351 0.454263 0.003036
C54   C     C_R   0.743082 0.231024 0.552020 0.015083
C55   C     C_R   0.738305 0.762741 0.554173 0.001991
C56   C     C_R   0.098454 0.398234 0.479644 0.919436
C57   C     C_R   0.248152 0.223462 0.452723 0.016519
C58   C     C_R   0.749775 0.276350 0.454263 0.003039
C59   C     C_R   0.243081 0.731025 0.552020 0.015082
C60   C     C_R   0.238303 0.262739 0.554174 0.001991
C61   C     C_R   0.748154 0.723464 0.452722 0.016519
C62   C     C_3   0.760427 0.239411 0.836093 0.062873
C63   C     C_3   0.820196 0.229482 0.918180 -0.367447
C64   C     C_3   0.802183 0.271533 0.025612 -0.885124
C65   C     C_3   0.164866 0.865733 0.275588 0.050283
C66   C     C_3   0.181124 0.919361 0.177052 -0.326844
C67   C     C_R   0.099475 0.600999 0.478108 0.915002
C68   C     C_3   0.132204 0.987527 0.185448 -0.950282
C69   C     C_3   0.199827 0.234026 0.165657 0.073977
C70   C     C_3   0.121974 0.217274 0.132459 -0.357959
C71   C     C_3   0.091180 0.280507 0.063559 -0.949969
C72   C     C_3   0.759962 0.727229 0.841510 0.086640
C73   C     C_3   0.702968 0.664366 0.835814 -0.356465
C74   C     C_3   0.725071 0.595342 0.900640 -0.988383
C75   C     C_3   0.260421 0.739411 0.836091 0.062871
C76   C     C_3   0.320187 0.729485 0.918184 -0.367450
C77   C     C_3   0.302167 0.771535 0.025616 -0.885112
C78   C     C_R   0.900153 0.399537 0.522097 0.915965
C79   C     C_3   0.664866 0.365727 0.275580 0.050286
C80   C     C_3   0.681135 0.419361 0.177054 -0.326830
C81   C     C_3   0.632207 0.487522 0.185440 -0.950260
C82   C     C_3   0.699829 0.734028 0.165656 0.073977
C83   C     C_3   0.621976 0.717276 0.132457 -0.357959
C84   C     C_3   0.591182 0.780509 0.063559 -0.949968
C85   C     C_3   0.259960 0.227226 0.841512 0.086641
C86   C     C_3   0.202967 0.164363 0.835816 -0.356467
C87   C     C_3   0.225070 0.095339 0.900642 -0.988382
C88   C     C_R   0.464936 0.999935 0.979264 0.098810
H1    H     H_    0.365301 0.001018 0.229051 0.127468
H2    H     H_    0.306211 0.867841 0.373486 0.203098
H3    H     H_    0.308490 0.137497 0.368411 0.211105
H4    H     H_    0.682536 0.851932 0.636746 0.213146
H5    H     H_    0.189553 0.637129 0.630166 0.208584
H6    H     H_    0.806211 0.367841 0.373486 0.203099
H7    H     H_    0.808491 0.637498 0.368410 0.211106
H8    H     H_    0.182534 0.351930 0.636747 0.213146
H9    H     H_    0.626387 0.192968 0.299221 0.173996
H10   H     H_    0.372060 0.810123 0.701188 0.170563
H11   H     H_    0.370719 0.182838 0.698342 0.165641
H12   H     H_    0.634667 0.998379 0.771086 0.137534
H13   H     H_    0.620521 0.810953 0.306382 0.181111
H14   H     H_    0.126385 0.692970 0.299223 0.173997
H15   H     H_    0.872060 0.310124 0.701188 0.170563
H16   H     H_    0.870720 0.682840 0.698341 0.165641
H17   H     H_    0.120520 0.310953 0.306382 0.181110
H18   H     H_    0.650892 0.997584 0.974190 0.149868
H19   H     H_    0.348927 0.000858 0.026005 0.146314
H20   H     H_    0.150892 0.497582 0.974190 0.149868
H21   H     H_    0.848927 0.500861 0.026005 0.146315
H22   H     H_    0.708638 0.216106 0.875194 0.162013
H23   H     H_    0.865301 0.501020 0.229051 0.127465
H24   H     H_    0.750414 0.299721 0.821366 0.121834
H25   H     H_    0.826033 0.169627 0.938871 0.234838
H26   H     H_    0.873155 0.249933 0.879299 0.220746
H27   H     H_    0.798535 0.331907 0.007403 0.253415
H28   H     H_    0.845728 0.262188 0.084278 0.275123
H29   H     H_    0.749496 0.251571 0.066051 0.290681
H30   H     H_    0.170230 0.896505 0.354527 0.139354
H31   H     H_    0.107866 0.844877 0.273252 0.146139
H32   H     H_    0.239107 0.937400 0.175367 0.221305
H33   H     H_    0.172475 0.890685 0.097725 0.221177
H34   H     H_    0.134667 0.498377 0.771086 0.137534
H35   H     H_    0.073859 0.970954 0.187279 0.261948
H36   H     H_    0.144532 0.024520 0.111812 0.264190
H37   H     H_    0.142065 0.018646 0.262132 0.280274
H38   H     H_    0.239058 0.213218 0.099614 0.142233
H39   H     H_    0.211497 0.294604 0.168087 0.133179
H40   H     H_    0.122190 0.165571 0.083695 0.218666
H41   H     H_    0.084758 0.207646 0.208139 0.239454
H42   H     H_    0.085339 0.331349 0.114073 0.267287
H43   H     H_    0.036516 0.264707 0.037178 0.268542
H44   H     H_    0.127332 0.292898 0.987900 0.264772
H45   H     H_    0.594800 0.998468 0.170863 0.128016
H46   H     H_    0.745706 0.759310 0.917596 0.142483
H47   H     H_    0.815385 0.705902 0.854776 0.139350
H48   H     H_    0.648966 0.683910 0.870328 0.218342
H49   H     H_    0.696014 0.647689 0.748559 0.228292
H50   H     H_    0.776266 0.572055 0.861284 0.264901
H51   H     H_    0.681455 0.552759 0.899422 0.266712
H52   H     H_    0.733734 0.608509 0.988675 0.262989
H53   H     H_    0.208632 0.716103 0.875187 0.162012
H54   H     H_    0.250406 0.799720 0.821362 0.121833
H55   H     H_    0.326027 0.669631 0.938875 0.234838
H56   H     H_    0.405145 0.000871 0.829047 0.122405
H57   H     H_    0.373146 0.749940 0.879309 0.220745
H58   H     H_    0.298515 0.831908 0.007406 0.253413
H59   H     H_    0.345709 0.762192 0.084286 0.275127
H60   H     H_    0.249479 0.751569 0.066049 0.290676
H61   H     H_    0.670219 0.396496 0.354525 0.139347
H62   H     H_    0.607868 0.344869 0.273224 0.146141
H63   H     H_    0.739116 0.437407 0.175392 0.221295
H64   H     H_    0.672500 0.390688 0.097717 0.221175
H65   H     H_    0.573864 0.470944 0.187240 0.261941
H66   H     H_    0.644547 0.524523 0.111815 0.264190
H67   H     H_    0.094800 0.498466 0.170863 0.128016
H68   H     H_    0.642049 0.518636 0.262138 0.280263
H69   H     H_    0.739060 0.713220 0.099613 0.142232
H70   H     H_    0.711498 0.794606 0.168086 0.133179
H71   H     H_    0.622192 0.665573 0.083693 0.218665
H72   H     H_    0.584759 0.707647 0.208138 0.239453
H73   H     H_    0.585341 0.831351 0.114073 0.267286
H74   H     H_    0.536518 0.764709 0.037176 0.268541
H75   H     H_    0.627334 0.792901 0.987900 0.264771
H76   H     H_    0.245703 0.259307 0.917597 0.142483
H77   H     H_    0.315384 0.205900 0.854777 0.139350
H78   H     H_    0.905145 0.500873 0.829047 0.122405
H79   H     H_    0.148964 0.183906 0.870329 0.218342
H80   H     H_    0.196013 0.147685 0.748561 0.228292
H81   H     H_    0.276266 0.072053 0.861287 0.264901
H82   H     H_    0.181455 0.052755 0.899424 0.266711
H83   H     H_    0.233732 0.108506 0.988677 0.262993
H84   H     H_    0.689553 0.137130 0.630166 0.208585
N1    N     N_R   0.480750 1.000000 0.209750 -0.101528
N2    N     N_R   0.519250 1.000000 0.790250 -0.104405
N3    N     N_R   0.980750 0.500000 0.209750 -0.101527
N4    N     N_R   0.019250 0.500000 0.790250 -0.104405
O1    O     O_R   0.418020 0.076820 0.422210 -0.632984
O2    O     O_R   0.569630 0.923170 0.391410 -0.627572
O3    O     O_R   0.569630 0.076830 0.391410 -0.623633
O4    O     O_R   0.430370 0.923170 0.608590 -0.627031
O5    O     O_R   0.930370 0.576830 0.608590 -0.627749
O6    O     O_R   0.069630 0.423170 0.391410 -0.627572
O7    O     O_R   0.069630 0.576830 0.391410 -0.623633
O8    O     O_R   0.930370 0.423170 0.608590 -0.627031
O9    O     O_3   0.778794 0.198913 0.738069 -0.655990
O10   O     O_3   0.214450 0.806142 0.266707 -0.662841
O11   O     O_3   0.213874 0.195889 0.266220 -0.666169
O12   O     O_R   0.581980 0.923180 0.577790 -0.631288
O13   O     O_3   0.760300 0.777821 0.749426 -0.666118
O14   O     O_3   0.278794 0.698913 0.738069 -0.655988
O15   O     O_3   0.714454 0.306139 0.266705 -0.662842
O16   O     O_3   0.713875 0.695891 0.266219 -0.666166
O17   O     O_3   0.260297 0.277819 0.749428 -0.666118
O18   O     O_R   0.581980 0.076820 0.577790 -0.631343
O19   O     O_R   0.418020 0.923180 0.422210 -0.629110
O20   O     O_R   0.918020 0.576820 0.422210 -0.632984
O21   O     O_R   0.081980 0.423180 0.577790 -0.631288
O22   O     O_R   0.081980 0.576820 0.577790 -0.631343
O23   O     O_R   0.918020 0.423180 0.422210 -0.629110
O24   O     O_R   0.430370 0.076830 0.608590 -0.627749
Zn1   Zn    Zn3+2 0.491750 1.000000 0.375560 0.941382
Zn2   Zn    Zn3+2 0.508250 1.000000 0.624440 0.940893
Zn3   Zn    Zn3+2 0.991750 0.500000 0.375560 0.941382
Zn4   Zn    Zn3+2 0.008250 0.500000 0.624440 0.940892

loop_
_geom_bond_atom_site_label_1
_geom_bond_atom_site_label_2
_ccdc_geom_bond_type
C34   O19   A    
C80   H63   S    
C66   C68   S    
C8    C13   A    
O8    Zn4   S    
C5    N2    A    
N4    Zn4   S    
C34   O4    A    
C67   O22   A    
C25   C43   A    
C37   H9    S    
C53   C59   A    
C8    N3    A    
C45   O5    A    
C48   C57   A    
C85   C86   S    
C41   H14   S    
C7    C11   A    
C74   H50   S    
C10   C88   A    
C81   H68   S    
C56   O6    A    
O21   Zn4   S    
C64   H28   S    
C50   C59   A    
C18   C37   A    
C38   H13   S    
O4    Zn2   S    
C52   C61   A    
C82   H70   S    
N3    Zn3   S    
C30   O17   S    
C12   O12   A    
N2    Zn2   S    
O5    Zn4   S    
C81   H65   S    
C31   C40   A    
C52   H7    S    
N1    Zn1   S    
C73   C74   S    
C43   H16   S    
C13   H21   S    
C75   H53   S    
C71   H44   S    
C63   H26   S    
C1    O1    A    
C44   C53   A    
C3    C16   A    
C21   C38   A    
O3    Zn1   S    
C16   H78   S    
C48   H3    S    
C30   C60   A    
C29   C38   A    
C65   H30   S    
C5    H12   S    
C2    C88   A    
C70   C71   S    
C27   O14   S    
C49   H6    S    
C35   C43   A    
C72   O13   S    
C69   O11   S    
C23   O3    A    
C3    C13   A    
C51   H8    S    
C22   C50   A    
C84   H74   S    
C16   N4    A    
C45   O20   A    
C32   O10   S    
C35   O13   S    
C64   H27   S    
C79   O15   S    
O23   Zn3   S    
C31   O9    S    
C10   H19   S    
C47   H4    S    
C18   C46   A    
C68   H35   S    
C68   H37   S    
C29   C61   A    
C14   H56   S    
C66   H33   S    
C83   H72   S    
C35   C55   A    
O6    Zn3   S    
C75   O14   S    
C86   H80   S    
C76   C77   S    
C8    H23   S    
C82   H69   S    
C15   N1    A    
C86   C87   S    
C72   C73   S    
C72   H47   S    
C9    H18   S    
C63   C64   S    
C87   H82   S    
C74   H52   S    
C12   C21   S    
C70   H41   S    
C49   C58   A    
C18   C23   S    
C4    C11   A    
C63   H25   S    
C75   C76   S    
C5    C9    A    
C62   C63   S    
C75   H54   S    
C72   H46   S    
C83   C84   S    
C62   H22   S    
C73   H48   S    
C32   C41   A    
C87   H83   S    
C7    N4    A    
C46   C54   A    
C65   H31   S    
C29   O16   S    
C62   H24   S    
C33   O11   S    
O20   Zn3   S    
C2    C15   A    
C77   H60   S    
C20   C48   A    
C84   H75   S    
C67   O7    A    
C62   O9    S    
C15   H45   S    
C4    C17   A    
C68   H36   S    
C24   C78   S    
C81   H66   S    
C76   H57   S    
C82   C83   S    
C79   H62   S    
O22   Zn4   S    
O1    Zn1   S    
C1    O24   A    
C78   O23   A    
C33   C42   A    
C7    H34   S    
C3    C4    A    
C17   H67   S    
C28   O15   S    
C25   C45   S    
C32   C53   A    
C44   H2    S    
C19   C44   A    
C26   C42   A    
C47   C55   A    
C56   O21   A    
C54   C58   A    
C70   H40   S    
C24   C49   A    
C80   H64   S    
C77   H59   S    
C65   O10   S    
C1    C20   S    
C33   C57   A    
C82   O16   S    
C87   H81   S    
C86   H79   S    
C80   C81   S    
C57   C60   A    
C19   C34   S    
C26   C56   S    
C69   H38   S    
C50   H5    S    
O19   Zn1   S    
C6    N1    A    
C28   C58   A    
C27   C36   A    
C6    H1    S    
C74   H51   S    
C79   H61   S    
C19   C36   A    
O7    Zn3   S    
C20   C39   A    
C25   C52   A    
C85   H77   S    
C14   N2    A    
C27   C59   A    
C26   C51   A    
C40   H15   S    
C85   O17   S    
C73   H49   S    
C28   C37   A    
C55   C61   A    
C23   O18   A    
O12   Zn2   S    
C24   C40   A    
C46   H84   S    
C30   C39   A    
C78   O8    A    
C31   C54   A    
C69   C70   S    
C42   H17   S    
C22   C67   S    
C66   H32   S    
C6    C10   A    
C64   H29   S    
C14   C88   A    
C79   C80   S    
C22   C41   A    
C76   H55   S    
C39   H11   S    
C83   H71   S    
C69   H39   S    
C71   H43   S    
O24   Zn2   S    
C65   C66   S    
O2    Zn1   S    
C11   H20   S    
C85   H76   S    
C36   H10   S    
C51   C60   A    
C21   C47   A    
C12   O2    A    
C2    C9    A    
C77   H58   S    
C84   H73   S    
C17   N3    A    
C71   H42   S    
O18   Zn2   S    
