data_mof_unit_46472.cif
_audit_creation_date              2012-12-11T14:58:00-0500
_audit_creation_method            fapswitch 2.2
_symmetry_space_group_name_H-M    P1
_symmetry_Int_Tables_number       1
_space_group_crystal_system       triclinic
_cell_length_a                    6.934315
_cell_length_b                    16.780675
_cell_length_c                    17.040863
_cell_angle_alpha                 100.51073
_cell_angle_beta                  89.236068
_cell_angle_gamma                 91.485093
_cell_volume                      1948.91577458

loop_
_atom_site_label
_atom_site_type_symbol
_atom_type_description
_atom_site_fract_x
_atom_site_fract_y
_atom_site_fract_z
_atom_type_partial_charge
O1    O     O_R   0.506180 0.438940 0.579430 -0.540724
O2    O     O_R   0.170520 0.406230 0.413590 -0.539120
O3    O     O_R   0.005180 0.561060 0.420570 -0.539462
C1    C     C_R   0.339375 0.383444 0.384958 0.693676
O4    O     O_R   0.176140 0.429310 0.578370 -0.545126
O5    O     O_R   0.010830 0.584300 0.586530 -0.534841
C2    C     C_R   0.341820 0.413259 0.605107 0.715270
O6    O     O_R   0.500520 0.415700 0.413470 -0.535745
O7    O     O_3   0.340830 0.550820 0.502480 -0.365666
V1    V     V_3+5 0.064040 0.490570 0.499540 1.411646
O8    O     O_R   0.681400 0.593770 0.586410 -0.538217
C3    C     C_R   0.850991 0.616537 0.614781 0.696422
O9    O     O_R   0.675790 0.570690 0.421630 -0.541941
C4    C     C_R   0.847108 0.585472 0.394536 0.693939
V2    V     V_3+5 0.564650 0.509430 0.500460 1.415322
O10   O     O_3   0.837730 0.449180 0.497520 -0.368996
C5    C     C_R   0.899145 0.861191 0.166860 -0.147175
C6    C     C_R   0.869567 0.633896 0.330465 -0.060436
C7    C     C_R   0.045577 0.659246 0.212655 -0.179069
C8    C     C_R   0.006274 0.611035 0.269814 -0.171240
C9    C     C_R   0.772060 0.706397 0.333164 -0.220604
C10   C     C_R   0.815584 0.757022 0.277236 0.079701
C11   C     C_R   0.951844 0.733495 0.215121 0.125294
C12   C     C_R   0.990001 0.784471 0.157719 0.042443
C13   C     C_R   0.775479 0.886368 0.233742 0.090167
C14   C     C_R   0.728347 0.832035 0.285097 -0.192772
H1    H     H_    0.154175 0.637962 0.168380 0.127790
H2    H     H_    0.625413 0.848680 0.333196 0.138149
H3    H     H_    0.084844 0.555558 0.266996 0.121325
H4    H     H_    0.669601 0.725310 0.381170 0.114509
H5    H     H_    0.627521 0.642959 0.971910 0.111133
C15   C     C_R   0.048652 0.900300 0.727390 -0.144532
C16   C     C_R   0.110944 0.910953 0.651836 -0.126029
C17   C     C_R   0.092110 0.847816 0.586965 -0.123090
C18   C     C_R   0.011137 0.773487 0.597167 -0.131280
C19   C     C_R   0.948136 0.760534 0.673319 0.069604
C20   C     C_R   0.967054 0.825311 0.739801 0.068476
C21   C     C_R   0.864171 0.685077 0.683565 -0.186292
C22   C     C_R   0.798879 0.674450 0.760327 0.068960
C23   C     C_R   0.817267 0.739306 0.826780 0.074914
C24   C     C_R   0.901347 0.814750 0.816522 -0.186114
C25   C     C_R   0.718248 0.599326 0.772799 -0.146378
C26   C     C_R   0.656540 0.588580 0.848401 -0.117074
C27   C     C_R   0.674432 0.651841 0.913207 -0.126380
C28   C     C_R   0.753868 0.726397 0.902902 -0.143416
H6    H     H_    0.064320 0.951695 0.775620 0.108288
H7    H     H_    0.173115 0.968720 0.643532 0.115192
H8    H     H_    0.139496 0.856586 0.528277 0.111883
H9    H     H_    0.997151 0.726734 0.544558 0.102071
H10   H     H_    0.703108 0.547883 0.724585 0.106577
H11   H     H_    0.595429 0.530660 0.856780 0.117579
H12   H     H_    0.766329 0.773349 0.955400 0.095259
H13   H     H_    0.637563 0.483837 0.158220 0.119460
C29   C     C_R   0.203038 0.219596 0.392668 -0.139621
C30   C     C_R   0.140434 0.141441 0.398931 -0.123183
C31   C     C_R   0.163709 0.077993 0.335042 -0.131914
C32   C     C_R   0.250339 0.092089 0.264565 -0.138751
C33   C     C_R   0.316723 0.170705 0.256227 0.071413
C34   C     C_R   0.289898 0.236094 0.321460 0.066177
C35   C     C_R   0.411705 0.184280 0.185088 -0.187852
C36   C     C_R   0.475029 0.263960 0.178789 0.066673
C37   C     C_R   0.444848 0.329603 0.243487 0.073719
C38   C     C_R   0.353390 0.315700 0.315142 -0.189393
C39   C     C_R   0.563252 0.280437 0.107845 -0.135216
C40   C     C_R   0.622533 0.358888 0.101130 -0.113498
C41   C     C_R   0.592955 0.422846 0.164023 -0.134163
C42   C     C_R   0.503904 0.408849 0.234142 -0.142430
H14   H     H_    0.183588 0.266469 0.444589 0.110651
H15   H     H_    0.074334 0.130003 0.453842 0.112105
H16   H     H_    0.116817 0.017163 0.340306 0.121214
H17   H     H_    0.266699 0.040122 0.217449 0.109759
H18   H     H_    0.586202 0.233345 0.056421 0.117304
H19   H     H_    0.690143 0.370202 0.046455 0.126009
H20   H     H_    0.479823 0.461173 0.280290 0.109966
C43   C     C_R   0.429177 0.140809 0.834397 -0.112897
C44   C     C_R   0.335588 0.360162 0.666588 -0.101203
C45   C     C_R   0.147264 0.303844 0.768161 0.322591
C46   C     C_R   0.168275 0.358017 0.714113 -0.258390
C47   C     C_R   0.485390 0.307606 0.674697 -0.257577
C48   C     C_R   0.465677 0.252027 0.727521 0.080003
C49   C     C_R   0.295578 0.249569 0.774354 0.124107
C50   C     C_R   0.278143 0.193236 0.826954 -0.206421
C51   C     C_R   0.596040 0.143944 0.786851 -0.129715
C52   C     C_R   0.613479 0.198273 0.733838 -0.137002
H21   H     H_    0.150101 0.191583 0.863815 0.170085
H22   H     H_    0.714938 0.104307 0.790939 0.126833
H23   H     H_    0.744160 0.198801 0.698308 0.128845
H24   H     H_    0.052163 0.398707 0.708951 0.123324
H25   H     H_    0.614569 0.308188 0.638232 0.132098
O11   O     O_R   0.265840 0.084300 0.086750 -0.535608
O12   O     O_R   0.589750 0.070740 0.921690 -0.541174
O13   O     O_R   0.755020 0.915730 0.913400 -0.533604
C53   C     C_R   0.423911 0.087016 0.895227 0.703295
O14   O     O_R   0.595830 0.093740 0.086480 -0.540399
O15   O     O_R   0.761150 0.938890 0.079360 -0.545031
C54   C     C_R   0.426861 0.116434 0.115335 0.690584
O16   O     O_R   0.259710 0.061140 0.920790 -0.539212
O17   O     O_3   0.425260 0.949200 0.997610 -0.366247
V3    V     V_3+5 0.702060 0.009430 0.000450 1.406191
O18   O     O_R   0.090530 0.929220 0.078150 -0.538085
C55   C     C_R   0.919407 0.913085 0.104468 0.684367
O19   O     O_R   0.084440 0.906220 0.913360 -0.538625
C56   C     C_R   0.914716 0.883302 0.885254 0.693952
V4    V     V_3+5 0.201450 0.990520 0.999290 1.407523
O20   O     O_3   0.928380 0.050800 0.002390 -0.364890
C57   C     C_3   0.120779 0.755988 0.085851 -0.350235
C58   C     C_3   0.332903 0.775915 0.106150 -0.684937
H26   H     H_    0.355641 0.842032 0.127247 0.232922
H27   H     H_    0.380859 0.743591 0.153482 0.209647
H28   H     H_    0.423712 0.757152 0.052146 0.202163
H29   H     H_    0.099890 0.690088 0.063241 0.162623
H30   H     H_    0.082149 0.783048 0.033728 0.176792
C59   C     C_3   0.689183 0.970604 0.249007 -0.308190
C60   C     C_3   0.652021 0.006445 0.337068 -0.775269
H31   H     H_    0.520415 0.978368 0.359320 0.219600
H32   H     H_    0.777329 0.997515 0.374120 0.224520
H33   H     H_    0.628234 0.072555 0.343695 0.233815
H34   H     H_    0.789235 0.014143 0.226284 0.178139
H35   H     H_    0.552188 0.967935 0.215710 0.170614
O21   O     O_3   0.983163 0.302949 0.814972 -0.658536
H36   H     H_    0.893788 0.344393 0.803281 0.286317

loop_
_geom_bond_atom_site_label_1
_geom_bond_atom_site_label_2
_ccdc_geom_bond_type
C30   C31   A    
C6    C9    A    
C4    C6    S    
O2    C1    A    
C7    C8    A    
C44   C47   A    
C48   C52   A    
C45   O21   S    
C26   H11   S    
C60   H31   S    
C57   H30   S    
C45   C46   A    
O21   H36   S    
C1    C38   S    
C37   C42   A    
C19   C20   A    
C44   C46   A    
O5    C3    A    
C21   C22   A    
O19   V4    S    
O15   V3    S    
C29   H14   S    
C57   C58   S    
C33   C35   A    
V2    O10   S    
O18   V4    S    
C40   H19   S    
C31   C32   A    
C17   C18   A    
C5    C55   S    
O13   C56   A    
C59   H35   S    
O8    V2    S    
C18   C19   A    
C18   H9    S    
C58   H26   S    
C52   H23   S    
O1    V2    S    
C14   H2    S    
C7    H1    S    
O7    V1    S    
C1    O6    A    
C57   H29   S    
C41   C42   A    
O9    C4    A    
C3    C21   S    
C58   H27   S    
C36   C37   A    
V4    O20   S    
C49   C50   A    
C22   C25   A    
C29   C34   A    
C23   C28   A    
V3    O20   S    
C5    C12   A    
H5    C27   S    
C60   H33   S    
C47   C48   A    
C22   C23   A    
O4    C2    A    
C28   H12   S    
C13   C14   A    
C24   C56   S    
C35   C36   A    
C36   C39   A    
C7    C11   A    
C26   C27   A    
C37   C38   A    
C13   C59   S    
O12   C53   A    
C51   C52   A    
C45   C49   A    
C11   C12   A    
C16   C17   A    
C42   H20   S    
C15   C20   A    
C32   H17   S    
O14   C54   A    
H13   C41   S    
O11   V4    S    
C30   H15   S    
O3    C4    A    
C25   H10   S    
C35   C54   S    
C23   C24   A    
O17   V3    S    
O6    V2    S    
C31   H16   S    
O9    V2    S    
C16   H7    S    
C58   H28   S    
C17   H8    S    
C25   C26   A    
O2    V1    S    
C53   O16   A    
C27   C28   A    
C43   C53   S    
C59   C60   S    
C46   H24   S    
C29   C30   A    
O1    C2    A    
C15   H6    S    
C48   C49   A    
O5    V1    S    
C60   H32   S    
O8    C3    A    
C43   C50   A    
O11   C54   A    
C2    C44   S    
C50   H21   S    
C9    H4    S    
C34   C38   A    
C5    C13   A    
C39   C40   A    
C19   C21   A    
C33   C34   A    
O4    V1    S    
O3    V1    S    
V1    O10   S    
C15   C16   A    
C43   C51   A    
C32   C33   A    
O14   V3    S    
O17   V4    S    
O18   C55   A    
C6    C8    A    
C39   H18   S    
C20   C24   A    
O19   C56   A    
C47   H25   S    
O16   V4    S    
C59   H34   S    
C51   H22   S    
C12   C57   S    
O13   V3    S    
C8    H3    S    
C40   C41   A    
C10   C14   A    
C10   C11   A    
O12   V3    S    
C9    C10   A    
O15   C55   A    
O7    V2    S    
