data_mof_unit_22520.cif
_audit_creation_date              2012-12-10T20:53:11-0500
_audit_creation_method            fapswitch 2.2
_symmetry_space_group_name_H-M    P1
_symmetry_Int_Tables_number       1
_space_group_crystal_system       triclinic
_cell_length_a                    18.35533
_cell_length_b                    18.356123
_cell_length_c                    18.355187
_cell_angle_alpha                 59.892946
_cell_angle_beta                  59.891739
_cell_angle_gamma                 59.892579
_cell_volume                      4362.40199438

loop_
_atom_site_label
_atom_site_type_symbol
_atom_type_description
_atom_site_fract_x
_atom_site_fract_y
_atom_site_fract_z
_atom_type_partial_charge
C1    C     C_R   0.389931 0.110218 0.110093 0.787101
C2    C     C_R   0.376969 0.806476 0.783864 -0.118818
C3    C     C_R   0.912427 0.557066 0.032989 0.039546
C4    C     C_R   0.442732 0.967124 0.087485 0.039560
C5    C     C_R   0.557286 0.032870 0.912522 0.039560
C6    C     C_R   0.946042 0.945900 0.553772 -0.123511
C7    C     C_R   0.053960 0.054098 0.446229 -0.123509
C8    C     C_R   0.945898 0.553774 0.946044 -0.123525
C9    C     C_R   0.054099 0.446225 0.053963 -0.123522
C10   C     C_R   0.553776 0.946034 0.945908 -0.123667
C11   C     C_R   0.446227 0.053968 0.054091 -0.123672
C12   C     C_R   0.193768 0.216962 0.622240 -0.118610
C13   C     C_R   0.806164 0.782956 0.377773 -0.118601
C14   C     C_R   0.175072 0.580719 0.283852 -0.114339
C15   C     C_R   0.824788 0.419484 0.716154 -0.114048
C16   C     C_R   0.581040 0.283579 0.174662 -0.114214
C17   C     C_R   0.418963 0.716374 0.825335 -0.114300
C18   C     C_R   0.283805 0.175349 0.580188 -0.113582
C19   C     C_R   0.716142 0.824594 0.419841 -0.113648
C20   C     C_R   0.086094 0.586037 0.314099 0.142606
C21   C     C_R   0.610070 0.889785 0.889904 0.787109
C22   C     C_R   0.913833 0.413978 0.685890 0.142690
C23   C     C_R   0.586147 0.314007 0.085728 0.142435
C24   C     C_R   0.413855 0.685988 0.914261 0.142429
C25   C     C_R   0.314120 0.086186 0.586034 0.142788
C26   C     C_R   0.685868 0.913757 0.413978 0.142818
C27   C     C_R   0.039157 0.633860 0.253582 -0.143030
C28   C     C_R   0.960818 0.365961 0.746385 -0.143277
C29   C     C_R   0.633734 0.253608 0.038682 -0.143082
C30   C     C_R   0.366273 0.746421 0.961270 -0.142990
C31   C     C_R   0.253681 0.039101 0.634397 -0.143668
C32   C     C_R   0.110206 0.110104 0.389931 0.787087
C33   C     C_R   0.746335 0.960814 0.365587 -0.143600
C34   C     C_R   0.080931 0.675874 0.163644 -0.117195
C35   C     C_R   0.919030 0.323933 0.836312 -0.117286
C36   C     C_R   0.675717 0.163608 0.080314 -0.116985
C37   C     C_R   0.324300 0.836413 0.919605 -0.116979
C38   C     C_R   0.163763 0.080904 0.676427 -0.117384
C39   C     C_R   0.836239 0.918983 0.323548 -0.117412
C40   C     C_R   0.169578 0.670360 0.133774 -0.113706
C41   C     C_R   0.830318 0.329635 0.866198 -0.113704
C42   C     C_R   0.670396 0.133555 0.168925 -0.113705
C43   C     C_R   0.889796 0.889894 0.610069 0.787082
C44   C     C_R   0.329625 0.866424 0.831000 -0.113721
C45   C     C_R   0.133823 0.169736 0.670370 -0.113690
C46   C     C_R   0.866136 0.830154 0.329614 -0.113701
C47   C     C_R   0.986984 0.591312 0.464405 -0.258557
C48   C     C_R   0.012983 0.408693 0.535592 -0.258568
C49   C     C_R   0.591349 0.464376 0.986854 -0.258454
C50   C     C_R   0.408646 0.535629 0.013169 -0.258374
C51   C     C_R   0.464401 0.986957 0.591324 -0.258281
C52   C     C_R   0.535599 0.013029 0.408678 -0.258290
C53   C     C_R   0.944518 0.552406 0.555133 -0.050565
C54   C     C_R   0.110107 0.389928 0.110206 0.787066
C55   C     C_R   0.055452 0.447598 0.444863 -0.050551
C56   C     C_R   0.552391 0.555146 0.944570 -0.050491
C57   C     C_R   0.447606 0.444856 0.055446 -0.050474
C58   C     C_R   0.555128 0.944487 0.552410 -0.050572
C59   C     C_R   0.444871 0.055501 0.447591 -0.050570
C60   C     C_R   0.957539 0.459831 0.591213 -0.012196
C61   C     C_R   0.042417 0.540177 0.408782 -0.012219
C62   C     C_R   0.459767 0.591262 0.957768 -0.012258
C63   C     C_R   0.540229 0.408741 0.042250 -0.012255
C64   C     C_R   0.591209 0.957527 0.459826 -0.012189
C65   C     C_R   0.889891 0.610072 0.889797 0.787063
C66   C     C_R   0.408788 0.042451 0.540178 -0.012184
C67   C     C_R   0.110839 0.390435 0.389743 0.789500
C68   C     C_R   0.889154 0.609566 0.610257 0.789472
C69   C     C_R   0.390439 0.389740 0.110830 0.789574
C70   C     C_R   0.609561 0.610261 0.889173 0.789559
C71   C     C_R   0.389744 0.110856 0.390435 0.789483
C72   C     C_R   0.610256 0.889140 0.609565 0.789490
C73   C     C_R   0.932139 0.175465 0.387864 -0.176040
C74   C     C_R   0.067862 0.824535 0.612140 -0.176038
C75   C     C_R   0.175545 0.388037 0.932063 -0.176132
C76   C     C_R   0.216651 0.622766 0.193801 -0.118727
C77   C     C_R   0.824461 0.611981 0.067935 -0.176148
C78   C     C_R   0.387620 0.932278 0.175373 -0.176066
C79   C     C_R   0.612437 0.067701 0.824653 -0.176141
C80   C     C_R   0.846451 0.207585 0.385153 0.224764
C81   C     C_R   0.153542 0.792423 0.614866 0.224777
C82   C     C_R   0.207708 0.385419 0.846331 0.224879
C83   C     C_R   0.792300 0.614608 0.153665 0.224883
C84   C     C_R   0.384754 0.846670 0.207440 0.224782
C85   C     C_R   0.615274 0.153320 0.792579 0.224736
C86   C     C_R   0.793162 0.153749 0.438194 -0.144476
C87   C     C_R   0.783195 0.377427 0.806196 -0.118654
C88   C     C_R   0.206824 0.846265 0.561838 -0.144481
C89   C     C_R   0.153854 0.438432 0.793054 -0.144424
C90   C     C_R   0.846146 0.561581 0.206948 -0.144449
C91   C     C_R   0.437765 0.793389 0.153594 -0.144773
C92   C     C_R   0.562190 0.206638 0.846391 -0.144736
C93   C     C_R   0.825216 0.067783 0.494146 -0.176936
C94   C     C_R   0.174774 0.932228 0.505880 -0.176958
C95   C     C_R   0.067840 0.494284 0.825159 -0.177126
C96   C     C_R   0.932154 0.505712 0.174853 -0.177172
C97   C     C_R   0.493852 0.825366 0.067682 -0.177212
C98   C     C_R   0.623045 0.193468 0.216099 -0.118819
C99   C     C_R   0.506087 0.174667 0.932291 -0.177123
C100  C     C_R   0.912736 0.032958 0.496921 0.079848
C101  C     C_R   0.087263 0.967044 0.503086 0.079844
C102  C     C_R   0.032988 0.496991 0.912706 0.079796
C103  C     C_R   0.967007 0.503005 0.087303 0.079798
C104  C     C_R   0.496781 0.912810 0.032907 0.079767
C105  C     C_R   0.503206 0.087202 0.967086 0.079755
C106  C     C_R   0.967050 0.087536 0.442859 0.039630
C107  C     C_R   0.032952 0.912463 0.557142 0.039625
C108  C     C_R   0.087572 0.442937 0.967017 0.039548
H1    H     H_    0.273704 0.821218 0.563193 0.161646
H2    H     H_    0.338039 0.563502 0.021908 0.176274
H3    H     H_    0.436559 0.978321 0.661904 0.176200
H4    H     H_    0.563440 0.021663 0.338098 0.176200
H5    H     H_    0.970193 0.220598 0.346913 0.150993
H6    H     H_    0.029811 0.779399 0.653084 0.150988
H7    H     H_    0.220684 0.347105 0.970114 0.150894
H8    H     H_    0.779329 0.652925 0.029877 0.150922
H9    H     H_    0.346694 0.970314 0.220521 0.151132
H10   H     H_    0.653413 0.029645 0.779520 0.151208
H11   H     H_    0.780106 0.029684 0.535531 0.148413
H12   H     H_    0.726274 0.178804 0.436858 0.161658
H13   H     H_    0.219875 0.970336 0.464512 0.148440
H14   H     H_    0.029725 0.535655 0.780060 0.148373
H15   H     H_    0.970264 0.464334 0.219955 0.148359
H16   H     H_    0.535221 0.780256 0.029586 0.148571
H17   H     H_    0.464672 0.219806 0.970358 0.148500
H18   H     H_    0.201752 0.702777 0.064083 0.131846
H19   H     H_    0.798136 0.297210 0.935883 0.131854
H20   H     H_    0.702773 0.063812 0.200993 0.131766
H21   H     H_    0.297259 0.936160 0.798905 0.131765
H22   H     H_    0.064141 0.201928 0.702781 0.131805
H23   H     H_    0.821062 0.562852 0.273866 0.161741
H24   H     H_    0.935805 0.797942 0.297186 0.131819
H25   H     H_    0.212130 0.543648 0.329819 0.119210
H26   H     H_    0.787693 0.456708 0.670208 0.119045
H27   H     H_    0.544139 0.329453 0.211809 0.119266
H28   H     H_    0.455857 0.670472 0.788219 0.119276
H29   H     H_    0.329706 0.212524 0.542696 0.118746
H30   H     H_    0.670218 0.787441 0.457353 0.118753
H31   H     H_    0.970722 0.637835 0.275917 0.119645
H32   H     H_    0.029301 0.361844 0.724040 0.119675
H33   H     H_    0.637527 0.276076 0.970288 0.119560
H34   H     H_    0.178940 0.437170 0.726136 0.161765
H35   H     H_    0.362483 0.723986 0.029657 0.119517
H36   H     H_    0.276052 0.970536 0.638763 0.119624
H37   H     H_    0.723996 0.029381 0.361204 0.119622
H38   H     H_    0.044674 0.712473 0.117062 0.139132
H39   H     H_    0.955327 0.287178 0.882874 0.139132
H40   H     H_    0.712125 0.117114 0.043976 0.139183
H41   H     H_    0.287898 0.882936 0.955911 0.139164
H42   H     H_    0.117245 0.044527 0.713446 0.139156
H43   H     H_    0.882779 0.955338 0.286507 0.139144
H44   H     H_    0.285408 0.618162 0.170558 0.126132
H45   H     H_    0.563596 0.273483 0.821363 0.161629
H46   H     H_    0.714387 0.382176 0.829454 0.126115
H47   H     H_    0.618577 0.170094 0.284831 0.126015
H48   H     H_    0.381442 0.829816 0.715136 0.126019
H49   H     H_    0.170469 0.285859 0.617222 0.126106
H50   H     H_    0.829431 0.714060 0.382795 0.126138
H51   H     H_    0.436310 0.726562 0.178607 0.161586
H52   H     H_    0.978370 0.661883 0.436564 0.176309
H53   H     H_    0.021599 0.338122 0.563431 0.176293
H54   H     H_    0.661955 0.436503 0.978115 0.176286
I1    I     I_    0.797294 0.338218 0.301237 -0.373914
I2    I     I_    0.202697 0.661796 0.698792 -0.373942
I3    I     I_    0.338442 0.301712 0.797082 -0.373670
I4    I     I_    0.661583 0.698356 0.202896 -0.373627
I5    I     I_    0.300657 0.797626 0.338014 -0.373922
I6    I     I_    0.699433 0.202331 0.662039 -0.373940
O1    O     O_3   0.250000 0.250000 0.250000 -0.489687
O2    O     O_R   0.865800 0.694910 0.573470 -0.638816
O3    O     O_R   0.305090 0.426530 0.134200 -0.638777
O4    O     O_R   0.694910 0.573470 0.865800 -0.638789
O5    O     O_R   0.426530 0.134200 0.305090 -0.638799
O6    O     O_R   0.573470 0.865800 0.694910 -0.638795
O7    O     O_R   0.134190 0.426530 0.134200 -0.639298
O8    O     O_R   0.865810 0.573470 0.865800 -0.639268
O9    O     O_R   0.426530 0.134200 0.134190 -0.639329
O10   O     O_R   0.573470 0.865800 0.865810 -0.639360
O11   O     O_R   0.134200 0.134190 0.426530 -0.639237
O12   O     O_3   0.750000 0.750000 0.750000 -0.489683
O13   O     O_R   0.865800 0.865810 0.573470 -0.639231
O14   O     O_R   0.426530 0.305080 0.134210 -0.635973
O15   O     O_R   0.573470 0.694920 0.865790 -0.635978
O16   O     O_R   0.305080 0.134210 0.426530 -0.635951
O17   O     O_R   0.694920 0.865790 0.573470 -0.635960
O18   O     O_R   0.134210 0.426530 0.305080 -0.635933
O19   O     O_R   0.865790 0.573470 0.694920 -0.635940
O20   O     O_R   0.305080 0.134200 0.134200 -0.633564
O21   O     O_R   0.694920 0.865800 0.865800 -0.633579
O22   O     O_R   0.134200 0.134200 0.305080 -0.633531
O23   O     O_R   0.865800 0.865800 0.694920 -0.633535
O24   O     O_R   0.134200 0.305080 0.134200 -0.633498
O25   O     O_R   0.865800 0.694920 0.865800 -0.633505
O26   O     O_R   0.134200 0.305090 0.426530 -0.638820
Zn1   Zn    Zn3+2 0.206620 0.206630 0.380140 0.971428
Zn2   Zn    Zn3+2 0.793380 0.793370 0.619860 0.971424
Zn3   Zn    Zn3+2 0.206630 0.380140 0.206620 0.971365
Zn4   Zn    Zn3+2 0.793370 0.619860 0.793380 0.971379
Zn5   Zn    Zn3+2 0.380140 0.206620 0.206630 0.971328
Zn6   Zn    Zn3+2 0.619860 0.793380 0.793370 0.971309
Zn7   Zn    Zn3+2 0.206620 0.206620 0.206620 0.978465
Zn8   Zn    Zn3+2 0.793380 0.793380 0.793380 0.978461

loop_
_geom_bond_atom_site_label_1
_geom_bond_atom_site_label_2
_ccdc_geom_bond_type
C25   C31   A    
C48   C55   A    
O2    Zn2   S    
C101  C107  A    
C49   C63   A    
O5    Zn5   S    
C41   H19   S    
C36   C42   A    
C1    C11   S    
C75   C82   A    
C58   C72   S    
O1    Zn1   S    
C15   H26   S    
O11   Zn1   S    
C9    C108  A    
C29   C36   A    
C33   C39   A    
C82   C89   A    
C54   O24   A    
C34   C40   A    
C23   C29   A    
O1    Zn3   S    
C86   C93   A    
C97   H16   S    
O12   Zn8   S    
C42   C98   A    
C59   C66   A    
C22   C60   S    
C13   C46   A    
C76   H44   S    
C89   H34   S    
C74   H6    S    
C79   H10   S    
C39   H43   S    
O20   Zn7   S    
C50   H2    S    
C73   H5    S    
C69   O3    A    
C20   C61   S    
O13   Zn2   S    
C19   C26   A    
C70   O4    A    
O7    Zn3   S    
C38   C45   A    
C80   C86   A    
C74   C107  A    
C25   C66   S    
C1    O9    A    
C36   H40   S    
C15   C22   A    
C94   C101  A    
C2    C44   A    
C28   H32   S    
C11   C105  A    
C24   C62   S    
O24   Zn7   S    
O18   Zn3   S    
O4    Zn4   S    
C92   H45   S    
O23   Zn8   S    
C72   O6    A    
C12   H49   S    
C5    C79   A    
C77   H8    S    
C91   H51   S    
O12   Zn2   S    
C67   O18   A    
C42   H20   S    
C69   O14   A    
O1    Zn5   S    
C2    H48   S    
C23   C63   S    
O26   Zn1   S    
C6    C107  A    
C29   H33   S    
C8    C65   S    
C27   C34   A    
C22   C28   A    
C71   O5    A    
C2    C17   A    
C85   I6    S    
C31   H36   S    
C18   C25   A    
C68   O2    A    
C41   C87   A    
C53   C68   S    
C85   C92   A    
C48   C60   A    
C65   O25   A    
C47   H52   S    
C10   C21   S    
C58   C64   A    
C99   C105  A    
C83   I4    S    
C88   C94   A    
C87   H46   S    
C17   C24   A    
C13   C19   A    
O19   Zn4   S    
C97   C104  A    
C14   C20   A    
C77   C83   A    
C78   H9    S    
C28   C35   A    
C99   H17   S    
C3    C8    A    
C52   C64   A    
C37   H41   S    
C5    C105  A    
C48   H53   S    
C44   H21   S    
C43   O13   A    
O16   Zn1   S    
C27   H31   S    
O25   Zn8   S    
C40   C76   A    
C30   C37   A    
C51   C66   A    
C6    C100  A    
C54   O7    A    
C89   C95   A    
C18   H29   S    
C80   I1    S    
C4    C78   A    
O12   Zn6   S    
C52   C59   A    
C14   H25   S    
C26   C33   A    
C21   O21   A    
C9    C103  A    
C40   H18   S    
C17   H28   S    
C53   C60   A    
C7    C106  A    
C32   O22   A    
C32   O11   A    
C51   C58   A    
C35   H39   S    
C91   C97   A    
C4    C11   A    
C102  C108  A    
C93   C100  A    
C49   H54   S    
C33   H37   S    
C39   C46   A    
C90   H23   S    
C95   H14   S    
C21   O10   A    
C84   C91   A    
C16   C23   A    
C56   C70   S    
C6    C43   S    
C65   O8    A    
O9    Zn5   S    
C50   C62   A    
C81   I2    S    
C56   C62   A    
C75   H7    S    
C88   H1    S    
C74   C81   A    
C67   O26   A    
C13   H50   S    
C79   C85   A    
C15   C87   A    
C75   C108  A    
C1    O20   A    
C3    C103  A    
C83   C90   A    
O10   Zn6   S    
C98   H47   S    
C51   H3    S    
C7    C32   S    
C96   H15   S    
C14   C76   A    
C50   C57   A    
C100  C106  A    
C71   O16   A    
O14   Zn5   S    
C57   C63   A    
O8    Zn4   S    
C12   C45   A    
C47   C61   A    
C55   C67   S    
C95   C102  A    
O22   Zn7   S    
C90   C96   A    
C20   C27   A    
C26   C64   S    
O21   Zn8   S    
C49   C56   A    
C93   H11   S    
O6    Zn6   S    
O15   Zn6   S    
C31   C38   A    
C47   C53   A    
C37   C44   A    
C10   C104  A    
C5    C10   A    
O3    Zn3   S    
C84   I5    S    
C46   H24   S    
C34   H38   S    
C16   C98   A    
C73   C106  A    
C19   H30   S    
C55   C61   A    
C73   C80   A    
C4    C104  A    
C35   C41   A    
C24   C30   A    
C72   O17   A    
C81   C88   A    
O12   Zn4   S    
C30   H35   S    
O1    Zn7   S    
C68   O19   A    
C94   H13   S    
C78   C84   A    
C70   O15   A    
C45   H22   S    
C43   O23   A    
C7    C101  A    
C96   C103  A    
C12   C18   A    
C52   H4    S    
C86   H12   S    
C9    C54   S    
O17   Zn2   S    
C57   C69   S    
C16   H27   S    
C8    C102  A    
C38   H42   S    
C92   C99   A    
C59   C71   S    
C82   I3    S    
C3    C77   A    
