data_mof_unit_60079.cif
_audit_creation_date              2012-12-11T17:26:20-0500
_audit_creation_method            fapswitch 2.2
_symmetry_space_group_name_H-M    P1
_symmetry_Int_Tables_number       1
_space_group_crystal_system       triclinic
_cell_length_a                    6.949013
_cell_length_b                    18.958201
_cell_length_c                    20.733741
_cell_angle_alpha                 107.580488
_cell_angle_beta                  90.274807
_cell_angle_gamma                 90.525482
_cell_volume                      2603.71017374

loop_
_atom_site_label
_atom_site_type_symbol
_atom_type_description
_atom_site_fract_x
_atom_site_fract_y
_atom_site_fract_z
_atom_type_partial_charge
O1    O     O_R   0.505770 0.444240 0.557370 -0.534220
O2    O     O_R   0.169820 0.415250 0.421330 -0.534969
O3    O     O_R   0.005590 0.555760 0.442630 -0.534599
C1    C     C_R   0.338702 0.393630 0.395295 0.720064
O4    O     O_R   0.175660 0.435500 0.555540 -0.537350
O5    O     O_R   0.011460 0.576150 0.577800 -0.532914
C2    C     C_R   0.344522 0.421153 0.575649 0.727002
O6    O     O_R   0.499890 0.423850 0.422200 -0.532997
O7    O     O_3   0.341200 0.546120 0.507150 -0.366439
V1    V     V_3+5 0.063980 0.491440 0.498670 1.432116
O8    O     O_R   0.682100 0.584750 0.578670 -0.536245
C3    C     C_R   0.852048 0.606236 0.604598 0.721535
O9    O     O_R   0.676270 0.564500 0.444460 -0.536843
C4    C     C_R   0.845076 0.578841 0.424375 0.726661
V2    V     V_3+5 0.564720 0.508560 0.501330 1.433243
O10   O     O_3   0.837360 0.453880 0.492850 -0.366556
H1    H     H_    0.153849 0.660768 0.254165 0.132893
C5    C     C_R   0.057867 0.741385 0.206877 0.213787
C6    C     C_R   0.910299 0.791727 0.203926 0.100301
C7    C     C_R   0.750653 0.798206 0.246614 -0.196668
H2    H     H_    0.636772 0.836441 0.245369 0.125465
C8    C     C_R   0.735762 0.755655 0.291304 -0.158988
H3    H     H_    0.610763 0.761657 0.323466 0.125475
C9    C     C_R   0.880856 0.705910 0.294460 0.086160
C10   C     C_R   0.040985 0.699161 0.252153 -0.149676
C11   C     C_1   0.919314 0.837305 0.158380 -0.055599
C12   C     C_1   0.866047 0.661652 0.340821 -0.040213
C13   C     C_1   0.855465 0.624248 0.379162 -0.186308
C14   C     C_1   0.927280 0.875354 0.120542 -0.188103
C15   C     C_1   0.916311 0.831608 0.833096 -0.193089
C16   C     C_1   0.900958 0.780168 0.780826 0.008784
C17   C     C_1   0.881460 0.719782 0.719205 0.008409
C18   C     C_1   0.866111 0.668344 0.666932 -0.194132
C19   C     C_1   0.352920 0.331294 0.332776 -0.194695
C20   C     C_1   0.375695 0.280066 0.280660 0.009152
C21   C     C_1   0.406771 0.220015 0.219284 0.009010
C22   C     C_1   0.429542 0.168780 0.167174 -0.194832
H4    H     H_    0.688971 0.294395 0.708180 0.112723
C23   C     C_R   0.571821 0.232385 0.770755 -0.151560
H5    H     H_    0.712526 0.219175 0.786326 0.111988
C24   C     C_R   0.404924 0.206840 0.794959 0.135617
C25   C     C_R   0.224412 0.224809 0.773824 -0.150994
H6    H     H_    0.093820 0.205655 0.791803 0.112680
C26   C     C_R   0.210971 0.267665 0.729228 -0.151730
H7    H     H_    0.070265 0.280874 0.713658 0.111834
C27   C     C_R   0.377867 0.293210 0.705025 0.135575
C28   C     C_R   0.558380 0.275242 0.726160 -0.151098
C29   C     C_1   0.418537 0.162115 0.841006 -0.054567
C30   C     C_1   0.364243 0.337933 0.658976 -0.054809
C31   C     C_1   0.354186 0.375570 0.620791 -0.185755
C32   C     C_1   0.428551 0.124474 0.879189 -0.185252
O11   O     O_R   0.282550 0.076220 0.077760 -0.533274
O12   O     O_R   0.606940 0.064510 0.944450 -0.537259
O13   O     O_R   0.770980 0.923830 0.922210 -0.532901
C33   C     C_R   0.438118 0.078885 0.924328 0.727309
O14   O     O_R   0.612630 0.084760 0.078660 -0.534995
O15   O     O_R   0.776710 0.944230 0.057380 -0.534215
C34   C     C_R   0.443748 0.106423 0.104670 0.719435
O16   O     O_R   0.276820 0.055820 0.942590 -0.534410
O17   O     O_3   0.441200 0.953910 0.992830 -0.366083
V3    V     V_3+5 0.718480 0.008550 0.001330 1.433249
O18   O     O_R   0.106020 0.935440 0.055580 -0.538018
C35   C     C_R   0.937211 0.921127 0.075651 0.728529
O19   O     O_R   0.100330 0.915180 0.921370 -0.536091
C36   C     C_R   0.930383 0.893719 0.895428 0.722364
V4    V     V_3+5 0.217720 0.991360 0.998720 1.433260
O20   O     O_3   0.945130 0.046090 0.007170 -0.366458
N1    N     N_3   0.225461 0.731022 0.164742 -0.660879
H8    H     H_    0.344396 0.750534 0.196349 0.224053
H9    H     H_    0.219720 0.762119 0.130981 0.237108

loop_
_geom_bond_atom_site_label_1
_geom_bond_atom_site_label_2
_ccdc_geom_bond_type
O5    V1    S    
O2    C1    A    
O8    C3    A    
C14   C35   S    
O15   V3    S    
O18   C35   A    
O1    V2    S    
O13   V3    S    
C33   O16   A    
O4    C2    A    
C24   C25   A    
V3    O20   S    
C16   C17   S    
C22   C34   S    
C9    C12   S    
C7    C8    A    
C1    O6    A    
H1    C10   S    
O19   C36   A    
O8    V2    S    
O12   C33   A    
V4    O20   S    
O7    V2    S    
O17   V4    S    
O4    V1    S    
C23   C24   A    
O3    V1    S    
V1    O10   S    
O9    C4    A    
C7    H2    S    
O3    C4    A    
C27   C30   S    
H4    C28   S    
C5    C10   A    
C25   C26   A    
C8    C9    A    
N1    H9    S    
C21   C22   T    
C24   C29   S    
O14   C34   A    
C19   C20   T    
O6    V2    S    
C32   C33   S    
O9    V2    S    
O16   V4    S    
O5    C3    A    
C15   C16   T    
O11   C34   A    
C30   C31   T    
C1    C19   S    
C29   C32   T    
C15   C36   S    
C25   H6    S    
O18   V4    S    
C5    N1    S    
V2    O10   S    
O2    V1    S    
C12   C13   T    
O11   V4    S    
C9    C10   A    
C2    C31   S    
C11   C14   T    
C23   C28   A    
C5    C6    A    
O7    V1    S    
C23   H5    S    
O13   C36   A    
C6    C11   S    
O14   V3    S    
O17   V3    S    
O1    C2    A    
O15   C35   A    
C4    C13   S    
C3    C18   S    
C27   C28   A    
O12   V3    S    
C8    H3    S    
C26   H7    S    
C6    C7    A    
C17   C18   T    
C26   C27   A    
N1    H8    S    
C20   C21   S    
O19   V4    S    
