data_mof_unit_39186.cif
_audit_creation_date              2012-12-10T20:31:57-0500
_audit_creation_method            fapswitch 2.2
_symmetry_space_group_name_H-M    P1
_symmetry_Int_Tables_number       1
_space_group_crystal_system       triclinic
_cell_length_a                    9.869227
_cell_length_b                    10.686786
_cell_length_c                    15.380444
_cell_angle_alpha                 90.043862
_cell_angle_beta                  67.200714
_cell_angle_gamma                 89.582037
_cell_volume                      1495.38493686

loop_
_atom_site_label
_atom_site_type_symbol
_atom_type_description
_atom_site_fract_x
_atom_site_fract_y
_atom_site_fract_z
_atom_type_partial_charge
C1    C     C_R   0.499742 0.739808 0.499733 0.948454
C2    C     C_R   0.381775 0.548824 0.924602 0.106235
C3    C     C_R   0.245952 0.491026 0.978573 0.074164
C4    C     C_R   0.475442 0.591542 0.969192 0.067069
C5    C     C_R   0.450638 0.544648 0.059926 0.050740
C6    C     C_R   0.311179 0.495140 0.114497 -0.211099
C7    C     C_R   0.208751 0.473343 0.075294 -0.219032
C8    C     C_R   0.594319 0.676230 0.927015 -0.055146
C9    C     C_R   0.703419 0.686854 0.963643 -0.332525
C10   C     C_R   0.690001 0.625238 0.046408 0.179053
C11   C     C_R   0.563462 0.553308 0.094765 0.097578
C12   C     C_R   0.406676 0.499363 0.677077 0.922818
C13   C     C_R   0.796188 0.641842 0.085484 -0.182185
C14   C     C_R   0.773041 0.592785 0.174348 -0.206801
C15   C     C_R   0.552672 0.492619 0.177499 -0.221252
C16   C     C_R   0.369157 0.938373 0.533089 0.104992
C17   C     C_R   0.501163 0.871774 0.495278 -0.044174
C18   C     C_R   0.634045 0.933940 0.447568 -0.227297
C19   C     C_R   0.635222 0.063458 0.446779 -0.206826
C20   C     C_R   0.503228 0.128704 0.492937 -0.078183
C21   C     C_R   0.370569 0.065926 0.530174 0.084430
C22   C     C_3   0.249342 0.080519 0.624939 -0.482184
C23   C     C_R   0.501068 0.260334 0.498843 0.879227
C24   C     C_3   0.246145 0.938509 0.629675 -0.268999
C25   C     C_R   0.884623 0.554225 0.572336 0.235202
C26   C     C_R   0.969015 0.436806 0.432918 -0.142620
C27   C     C_R   0.112931 0.436665 0.432970 -0.113981
C28   C     C_R   0.027055 0.553974 0.572492 0.200763
C29   C     C_3   0.014059 0.688165 0.600432 -0.557503
C30   C     C_3   0.860449 0.688270 0.600417 -0.470624
C31   C     C_R   0.592236 0.500865 0.323327 0.852063
C32   C     C_R   0.342100 0.501480 0.781113 -0.167287
C33   C     C_R   0.647740 0.521237 0.221652 -0.055424
C34   C     C_R   0.153523 0.447235 0.934275 -0.040713
C35   C     C_R   0.200131 0.454356 0.835291 -0.073113
C36   C     C_R   0.429690 0.547474 0.826406 -0.143019
H1    H     H_    0.104019 0.434584 0.120431 0.150344
H2    H     H_    0.892477 0.698446 0.049891 0.144817
H3    H     H_    0.736465 0.882857 0.413720 0.157086
H4    H     H_    0.738346 0.112077 0.412953 0.160798
H5    H     H_    0.286243 0.127516 0.676516 0.217827
H6    H     H_    0.148944 0.122147 0.620092 0.220089
H7    H     H_    0.141821 0.901796 0.629465 0.140867
H8    H     H_    0.948347 0.387833 0.377756 0.140756
H9    H     H_    0.200616 0.387297 0.377868 0.141556
H10   H     H_    0.015381 0.701207 0.671820 0.187151
H11   H     H_    0.464981 0.427924 0.212556 0.138011
H12   H     H_    0.091627 0.747240 0.543770 0.225479
H13   H     H_    0.772526 0.700242 0.671481 0.198359
H14   H     H_    0.849066 0.748726 0.544787 0.224645
H15   H     H_    0.848080 0.616072 0.207802 0.154007
H16   H     H_    0.794917 0.749667 0.930643 0.141188
H17   H     H_    0.540138 0.576793 0.783692 0.158763
H18   H     H_    0.276724 0.475195 0.188714 0.140457
N1    N     N_R   0.856900 0.500860 0.500610 -0.106943
N2    N     N_R   0.142540 0.500820 0.500610 -0.101895
O1    O     O_R   0.385310 0.683210 0.499990 -0.623313
O2    O     O_R   0.614650 0.683240 0.500000 -0.613928
O3    O     O_R   0.319830 0.499970 0.632240 -0.628382
O4    O     O_R   0.549170 0.500000 0.632250 -0.601317
O5    O     O_R   0.385350 0.316760 0.500000 -0.613550
O6    O     O_R   0.614690 0.316790 0.500010 -0.616194
O7    O     O_R   0.450830 0.500000 0.367750 -0.616127
O8    O     O_R   0.680170 0.500030 0.367760 -0.622616
Zn1   Zn    Zn3+2 0.346870 0.499980 0.499990 0.947831
Zn2   Zn    Zn3+2 0.653130 0.500020 0.500010 0.954135
C37   C     C_2   0.281190 0.888797 0.710512 0.469306
H19   H     H_    0.205831 0.908774 0.782226 0.088951
O9    O     O_2   0.390878 0.825671 0.697413 -0.546850
C38   C     C_1   0.013163 0.390315 0.989514 0.229997
N3    N     N_1   0.901677 0.344295 0.033238 -0.180833
C39   C     C_2   0.102284 0.407645 0.789551 0.402874
H20   H     H_    0.071268 0.468188 0.743712 0.081746
O10   O     O_2   0.054850 0.301153 0.803462 -0.578117
C40   C     C_2   0.595443 0.772616 0.857488 0.389362
H21   H     H_    0.697583 0.817970 0.814625 0.061501
O11   O     O_2   0.481421 0.808627 0.851980 -0.520639

loop_
_geom_bond_atom_site_label_1
_geom_bond_atom_site_label_2
_ccdc_geom_bond_type
O7    Zn1   S    
C16   C21   A    
C19   C20   A    
C15   H11   S    
C4    C8    A    
C26   N1    A    
C14   C33   A    
C28   N2    A    
C26   H8    S    
C25   C28   A    
C26   C27   A    
C32   C36   A    
C28   C29   S    
C5    C11   A    
C3    C7    A    
C5    C6    A    
C22   H5    S    
C16   C17   A    
N2    Zn1   S    
C18   C19   A    
C34   C35   A    
C18   H3    S    
C36   H17   S    
C24   C37   S    
C12   O3    A    
C11   C15   A    
O2    Zn2   S    
C23   O6    A    
C8    C9    A    
C31   C33   S    
C38   N3    T    
C9    C10   A    
C34   C38   S    
C27   H9    S    
C30   H14   S    
O4    Zn2   S    
C16   C24   S    
C21   C22   S    
C12   C32   S    
C9    H16   S    
C6    H18   S    
O6    Zn2   S    
C29   H12   S    
C37   H19   S    
C32   C35   A    
C31   O7    A    
C39   O10   D    
C19   H4    S    
C27   N2    A    
C39   H20   S    
C3    C34   A    
C8    C40   S    
C37   O9    D    
O8    Zn2   S    
C2    C4    A    
C40   H21   S    
C29   C30   S    
C1    O1    A    
C14   H15   S    
C20   C23   S    
C17   C18   A    
C7    H1    S    
C40   O11   D    
C13   H2    S    
C30   H13   S    
C35   C39   S    
C22   C24   S    
N1    Zn2   S    
C2    C36   A    
C25   C30   S    
C31   O8    A    
C25   N1    A    
O1    Zn1   S    
C4    C5    A    
C10   C13   A    
C6    C7    A    
C1    C17   S    
C29   H10   S    
C2    C3    A    
C1    O2    A    
O3    Zn1   S    
C22   H6    S    
C10   C11   A    
C12   O4    A    
O5    Zn1   S    
C23   O5    A    
C20   C21   A    
C24   H7    S    
C13   C14   A    
C15   C33   A    
