data_mof_unit_59266.cif
_audit_creation_date              2013-03-05T16:04:06-0500
_audit_creation_method            fapswitch 2.2
_symmetry_space_group_name_H-M    P1
_symmetry_Int_Tables_number       1
_space_group_crystal_system       triclinic
_cell_length_a                    11.094177
_cell_length_b                    9.612316
_cell_length_c                    10.911237
_cell_angle_alpha                 88.559783
_cell_angle_beta                  92.40545
_cell_angle_gamma                 90.092263
_cell_volume                      1162.18959657

loop_
_atom_site_label
_atom_site_type_symbol
_atom_site_description
_atom_site_fract_x
_atom_site_fract_y
_atom_site_fract_z
_atom_type_partial_charge
O1    O     O_R   0.319640 0.618740 0.499990 -0.512402
O2    O     O_R   0.680360 0.618740 0.500010 -0.519904
O3    O     O_R   0.319620 0.381170 0.499990 -0.605411
O4    O     O_R   0.680380 0.381170 0.500010 -0.600758
C1    C     C_R   0.262172 0.500021 0.501417 0.840858
C2    C     C_R   0.737439 0.498926 0.494928 0.846824
O5    O     O_R   0.500000 0.618810 0.319650 -0.556109
O6    O     O_R   0.500000 0.618810 0.680350 -0.555299
O7    O     O_R   0.499970 0.381240 0.319640 -0.602525
O8    O     O_R   0.500030 0.381240 0.680360 -0.592155
C3    C     C_R   0.506776 0.502908 0.262006 0.812252
C4    C     C_R   0.488575 0.498696 0.736696 0.808987
Cu1   Cu    Cu3+1 0.500000 0.640660 0.500000 1.101703
Cu2   Cu    Cu3+1 0.500000 0.359340 0.500000 0.994796
H1    H     H_    0.505058 0.283538 0.118617 0.185133
H2    H     H_    0.498723 0.277001 0.895984 0.183739
C5    C     C_R   0.546013 0.771481 0.084139 -0.030880
C6    C     C_R   0.396316 0.739350 0.875636 -0.040119
C7    C     C_R   0.521609 0.885820 0.002916 0.015507
C8    C     C_R   0.432576 0.873067 0.909136 0.006614
C9    C     C_R   0.455562 0.623277 0.931770 0.047327
C10   C     C_R   0.504040 0.635314 0.052523 0.058693
C11   C     C_R   0.510172 0.509138 0.126387 -0.101343
C12   C     C_R   0.472301 0.497774 0.870344 -0.107608
C13   C     C_R   0.501532 0.380980 0.066876 -0.141432
C14   C     C_R   0.491965 0.375955 0.939821 -0.138127
C15   C     C_R   0.064222 0.374296 0.526632 -0.113650
C16   C     C_R   0.937840 0.370249 0.513355 -0.110839
C17   C     C_R   0.871385 0.494137 0.488558 -0.236432
C18   C     C_R   0.127739 0.499593 0.501685 -0.238537
C19   C     C_R   0.934231 0.613939 0.453179 0.296092
C20   C     C_R   0.060176 0.620223 0.464843 0.282281
C21   C     C_R   0.425833 0.078685 0.420548 -0.043678
C22   C     C_R   0.571277 0.071707 0.582657 -0.040748
C23   C     C_R   0.430533 0.930890 0.413552 0.363677
C24   C     C_R   0.573261 0.923319 0.581437 0.356954
N1    N     N_R   0.500000 0.852070 0.500000 -0.277601
N2    N     N_R   0.500000 0.147940 0.500000 -0.254396
C25   C     C_1   0.613174 0.804660 0.194839 0.379051
N3    N     N_1   0.661722 0.840730 0.284024 -0.159958
C26   C     C_1   0.289637 0.718387 0.797742 0.295326
N4    N     N_1   0.202702 0.700155 0.738239 -0.205695
C27   C     C_1   0.591443 0.012965 0.014381 0.270671
N5    N     N_1   0.650906 0.111305 0.024046 -0.247476
C28   C     C_1   0.384534 0.995011 0.844203 0.250154
N6    N     N_1   0.346366 0.093013 0.792809 -0.255298
C29   C     C_1   0.125987 0.246108 0.564357 0.357263
N7    N     N_1   0.173489 0.142787 0.593561 -0.183052
C30   C     C_1   0.881089 0.234559 0.506750 0.365605
N8    N     N_1   0.838423 0.125219 0.498733 -0.165318
N9    N     N_R   0.873990 0.716326 0.376830 0.151442
O9    O     O_R   0.857854 0.688016 0.261264 -0.348854
O10   O     O_R   0.877182 0.845819 0.408665 -0.239419
N10   N     N_R   0.116748 0.748565 0.429269 0.180351
O11   O     O_R   0.157674 0.831491 0.513636 -0.312569
O12   O     O_R   0.095797 0.799810 0.318753 -0.221574
C31   C     C_1   0.339253 0.157315 0.344448 0.478535
N11   N     N_1   0.269449 0.219042 0.282854 -0.236796
C32   C     C_1   0.644282 0.141924 0.674393 0.408847
N12   N     N_1   0.703523 0.197275 0.748222 -0.244634
N13   N     N_R   0.374167 0.871216 0.304671 0.125450
O13   O     O_R   0.367887 0.942430 0.201638 -0.420932
O14   O     O_R   0.318245 0.753590 0.307026 -0.269783
N14   N     N_R   0.661667 0.849717 0.657366 0.144204
O15   O     O_R   0.772801 0.848929 0.624567 -0.288940
O16   O     O_R   0.641485 0.824219 0.771925 -0.388087

loop_
_geom_bond_atom_site_label_1
_geom_bond_atom_site_label_2
_geom_bond_distance
_ccdc_geom_bond_type
N10   O11   1.299838 A    
C18   C20   1.421975 A    
O7    Cu2   1.973896 S    
O6    Cu1   1.973762 S    
C19   N9    1.422479 S    
Cu2   N2    2.032044 S    
C6    C9    1.409341 A    
C16   C30   1.449502 S    
C4    C12   1.476708 S    
Cu1   N1    2.032140 S    
C5    C10   1.433963 A    
O6    C4    1.302868 A    
C27   N5    1.156300 T    
C15   C16   1.404090 A    
N14   O15   1.298262 A    
C7    C8    1.399571 A    
C22   C32   1.441390 S    
C32   N12   1.157559 T    
C17   C19   1.399615 A    
C22   N2    1.372754 A    
C28   N6    1.155840 T    
C15   C18   1.420597 A    
O5    C3    1.296884 A    
O7    C3    1.317440 A    
N14   O16   1.296368 A    
C31   N11   1.158103 T    
O2    C2    1.318698 A    
O3    Cu2   2.012470 S    
O8    C4    1.307902 A    
O1    C1    1.306360 A    
C9    C10   1.409466 A    
C16   C17   1.415891 A    
C23   N1    1.400939 A    
C12   C14   1.391315 A    
C1    C18   1.491552 S    
C22   C24   1.426957 A    
C11   C13   1.408189 A    
O4    Cu2   2.011797 S    
N13   O13   1.300834 A    
N10   O12   1.302977 A    
C6    C26   1.444669 S    
O4    C2    1.297109 A    
O1    Cu1   2.011667 S    
N9    O10   1.300693 A    
C15   C29   1.452856 S    
N9    O9    1.301647 A    
C25   N3    1.153093 T    
C29   N7    1.156419 T    
C8    C28   1.445198 S    
C24   N14   1.432979 S    
O5    Cu1   1.984261 S    
C2    C17   1.491402 S    
C6    C8    1.398973 A    
C23   N13   1.449903 S    
C30   N8    1.155800 T    
C26   N4    1.155449 T    
C9    C12   1.410979 A    
C20   N10   1.435406 S    
C3    C11   1.481528 S    
N13   O14   1.289022 A    
O2    Cu1   2.012341 S    
C5    C25   1.434887 S    
C10   C11   1.439344 A    
C24   N1    1.373822 A    
C21   C31   1.444717 S    
H1    C13   1.081320 S    
C5    C7    1.413690 A    
C21   C23   1.425772 A    
C13   C14   1.387985 A    
Cu1   Cu2   2.704137 S    
C19   C20   1.399060 A    
C21   N2    1.356135 A    
O8    Cu2   1.984417 S    
O3    C1    1.309833 A    
H2    C14   1.079471 S    
C7    C27   1.451224 S    
