data_mof_unit_24398.cif
_audit_creation_date              2012-12-11T15:15:41-0500
_audit_creation_method            fapswitch 2.2
_symmetry_space_group_name_H-M    P1
_symmetry_Int_Tables_number       1
_space_group_crystal_system       triclinic
_cell_length_a                    20.651961
_cell_length_b                    22.894911
_cell_length_c                    6.9336
_cell_angle_alpha                 90.020711
_cell_angle_beta                  87.032642
_cell_angle_gamma                 89.92623
_cell_volume                      3273.9793963

loop_
_atom_site_label
_atom_site_type_symbol
_atom_type_description
_atom_site_fract_x
_atom_site_fract_y
_atom_site_fract_z
_atom_type_partial_charge
O1    O     O_R   0.387100 0.552640 0.378490 -0.530344
O2    O     O_R   0.612900 0.052640 0.621510 -0.535281
O3    O     O_R   0.249610 0.559600 0.072250 -0.548417
O4    O     O_R   0.750390 0.059600 0.927750 -0.532408
O5    O     O_R   0.249120 0.447360 0.902040 -0.545913
O6    O     O_R   0.750880 0.947360 0.097960 -0.546449
C1    C     C_R   0.226593 0.573008 0.244211 0.705613
C2    C     C_R   0.773243 0.073183 0.755664 0.704429
O7    O     O_R   0.386610 0.559560 0.048860 -0.536923
O8    O     O_R   0.613390 0.059560 0.951140 -0.530330
O9    O     O_R   0.387100 0.447320 0.878470 -0.538739
O10   O     O_R   0.612900 0.947320 0.121530 -0.539503
C3    C     C_R   0.404830 0.577453 0.215833 0.697986
C4    C     C_R   0.594482 0.076951 0.784523 0.699892
O11   O     O_R   0.249120 0.552680 0.402050 -0.530358
O12   O     O_R   0.750880 0.052680 0.597950 -0.546698
O13   O     O_3   0.318110 0.463180 0.223790 -0.375542
O14   O     O_3   0.681890 0.963180 0.776210 -0.375795
V1    V     V_3+5 0.318110 0.506830 0.948930 1.448779
V2    V     V_3+5 0.681890 0.006830 0.051070 1.462391
O15   O     O_R   0.386610 0.440400 0.548840 -0.540731
O16   O     O_R   0.613390 0.940400 0.451160 -0.540942
C5    C     C_R   0.407714 0.425317 0.714899 0.690834
C6    C     C_R   0.592457 0.925329 0.285513 0.692065
O17   O     O_R   0.249610 0.440440 0.572240 -0.550021
O18   O     O_R   0.750390 0.940440 0.427760 -0.549280
C7    C     C_R   0.226706 0.427074 0.744230 0.685690
C8    C     C_R   0.773288 0.927075 0.255722 0.685893
V3    V     V_3+5 0.318110 0.493170 0.448930 1.448772
V4    V     V_3+5 0.681890 0.993170 0.551070 1.432623
O19   O     O_3   0.318110 0.536820 0.723940 -0.351187
O20   O     O_3   0.681890 0.036820 0.276060 -0.355287
C9    C     C_R   0.171175 0.386450 0.760378 -0.054219
C10   C     C_R   0.828873 0.886492 0.239341 -0.053375
C11   C     C_R   0.130295 0.380225 0.605868 -0.217222
C12   C     C_R   0.869758 0.880240 0.393814 -0.216909
C13   C     C_R   0.075787 0.343896 0.622017 -0.002505
C14   C     C_R   0.924377 0.843978 0.377257 -0.002966
C15   C     C_R   0.062858 0.311390 0.793305 0.115908
C16   C     C_R   0.937397 0.811650 0.205590 0.116429
C17   C     C_R   0.103568 0.318170 0.947546 -0.123253
C18   C     C_R   0.896693 0.818435 0.051404 -0.123105
C19   C     C_R   0.156995 0.355456 0.931895 -0.176596
C20   C     C_R   0.843128 0.855626 0.067487 -0.178444
C21   C     C_R   0.906627 0.176645 0.891257 -0.125223
C22   C     C_R   0.094307 0.677545 0.107663 -0.119714
C23   C     C_R   0.854200 0.138195 0.905882 -0.152368
C24   C     C_R   0.146881 0.639183 0.093604 -0.174839
C25   C     C_R   0.855097 0.131501 0.557257 -0.166600
C26   C     C_R   0.143065 0.629788 0.441894 -0.146481
C27   C     C_R   0.907634 0.169905 0.542712 -0.132049
C28   C     C_R   0.090479 0.668227 0.455900 -0.139680
C29   C     C_R   0.933685 0.193201 0.709070 0.164630
C30   C     C_R   0.065822 0.692820 0.289460 0.165598
C31   C     C_2   0.006314 0.271901 0.821286 -0.192899
C32   C     C_2   0.993958 0.772193 0.177634 -0.193957
C33   C     C_2   0.990018 0.233202 0.686032 -0.186468
C34   C     C_2   0.009506 0.732914 0.311870 -0.186320
C35   C     C_R   0.827781 0.115147 0.739170 -0.048785
C36   C     C_R   0.171907 0.614851 0.260440 -0.046384
H1    H     H_    0.139570 0.405253 0.474546 0.126949
H2    H     H_    0.860387 0.905173 0.525390 0.127318
H3    H     H_    0.834868 0.126080 0.048394 0.135465
H4    H     H_    0.167464 0.628200 0.951353 0.132390
H5    H     H_    0.836222 0.114378 0.425869 0.128424
H6    H     H_    0.160784 0.611538 0.573271 0.133043
H7    H     H_    0.018633 0.231311 0.550212 0.132460
H8    H     H_    0.980239 0.730662 0.446476 0.132467
H9    H     H_    0.094144 0.294148 0.080611 0.124477
H10   H     H_    0.906204 0.794468 0.918174 0.124919
H11   H     H_    0.926441 0.192028 0.023237 0.101955
H12   H     H_    0.075603 0.693912 0.975355 0.102919
H13   H     H_    0.187449 0.359719 0.053697 0.125041
H14   H     H_    0.812636 0.859925 0.945766 0.124714
H15   H     H_    0.979568 0.273787 0.959872 0.152933
H16   H     H_    0.021256 0.774626 0.040095 0.153043
H17   H     H_    0.927882 0.181656 0.400764 0.105436
H18   H     H_    0.069089 0.678966 0.597490 0.105218
C37   C     C_R   0.573416 0.366614 0.794226 -0.151737
C38   C     C_R   0.426349 0.863420 0.378245 -0.152452
H19   H     H_    0.531391 0.451551 0.769415 0.105165
H20   H     H_    0.469184 0.948159 0.394009 0.105852
H21   H     H_    0.657550 0.288796 0.895198 0.132560
H22   H     H_    0.340531 0.782130 0.447684 0.132539
H23   H     H_    0.619926 0.384572 0.829061 0.116904
H24   H     H_    0.379646 0.879342 0.434573 0.117143
C39   C     C_R   0.462006 0.383575 0.720537 -0.037189
C40   C     C_R   0.538332 0.883633 0.287865 -0.037020
C41   C     C_R   0.481196 0.097127 0.726347 -0.148864
C42   C     C_R   0.517804 0.601410 0.132341 -0.147499
C43   C     C_R   0.429967 0.133417 0.685151 -0.122813
C44   C     C_R   0.569212 0.639438 0.097261 -0.123106
C45   C     C_R   0.436821 0.193731 0.690663 -0.148519
C46   C     C_R   0.562506 0.698559 0.138622 -0.148734
C47   C     C_R   0.495130 0.219966 0.744404 0.076254
C48   C     C_R   0.504014 0.721561 0.222226 0.076835
C49   C     C_R   0.547673 0.182428 0.796491 0.021180
C50   C     C_R   0.450952 0.681885 0.265872 0.019857
C51   C     C_R   0.502619 0.282438 0.747189 0.074137
C52   C     C_R   0.496911 0.782928 0.263494 0.074031
C53   C     C_R   0.563347 0.306009 0.792846 0.126723
C54   C     C_R   0.435993 0.803925 0.337203 0.126712
C55   C     C_R   0.612891 0.269531 0.848705 -0.222007
C56   C     C_R   0.385618 0.765360 0.381066 -0.223681
C57   C     C_R   0.604680 0.209279 0.861317 -0.088264
C58   C     C_R   0.393353 0.705383 0.357163 -0.088967
C59   C     C_R   0.451817 0.322789 0.711249 -0.216545
C60   C     C_R   0.548213 0.824408 0.239184 -0.217387
C61   C     C_R   0.523136 0.404930 0.759623 -0.165063
C62   C     C_R   0.477190 0.902759 0.355165 -0.165861
C63   C     C_R   0.540494 0.120030 0.779445 -0.093068
C64   C     C_R   0.458305 0.621094 0.213882 -0.094217
H25   H     H_    0.403299 0.308716 0.685011 0.092629
H26   H     H_    0.596757 0.811971 0.191274 0.093030
H27   H     H_    0.475012 0.050335 0.711713 0.104352
H28   H     H_    0.524136 0.555963 0.091368 0.105392
H29   H     H_    0.395555 0.218675 0.649297 0.107007
H30   H     H_    0.604049 0.725332 0.100681 0.106668
H31   H     H_    0.384817 0.114522 0.642723 0.118997
H32   H     H_    0.614531 0.623077 0.032596 0.119047
C65   C     C_1   0.651989 0.179556 0.971016 0.283269
N1    N     N_1   0.690063 0.157879 0.064432 -0.332780
C66   C     C_1   0.344179 0.671397 0.458617 0.280081
N2    N     N_1   0.304082 0.646818 0.547738 -0.329201
C67   C     C_1   0.031826 0.344163 0.466615 0.274794
N3    N     N_1   0.996488 0.344509 0.342395 -0.368510
C68   C     C_1   0.968331 0.844041 0.532690 0.275300
N4    N     N_1   0.003673 0.844220 0.656897 -0.369164

loop_
_geom_bond_atom_site_label_1
_geom_bond_atom_site_label_2
_ccdc_geom_bond_type
C19   H13   S    
V4    O20   S    
C41   H27   S    
C32   H16   S    
C21   H11   S    
O13   V3    S    
C42   C64   A    
O4    C2    A    
V1    O19   S    
C56   C58   A    
C14   C68   S    
C66   N2    T    
C15   C17   A    
C7    C9    S    
C43   H31   S    
O9    V1    S    
C18   C20   A    
H20   C62   S    
C11   C13   A    
C3    C64   S    
O3    C1    A    
C2    C35   S    
C23   H3    S    
C49   C63   A    
C47   C51   A    
C24   H4    S    
O12   V4    S    
C18   H10   S    
C60   H26   S    
O7    C3    A    
C59   H25   S    
C38   H24   S    
C9    C11   A    
O5    C7    A    
O7    V1    S    
O6    C8    A    
O8    V2    S    
C25   C27   A    
C48   C50   A    
C58   C66   S    
C26   C28   A    
O3    V1    S    
O14   V4    S    
C42   H28   S    
C41   C43   A    
C22   H12   S    
C40   C62   A    
C24   C36   A    
C31   H15   S    
C16   C18   A    
C8    C10   S    
C2    O12   A    
C5    C39   S    
C17   C19   A    
O10   V2    S    
C45   H29   S    
C33   H7    S    
C28   H18   S    
O1    V3    S    
C28   C30   A    
O11   V3    S    
C13   C67   S    
C21   C23   A    
O17   V3    S    
C4    C63   S    
C13   C15   A    
C22   C24   A    
C52   C60   A    
C23   C35   A    
C50   C64   A    
C37   C61   A    
C9    C19   A    
C20   H14   S    
C10   C20   A    
C11   H1    S    
O8    C4    A    
C29   C33   S    
C1    O11   A    
C16   C32   S    
O15   V3    S    
C38   C54   A    
C12   H2    S    
C46   C48   A    
C27   H17   S    
C43   C45   A    
C6    C40   S    
C42   C44   A    
C22   C30   A    
C44   C46   A    
C57   C65   S    
C55   C57   A    
C54   C56   A    
C26   H6    S    
C65   N1    T    
C25   H5    S    
O5    V1    S    
C34   H8    S    
C51   C53   A    
H19   C61   S    
O18   V4    S    
C31   C33   D    
C67   N3    T    
H22   C56   S    
O16   C6    A    
O1    C3    A    
C68   N4    T    
C1    C36   S    
C37   H23   S    
O6    V2    S    
C17   H9    S    
C52   C54   A    
V2    O20   S    
C41   C63   A    
O16   V4    S    
C39   C59   A    
C25   C35   A    
C47   C49   A    
C39   C61   A    
C15   C31   S    
C51   C59   A    
O10   C6    A    
O18   C8    A    
C50   C58   A    
O2    V4    S    
C26   C36   A    
H21   C55   S    
O15   C5    A    
C44   H32   S    
C49   C57   A    
V3    O19   S    
C12   C14   A    
C14   C16   A    
C46   H30   S    
C45   C47   A    
C40   C60   A    
C48   C52   A    
O9    C5    A    
O13   V1    S    
C10   C12   A    
C32   C34   D    
O14   V2    S    
O2    C4    A    
C21   C29   A    
O4    V2    S    
C30   C34   S    
C53   C55   A    
C38   C62   A    
C37   C53   A    
C27   C29   A    
O17   C7    A    
