data_mof_unit_11591.cif
_audit_creation_date              2012-10-26T20:38:00-0400
_audit_creation_method            fapswitch 2.2
_symmetry_space_group_name_H-M    P1
_symmetry_Int_Tables_number       1
_space_group_crystal_system       triclinic
_cell_length_a                    9.868174
_cell_length_b                    11.035049
_cell_length_c                    13.01259
_cell_angle_alpha                 91.022733
_cell_angle_beta                  75.188086
_cell_angle_gamma                 111.300413
_cell_volume                      1271.91307467

loop_
_atom_site_label
_atom_site_type_symbol
_atom_type_description
_atom_site_fract_x
_atom_site_fract_y
_atom_site_fract_z
_atom_type_partial_charge
C1    C     C_R   0.439382 0.253893 0.509219 0.579627
C2    C     C_R   0.690640 0.609938 0.009202 -0.104114
C3    C     C_R   0.323687 0.414414 0.883691 -0.164184
C4    C     C_R   0.675843 0.590262 0.116627 -0.164220
C5    C     C_R   0.576212 0.579179 0.859299 0.191729
C6    C     C_R   0.424281 0.424673 0.139915 0.246767
C7    C     C_R   0.567421 0.549911 0.966747 -0.002416
C8    C     C_R   0.432650 0.455639 0.033039 0.010586
C9    C     C_2   0.405200 0.114321 0.514367 -0.091381
C10   C     C_2   0.594596 0.885649 0.488084 -0.071438
C11   C     C_2   0.516597 0.069617 0.500111 -0.130585
C12   C     C_R   0.560522 0.746109 0.491831 0.578196
C13   C     C_2   0.483073 0.930350 0.503488 -0.136720
C14   C     C_2   0.082660 0.510105 0.492008 0.085143
C15   C     C_2   0.917286 0.489486 0.507663 0.087859
C16   C     C_R   0.474298 0.500615 0.702331 0.580937
C17   C     C_R   0.525784 0.499856 0.297562 0.594472
C18   C     C_R   0.541697 0.502657 0.183127 0.007183
C19   C     C_R   0.458608 0.500052 0.816627 0.003902
C20   C     C_R   0.308812 0.396322 0.991154 -0.082753
Cu1   Cu    Cu3+1 0.647370 0.522180 0.481340 1.104900
Cu2   Cu    Cu3+1 0.352630 0.477820 0.518660 1.086992
H1    H     H_    0.769680 0.645727 0.148216 0.170818
H2    H     H_    0.167205 0.583638 0.431497 0.150261
H3    H     H_    0.255003 0.144748 0.341350 0.373532
H4    H     H_    0.883198 0.626816 0.770543 0.324217
H5    H     H_    0.229456 0.358886 0.852505 0.170985
H6    H     H_    0.199564 0.334141 0.040044 0.208633
H7    H     H_    0.799578 0.673265 0.960915 0.185769
H8    H     H_    0.365988 0.864002 0.518548 0.171735
H9    H     H_    0.633644 0.135972 0.485285 0.173219
H10   H     H_    0.711487 0.952250 0.473091 0.148042
H11   H     H_    0.288354 0.047696 0.529110 0.136868
H12   H     H_    0.832678 0.415466 0.567778 0.144051
I1    I     I_    0.015545 0.703916 0.335992 -0.210867
I2    I     I_    0.984657 0.297811 0.665439 -0.217938
N1    N     N_2   0.131210 0.444490 0.546730 -0.162269
N2    N     N_2   0.868790 0.555510 0.453270 -0.151051
O1    O     O_R   0.578710 0.332530 0.490040 -0.521747
O2    O     O_2   0.234463 0.174051 0.142264 -0.270505
O3    O     O_3   0.340951 0.224439 0.305406 -0.510967
O4    O     O_2   0.665990 0.770198 0.701198 -0.236083
O5    O     O_2   0.772726 0.829787 0.851603 -0.250462
O6    O     O_3   0.871066 0.683144 0.717935 -0.486552
O7    O     O_R   0.421290 0.667470 0.509960 -0.529870
O8    O     O_R   0.329810 0.295070 0.521560 -0.452437
O9    O     O_R   0.670190 0.704930 0.478440 -0.442173
O10   O     O_R   0.604230 0.515670 0.637800 -0.465222
O11   O     O_R   0.395770 0.484330 0.362200 -0.461090
O12   O     O_R   0.355330 0.478200 0.669330 -0.496840
O13   O     O_R   0.644670 0.521800 0.330670 -0.495090
O14   O     O_2   0.144374 0.312390 0.269937 -0.276955
S1    S     S_3+6 0.279552 0.280731 0.214523 0.026209
S2    S     S_3+6 0.722485 0.721060 0.782159 0.043295

loop_
_geom_bond_atom_site_label_1
_geom_bond_atom_site_label_2
_ccdc_geom_bond_type
C2    C4    A    
C15   N2    D    
C3    C19   A    
C5    C19   A    
O6    S2    S    
C9    C11   D    
C5    S2    S    
O5    S2    D    
C20   H6    S    
C2    C7    A    
Cu1   O1    S    
C12   O9    A    
Cu1   O13   S    
Cu2   O12   S    
Cu1   O10   S    
C4    C18   A    
C16   O10   A    
C3    H5    S    
C17   C18   S    
O3    S1    S    
H4    O6    S    
C3    C20   A    
Cu1   Cu2   S    
O4    S2    D    
C14   N1    D    
C9    H11   S    
C11   C13   S    
C17   O13   A    
C8    C20   A    
C10   C12   S    
C14   H2    S    
Cu2   O11   S    
I2    N1    S    
Cu2   O8    S    
C16   O12   A    
C2    H7    S    
C16   C19   S    
C6    C18   A    
C1    O8    A    
C1    O1    A    
C6    S1    S    
C11   H9    S    
C10   H10   S    
C13   H8    S    
C7    C8    A    
Cu2   O7    S    
C1    C9    S    
O14   S1    D    
O2    S1    D    
H3    O3    S    
C5    C7    A    
C4    H1    S    
I1    N2    S    
C6    C8    A    
C15   H12   S    
C14   C15   S    
Cu2   N1    S    
C17   O11   A    
Cu1   N2    S    
C12   O7    A    
Cu1   O9    S    
C10   C13   D    
