data_mof_unit_49711.cif
_audit_creation_date              2013-03-05T15:54:36-0500
_audit_creation_method            fapswitch 2.2
_symmetry_space_group_name_H-M    P1
_symmetry_Int_Tables_number       1
_space_group_crystal_system       triclinic
_cell_length_a                    17.411146
_cell_length_b                    24.407723
_cell_length_c                    14.891127
_cell_angle_alpha                 90.086419
_cell_angle_beta                  125.013754
_cell_angle_gamma                 89.59858
_cell_volume                      5182.75872476

loop_
_atom_site_label
_atom_site_type_symbol
_atom_site_description
_atom_site_fract_x
_atom_site_fract_y
_atom_site_fract_z
_atom_type_partial_charge
C1    C     C_R   0.847125 0.650980 0.905268 -0.117152
C2    C     C_R   0.149417 0.651650 0.092994 -0.102865
C3    C     C_R   0.347079 0.150961 0.905247 -0.116884
C4    C     C_R   0.649426 0.151646 0.093001 -0.102855
H1    H     H_    0.810079 0.664165 0.821088 0.257376
H2    H     H_    0.181955 0.666290 0.175568 0.253983
H3    H     H_    0.309996 0.164134 0.821054 0.257306
H4    H     H_    0.681967 0.166283 0.175578 0.253975
N1    N     N_R   0.892620 0.603790 0.941770 -0.079877
N2    N     N_R   0.107380 0.603790 0.058230 -0.084944
N3    N     N_R   0.392620 0.103790 0.941770 -0.079811
N4    N     N_R   0.607380 0.103790 0.058230 -0.084875
C5    C     C_R   0.910126 0.370020 0.094096 -0.131301
C6    C     C_R   0.093625 0.377518 0.902965 -0.119713
C7    C     C_R   0.410110 0.870030 0.094088 -0.131249
C8    C     C_R   0.593640 0.877521 0.902978 -0.119746
H5    H     H_    0.941086 0.359728 0.177764 0.118385
H6    H     H_    0.066692 0.375563 0.817361 0.125563
H7    H     H_    0.441063 0.859739 0.177755 0.118379
H8    H     H_    0.566719 0.875574 0.817377 0.125587
N5    N     N_R   0.952270 0.397640 0.058010 -0.051357
N6    N     N_R   0.047730 0.397640 0.941990 -0.054604
N7    N     N_R   0.452270 0.897640 0.058010 -0.051325
N8    N     N_R   0.547730 0.897640 0.941990 -0.054570
C9    C     C_R   0.981729 0.547002 0.249579 0.063279
C10   C     C_R   0.948250 0.546682 0.695594 -0.102809
C11   C     C_R   0.481734 0.047003 0.249583 0.063069
C12   C     C_R   0.448257 0.046683 0.695598 -0.103126
H9    H     H_    0.961361 0.588583 0.248629 0.130021
H10   H     H_    0.924439 0.587773 0.666950 0.211501
H11   H     H_    0.461371 0.088586 0.248635 0.130045
H12   H     H_    0.424448 0.087775 0.666955 0.211570
N9    N     N_R   0.026310 0.529110 0.206760 -0.049513
N10   N     N_R   0.973690 0.529110 0.793240 -0.055719
N11   N     N_R   0.526310 0.029110 0.206760 -0.049577
N12   N     N_R   0.473690 0.029110 0.793240 -0.055746
C13   C     C_R   0.739634 0.455379 0.702042 -0.178840
C14   C     C_R   0.269202 0.454208 0.269950 -0.156924
C15   C     C_R   0.239853 0.955382 0.701766 -0.179609
C16   C     C_R   0.769180 0.954196 0.270194 -0.157543
H13   H     H_    0.723698 0.413556 0.673196 0.168034
H14   H     H_    0.291103 0.413005 0.300648 0.152456
H15   H     H_    0.223965 0.913546 0.672998 0.168501
H16   H     H_    0.791017 0.912976 0.300798 0.152487
N13   N     N_R   0.818570 0.472310 0.793020 -0.088436
N14   N     N_R   0.181430 0.472310 0.206980 -0.091746
N15   N     N_R   0.318570 0.972310 0.793020 -0.088367
N16   N     N_R   0.681430 0.972310 0.206980 -0.091790
C17   C     C_R   0.996734 0.456372 0.268132 -0.116385
C18   C     C_R   0.948261 0.455909 0.693616 -0.100489
C19   C     C_R   0.496739 0.956373 0.268137 -0.116708
C20   C     C_R   0.448266 0.955909 0.693618 -0.100671
H17   H     H_    0.004134 0.416112 0.301499 0.108607
H18   H     H_    0.928634 0.414387 0.664210 0.105336
H19   H     H_    0.504142 0.916113 0.301507 0.108630
H20   H     H_    0.428640 0.914387 0.664212 0.105419
N17   N     N_R   0.026930 0.472300 0.207330 -0.053511
N18   N     N_R   0.973070 0.472300 0.792670 -0.050499
N19   N     N_R   0.526930 0.972300 0.207330 -0.053520
N20   N     N_R   0.473070 0.972300 0.792670 -0.050502
C21   C     C_R   0.739043 0.546968 0.703486 0.746320
C22   C     C_R   0.270178 0.545718 0.263433 0.791564
C23   C     C_R   0.239290 0.046952 0.703141 0.746830
C24   C     C_R   0.770193 0.045711 0.263689 0.792150
N21   N     N_R   0.817960 0.529130 0.792460 -0.119459
N22   N     N_R   0.182040 0.529130 0.207540 -0.114232
N23   N     N_R   0.317960 0.029130 0.792460 -0.119455
N24   N     N_R   0.682040 0.029130 0.207540 -0.114530
C25   C     C_R   0.815380 0.371558 0.911047 -0.049721
C26   C     C_R   0.184909 0.371519 0.085627 -0.063467
C27   C     C_R   0.315359 0.871582 0.911036 -0.049684
C28   C     C_R   0.684926 0.871539 0.085644 -0.063253
H21   H     H_    0.757842 0.364592 0.826907 0.135754
H22   H     H_    0.240498 0.358783 0.167145 0.121526
H23   H     H_    0.257807 0.864647 0.826885 0.135930
H24   H     H_    0.740529 0.858832 0.167176 0.121690
N25   N     N_R   0.894850 0.397640 0.943830 -0.056062
N26   N     N_R   0.105150 0.397640 0.056170 -0.055035
N27   N     N_R   0.394850 0.897640 0.943830 -0.056050
N28   N     N_R   0.605150 0.897640 0.056170 -0.055020
C29   C     C_R   0.938632 0.653290 0.087103 0.281329
C30   C     C_R   0.063010 0.651889 0.911273 0.334052
C31   C     C_R   0.438608 0.153287 0.087087 0.281299
C32   C     C_R   0.563012 0.151890 0.911278 0.334042
N29   N     N_R   0.950040 0.603780 0.055950 -0.109075
N30   N     N_R   0.049960 0.603780 0.944050 -0.105702
N31   N     N_R   0.450040 0.103780 0.055950 -0.109037
N32   N     N_R   0.549960 0.103780 0.944050 -0.105664
C33   C     C_R   0.874371 0.683713 0.993726 -0.095246
C34   C     C_R   0.124044 0.683065 0.003541 -0.119249
C35   C     C_R   0.374316 0.183693 0.993697 -0.095359
C36   C     C_R   0.624052 0.183062 0.003550 -0.119294
C37   C     C_R   0.822293 0.355777 0.005145 0.119599
C38   C     C_R   0.180428 0.361084 0.990708 0.131093
C39   C     C_R   0.322270 0.855797 0.005133 0.119570
C40   C     C_R   0.680453 0.861095 0.990733 0.130835
C41   C     C_R   0.961720 0.502254 0.288393 0.044748
C42   C     C_R   0.931931 0.501992 0.630978 0.015413
C43   C     C_R   0.461726 0.002255 0.288399 0.044807
C44   C     C_R   0.431939 0.001993 0.630981 0.015423
C45   C     C_R   0.689525 0.501675 0.646500 -0.015608
C46   C     C_R   0.325045 0.499371 0.300356 -0.025533
C47   C     C_R   0.189930 0.001667 0.645937 -0.016225
C48   C     C_R   0.825046 0.999357 0.300804 -0.026108
Ni1   Ni    Ni4+2 0.934160 0.565860 0.869070 0.296941
Ni2   Ni    Ni4+2 0.065840 0.565860 0.130930 0.331592
Ni3   Ni    Ni4+2 0.434160 0.065860 0.869070 0.296969
Ni4   Ni    Ni4+2 0.565840 0.065860 0.130930 0.331454
Ni5   Ni    Ni4+2 0.067260 0.435560 0.132230 0.235966
Ni6   Ni    Ni4+2 0.932740 0.435560 0.867770 0.219367
Ni7   Ni    Ni4+2 0.567260 0.935560 0.132230 0.235818
Ni8   Ni    Ni4+2 0.432740 0.935560 0.867770 0.219372
C49   C     C_3   0.520569 0.470885 0.548479 -0.370246
C50   C     C_3   0.485865 0.447648 0.434577 -0.279297
C51   C     C_3   0.020944 0.971481 0.549005 -0.371132
C52   C     C_3   0.985678 0.947567 0.435432 -0.278829
C53   C     C_3   0.457847 0.521464 0.495232 0.905166
C54   C     C_3   0.563228 0.479177 0.436756 0.934406
C55   C     C_3   0.958490 0.022094 0.495088 0.906825
C56   C     C_3   0.063006 0.978495 0.436555 0.935742
H25   H     H_    0.531066 0.447541 0.618727 0.249977
H26   H     H_    0.464830 0.404736 0.406993 0.222691
H27   H     H_    0.031566 0.948642 0.619806 0.249843
H28   H     H_    0.964379 0.904588 0.408722 0.221791
C57   C     C_3   0.423296 0.498782 0.382866 -0.113059
C58   C     C_3   0.596897 0.502064 0.548713 -0.156513
C59   C     C_3   0.923368 0.998745 0.383038 -0.112427
C60   C     C_3   0.097248 0.002055 0.548206 -0.156371
C61   C     C_3   0.499050 0.529968 0.382126 -0.295538
C62   C     C_3   0.534125 0.553110 0.496649 -0.221768
C63   C     C_3   0.999073 0.029314 0.381224 -0.298026
C64   C     C_3   0.034737 0.053142 0.495442 -0.222786
H29   H     H_    0.487443 0.553205 0.311231 0.203051
H30   H     H_    0.552368 0.596448 0.522374 0.262856
H31   H     H_    0.987301 0.052040 0.309755 0.203044
H32   H     H_    0.053307 0.096550 0.520216 0.263180
C65   C     C_R   0.787473 0.297650 0.111193 0.031374
C66   C     C_R   0.210261 0.300201 0.883876 0.036986
C67   C     C_R   0.287453 0.797661 0.111177 0.031313
C68   C     C_R   0.710396 0.800272 0.883899 0.037136
C69   C     C_R   0.754284 0.327180 0.014790 -0.082527
C70   C     C_R   0.246824 0.331625 0.978578 -0.089273
C71   C     C_R   0.254262 0.827195 0.014777 -0.082469
C72   C     C_R   0.746892 0.831655 0.978640 -0.089175
C73   C     C_R   0.658028 0.322743 0.927478 0.317399
C74   C     C_R   0.343822 0.326763 0.063239 0.314178
C75   C     C_R   0.158008 0.822752 0.927461 0.317359
C76   C     C_R   0.843863 0.826758 0.063385 0.313839
C77   C     C_R   0.107945 0.777601 0.927266 -0.160659
C78   C     C_R   0.892787 0.780531 0.062878 -0.160414
C79   C     C_R   0.607958 0.277598 0.927288 -0.160582
C80   C     C_R   0.392731 0.280527 0.062736 -0.160299
H33   H     H_    0.036556 0.771044 0.857939 0.219032
H34   H     H_    0.965726 0.774461 0.128859 0.215325
H35   H     H_    0.536567 0.271044 0.857966 0.219043
H36   H     H_    0.465692 0.274470 0.128661 0.215297
C81   C     C_R   0.153574 0.739508 0.013807 -0.054325
C82   C     C_R   0.844290 0.740695 0.980698 -0.052675
C83   C     C_R   0.653586 0.239504 0.013826 -0.054367
C84   C     C_R   0.344196 0.240661 0.980636 -0.052671
C85   C     C_R   0.237100 0.754912 0.111064 0.035178
C86   C     C_R   0.758632 0.755551 0.884802 0.046545
C87   C     C_R   0.737115 0.254905 0.111082 0.035148
C88   C     C_R   0.258485 0.255477 0.884779 0.046361
C89   C     C_3   0.323483 0.721860 0.189198 0.737636
C90   C     C_3   0.670943 0.723039 0.813222 0.708901
C91   C     C_3   0.823497 0.221850 0.189214 0.737717
C92   C     C_3   0.170806 0.222936 0.813353 0.709186
C93   C     C_3   0.879129 0.268465 0.188620 -0.640127
C94   C     C_3   0.117502 0.271982 0.812763 -0.608195
C95   C     C_3   0.379111 0.768478 0.188606 -0.640000
C96   C     C_3   0.617630 0.772078 0.812634 -0.608441
H37   H     H_    0.329988 0.683057 0.154731 0.027136
H38   H     H_    0.666221 0.686048 0.853286 0.017931
H39   H     H_    0.829996 0.183046 0.154746 0.027091
H40   H     H_    0.166170 0.185966 0.853533 0.017967
H41   H     H_    0.916202 0.257261 0.150269 0.179557
H42   H     H_    0.083225 0.264012 0.855516 0.174771
H43   H     H_    0.416187 0.757277 0.150257 0.179574
H44   H     H_    0.583264 0.764080 0.855276 0.174812
H45   H     H_    0.922976 0.289243 0.269423 0.243140
H46   H     H_    0.071652 0.291581 0.730691 0.244468
H47   H     H_    0.422955 0.789256 0.269410 0.243126
H48   H     H_    0.571857 0.791714 0.730587 0.244440
C97   C     C_R   0.893468 0.553943 0.467059 -0.031593
C98   C     C_R   0.904456 0.553735 0.382584 -0.176843
C99   C     C_R   0.393474 0.053945 0.467063 -0.031984
C100  C     C_R   0.404463 0.053738 0.382589 -0.176838
C101  C     C_R   0.894604 0.504291 0.515025 0.072333
C102  C     C_R   0.914275 0.504159 0.342772 0.122196
C103  C     C_R   0.394609 0.004293 0.515029 0.071581
C104  C     C_R   0.414281 0.004161 0.342777 0.122263
C105  C     C_R   0.877803 0.455726 0.455405 -0.052108
C106  C     C_R   0.887722 0.455685 0.368696 -0.153429
C107  C     C_R   0.377806 0.955729 0.455408 -0.052739
C108  C     C_R   0.387726 0.955687 0.368699 -0.153326
H49   H     H_    0.870072 0.416794 0.483839 0.137360
H50   H     H_    0.886237 0.416907 0.332361 0.130705
H51   H     H_    0.370073 0.916796 0.483840 0.137573
H52   H     H_    0.386240 0.916910 0.332363 0.130716
C109  C     C_3   0.963541 0.604259 0.423613 0.489802
C110  C     C_3   0.951022 0.604840 0.515516 0.509455
C111  C     C_3   0.463549 0.104261 0.423618 0.489766
C112  C     C_3   0.451029 0.104843 0.515520 0.509691
H53   H     H_    0.930860 0.639753 0.366733 0.129168
H54   H     H_    0.017786 0.599450 0.597950 0.094661
H55   H     H_    0.430871 0.139755 0.366738 0.129083
H56   H     H_    0.517793 0.099453 0.597955 0.094670
N33   N     N_R   0.612270 0.361519 0.838549 0.229802
O1    O     O_R   0.634067 0.413153 0.857054 -0.402637
O2    O     O_R   0.540359 0.346897 0.742343 -0.353138
N34   N     N_R   0.391334 0.366038 0.150694 0.234543
O3    O     O_R   0.363588 0.416947 0.133622 -0.401419
O4    O     O_R   0.469286 0.352831 0.243227 -0.343179
N35   N     N_R   0.112247 0.861531 0.838539 0.229824
O5    O     O_R   0.134032 0.913167 0.857058 -0.402896
O6    O     O_R   0.040351 0.846909 0.742322 -0.352882
N36   N     N_R   0.891316 0.865980 0.150947 0.234649
O7    O     O_R   0.863727 0.916919 0.133897 -0.401408
O8    O     O_R   0.969032 0.852675 0.243649 -0.341823
F1    F     F_    0.337458 0.716025 0.290097 -0.599229
F2    F     F_    0.652478 0.713463 0.710898 -0.611510
F3    F     F_    0.837474 0.216017 0.290115 -0.599012
F4    F     F_    0.152237 0.213307 0.710994 -0.611413
F5    F     F_    0.056136 0.594102 0.462349 -0.638734
F6    F     F_    0.896903 0.648907 0.507592 -0.615061
F7    F     F_    0.556145 0.094102 0.462356 -0.638884
F8    F     F_    0.396910 0.148909 0.507595 -0.615189
F9    F     F_    0.723211 0.599180 0.665895 -0.665921
F10   F     F_    0.299540 0.597990 0.292904 -0.652066
F11   F     F_    0.223587 0.099176 0.665642 -0.666038
F12   F     F_    0.799542 0.097994 0.293007 -0.651473
N37   N     N_R   0.999301 0.674120 0.196230 0.215232
O9    O     O_R   0.085188 0.656163 0.259427 -0.343067
O10   O     O_R   0.963679 0.700880 0.239965 -0.392109
N38   N     N_R   0.005734 0.671557 0.801125 0.213208
O11   O     O_R   0.915124 0.673826 0.749339 -0.355346
O12   O     O_R   0.044279 0.688645 0.753093 -0.351340
N39   N     N_R   0.499273 0.174133 0.196202 0.215246
O13   O     O_R   0.585162 0.156178 0.259417 -0.343077
O14   O     O_R   0.463655 0.200927 0.239906 -0.392199
N40   N     N_R   0.505725 0.171563 0.801134 0.213217
O15   O     O_R   0.415116 0.173825 0.749358 -0.355237
O16   O     O_R   0.544258 0.188653 0.753089 -0.351382
F13   F     F_    0.400732 0.543038 0.523448 -0.616797
F14   F     F_    0.621791 0.457618 0.410740 -0.650449
F15   F     F_    0.901859 0.044343 0.523402 -0.616057
F16   F     F_    0.121108 0.956266 0.410464 -0.650003

loop_
_geom_bond_atom_site_label_1
_geom_bond_atom_site_label_2
_geom_bond_distance
_ccdc_geom_bond_type
C89   C95   1.502685 S    
C23   F11   1.354041 S    
C31   N31   1.347435 A    
C111  C112  1.504267 S    
C80   C84   1.406392 A    
C39   C71   1.455023 S    
C1    C33   1.372416 A    
C30   N38   1.426152 S    
C26   N26   1.347882 A    
C56   C63   1.545234 S    
C109  C110  1.504263 S    
C70   C74   1.417749 A    
N3    Ni3   1.854261 S    
C25   N25   1.339533 A    
N39   O13   1.300433 A    
N8    Ni8   1.877350 S    
C4    H4    1.078301 S    
C46   C57   1.422669 S    
C90   F2    1.384747 S    
C27   N27   1.339515 A    
C12   C44   1.372541 A    
N36   O7    1.301386 A    
C89   F1    1.384793 S    
C33   C82   1.456107 S    
C110  F6    1.384645 S    
C2    H2    1.078300 S    
C7    H7    1.065037 S    
C48   C59   1.422835 S    
C11   C43   1.373555 A    
C18   H18   1.080469 S    
C65   C87   1.366901 A    
N27   Ni8   1.855754 S    
C94   H42   1.112360 S    
C36   C83   1.450729 S    
C1    H1    1.077694 S    
C24   N24   1.324261 A    
C95   H47   1.112333 S    
C25   H21   1.078759 S    
C26   C38   1.393355 A    
C76   C78   1.411602 A    
N14   N22   1.386935 A    
C3    H3    1.077719 S    
C75   N35   1.437566 S    
N35   O6    1.301438 A    
C7    C39   1.376832 A    
C43   C104  1.451623 S    
C28   C40   1.393357 A    
C105  H49   1.081105 S    
C64   H32   1.109011 S    
C27   C39   1.390620 A    
C58   C62   1.536021 S    
C68   C86   1.367925 A    
C51   C52   1.545440 S    
C84   C88   1.394583 A    
C17   N17   1.340709 A    
N38   O11   1.299791 A    
C3    C35   1.372337 A    
C93   H41   1.112504 S    
C2    C34   1.371323 A    
C55   F15   1.383394 S    
C111  F7    1.386014 S    
C77   H33   1.079865 S    
N11   Ni4   1.859282 S    
C20   N20   1.338593 A    
N1    N29   1.392755 A    
C86   C90   1.497925 S    
C67   C71   1.399850 A    
C10   N10   1.324597 A    
C73   N33   1.437569 S    
N17   Ni5   1.853957 S    
N31   Ni4   1.887333 S    
C80   H36   1.079842 S    
N3    N31   1.392755 A    
N6    Ni6   1.877350 S    
C52   C59   1.535789 S    
C26   H22   1.074992 S    
N19   Ni7   1.853958 S    
C67   C95   1.502864 S    
C76   N36   1.438848 S    
C83   C87   1.393864 A    
C79   H35   1.079864 S    
C4    N4    1.320429 A    
C52   H28   1.109548 S    
N37   O9    1.300417 A    
C99   C103  1.401901 A    
C105  C106  1.397472 A    
C72   C76   1.417746 A    
C29   C33   1.393873 A    
C29   N29   1.347445 A    
C96   H44   1.112358 S    
C7    N7    1.319916 A    
C8    N8    1.320652 A    
C27   H23   1.078798 S    
C90   C96   1.506487 S    
C94   H46   1.112022 S    
N12   Ni3   1.852972 S    
C9    H9    1.070164 S    
C91   C93   1.502690 S    
C95   H43   1.112504 S    
C62   H30   1.109218 S    
C92   F4    1.384747 S    
C42   C101  1.455650 S    
C60   C64   1.536022 S    
C12   H12   1.073423 S    
N21   Ni1   1.890005 S    
N8    N28   1.392753 A    
C112  F8    1.384643 S    
N33   O1    1.301506 A    
C107  H51   1.081105 S    
C19   C43   1.384663 A    
N22   Ni2   1.878152 S    
N11   N19   1.386570 A    
C23   N23   1.318038 A    
C90   H38   1.112127 S    
C51   H27   1.110450 S    
C18   C42   1.382153 A    
C22   N22   1.324233 A    
N1    Ni1   1.854261 S    
C11   H11   1.070174 S    
C18   N18   1.338594 A    
C112  H56   1.111884 S    
C67   C85   1.366907 A    
C1    N1    1.320815 A    
N6    N26   1.392753 A    
C23   C47   1.362459 A    
C66   C70   1.398441 A    
C108  H52   1.082574 S    
C24   F12   1.353385 S    
N32   Ni3   1.899498 S    
N4    N32   1.392755 A    
N13   Ni6   1.853090 S    
C4    C36   1.371308 A    
C15   H15   1.081391 S    
C49   C58   1.534328 S    
C103  C107  1.408015 A    
C22   F10   1.353400 S    
C30   N30   1.342168 A    
C15   N15   1.328425 A    
C111  H55   1.110827 S    
C99   C112  1.501040 S    
C20   C44   1.382159 A    
C21   C45   1.362553 A    
C52   C56   1.539872 S    
C98   C109  1.498849 S    
C5    C37   1.376798 A    
C38   C70   1.453833 S    
C97   C110  1.501034 S    
C98   C102  1.398629 A    
C109  F5    1.386012 S    
N35   O5    1.301507 A    
C31   N39   1.431864 S    
N20   Ni8   1.860337 S    
C21   N21   1.318037 A    
C16   C48   1.368792 A    
C96   H48   1.112024 S    
N40   O16   1.300615 A    
C104  C108  1.405850 A    
C88   C92   1.497917 S    
C87   C91   1.498124 S    
C8    H8    1.077630 S    
C93   H45   1.112331 S    
C9    N9    1.327448 A    
C56   C60   1.521456 S    
C45   C58   1.423505 S    
C65   C69   1.399836 A    
C8    C40   1.370942 A    
C5    N5    1.319909 A    
C28   H24   1.074981 S    
N39   O14   1.300769 A    
C50   C54   1.540106 S    
N16   N24   1.386935 A    
C32   C36   1.388814 A    
C53   C62   1.530716 S    
N37   O10   1.300770 A    
C91   F3    1.384793 S    
C35   C84   1.455936 S    
C73   C79   1.408825 A    
C10   C42   1.372542 A    
C49   C53   1.528311 S    
C68   C96   1.501637 S    
C9    C41   1.373557 A    
C41   C102  1.451632 S    
N34   O4    1.301448 A    
C10   H10   1.073419 S    
C51   C55   1.528211 S    
C91   H39   1.112197 S    
N13   N21   1.386812 A    
C29   N37   1.431862 S    
N2    Ni2   1.860939 S    
N30   Ni1   1.899498 S    
C19   N19   1.340707 A    
C13   N13   1.328408 A    
N29   Ni2   1.887333 S    
C2    N2    1.320459 A    
C81   C85   1.393856 A    
C71   C75   1.418633 A    
C37   C69   1.454992 S    
N4    Ni4   1.860939 S    
C49   C50   1.545795 S    
C25   C37   1.390586 A    
C110  H54   1.111884 S    
C44   C103  1.455642 S    
C50   C57   1.535783 S    
C47   C60   1.423707 S    
C16   N16   1.325610 A    
N2    N30   1.392755 A    
N9    N17   1.386572 A    
C61   H29   1.110151 S    
C78   C82   1.406456 A    
C75   C77   1.408842 A    
N18   Ni6   1.860337 S    
N10   Ni1   1.852972 S    
C65   C93   1.502856 S    
C6    H6    1.077641 S    
C24   C48   1.370638 A    
N9    Ni2   1.859282 S    
C68   C72   1.398460 A    
N12   N20   1.386696 A    
C55   C64   1.530587 S    
C56   F16   1.382529 S    
N5    Ni5   1.889496 S    
C21   F9    1.354066 S    
C54   F14   1.382689 S    
C97   C101  1.401899 A    
C53   F13   1.383555 S    
C74   N34   1.438857 S    
N7    Ni7   1.889496 S    
N15   Ni8   1.853090 S    
C100  C111  1.498850 S    
C63   H31   1.110038 S    
C30   C34   1.388794 A    
C5    H5    1.065042 S    
N36   O8    1.301428 A    
C100  C104  1.398631 A    
C11   N11   1.327439 A    
C6    N6    1.320598 A    
C34   C81   1.450753 S    
C82   C86   1.394623 A    
C61   C62   1.551479 S    
N40   O15   1.299791 A    
C99   C100  1.376630 A    
C28   N28   1.347836 A    
C54   C61   1.545227 S    
C13   C45   1.372232 A    
N23   Ni3   1.890005 S    
C97   C98   1.376632 A    
C106  H50   1.082571 S    
C32   N32   1.342161 A    
C77   C81   1.405268 A    
C74   C80   1.411592 A    
C17   H17   1.074863 S    
C31   C35   1.393884 A    
N28   Ni7   1.849431 S    
C92   C94   1.506507 S    
C69   C73   1.418640 A    
N33   O2    1.301437 A    
N38   O12   1.300617 A    
N26   Ni5   1.849431 S    
C19   H19   1.074866 S    
C32   N40   1.426152 S    
C13   H13   1.081381 S    
C63   C64   1.551380 S    
C54   C58   1.521657 S    
C59   C63   1.532820 S    
C14   N14   1.325626 A    
C3    N3    1.320728 A    
C102  C106  1.405853 A    
C51   C60   1.534291 S    
C17   C41   1.384657 A    
C107  C108  1.397470 A    
C50   H26   1.109644 S    
C14   H14   1.077831 S    
C101  C105  1.408016 A    
C16   H16   1.077805 S    
N16   Ni7   1.864909 S    
C49   H25   1.110525 S    
N34   O3    1.301388 A    
C12   N12   1.324592 A    
C14   C46   1.368871 A    
C57   C61   1.532946 S    
C78   H34   1.079829 S    
N14   Ni5   1.864909 S    
N5    N25   1.392754 A    
N10   N18   1.386696 A    
C15   C47   1.372137 A    
C109  H53   1.110821 S    
C66   C88   1.367851 A    
N24   Ni4   1.878152 S    
C92   H40   1.112129 S    
N7    N27   1.392754 A    
C53   C57   1.521480 S    
C89   H37   1.112198 S    
N25   Ni6   1.855754 S    
C6    C38   1.370856 A    
N15   N23   1.386812 A    
C85   C89   1.498117 S    
C20   H20   1.080468 S    
C79   C83   1.405248 A    
C66   C94   1.501639 S    
C22   C46   1.370603 A    
C40   C72   1.453936 S    
C55   C59   1.521158 S    
