data_mof_unit_20177.cif
_audit_creation_date              2013-03-05T15:45:32-0500
_audit_creation_method            fapswitch 2.2
_symmetry_space_group_name_H-M    P1
_symmetry_Int_Tables_number       1
_space_group_crystal_system       triclinic
_cell_length_a                    11.390574
_cell_length_b                    11.656132
_cell_length_c                    19.381382
_cell_angle_alpha                 90.163981
_cell_angle_beta                  88.154362
_cell_angle_gamma                 61.483106
_cell_volume                      2259.40835535

loop_
_atom_site_label
_atom_site_type_symbol
_atom_site_description
_atom_site_fract_x
_atom_site_fract_y
_atom_site_fract_z
_atom_type_partial_charge
O1    O     O_R   0.507430 0.255570 0.581420 -0.525303
O2    O     O_R   0.280190 0.527390 0.578910 -0.443439
C1    C     C_R   0.245662 0.642292 0.609271 0.618856
O3    O     O_R   0.260310 0.739740 0.584580 -0.398968
O4    O     O_R   0.532250 0.695150 0.573830 -0.457702
C2    C     C_R   0.647855 0.613133 0.603787 0.592112
O5    O     O_R   0.744930 0.503430 0.576380 -0.396276
O6    O     O_R   0.699250 0.276390 0.571950 -0.505857
C3    C     C_R   0.621979 0.235456 0.604155 0.570956
O7    O     O_R   0.499020 0.256400 0.419850 -0.461483
O8    O     O_R   0.272400 0.528160 0.429140 -0.434202
C4    C     C_R   0.240307 0.641305 0.397783 0.552191
O9    O     O_R   0.251910 0.740570 0.423020 -0.494938
O10   O     O_R   0.524460 0.695920 0.424060 -0.467858
C5    C     C_R   0.637742 0.613865 0.390809 0.554367
O11   O     O_R   0.736530 0.504260 0.414810 -0.424041
O12   O     O_R   0.691460 0.277160 0.422180 -0.452549
C6    C     C_R   0.607748 0.243554 0.393460 0.560867
Cr1   Cr    Cr6+3 0.392930 0.397900 0.502230 1.198746
Cr2   Cr    Cr6+3 0.398240 0.708600 0.501260 1.172652
Cr3   Cr    Cr6+3 0.708800 0.393470 0.496460 1.201909
O13   O     O_3   0.499990 0.499990 0.499980 -0.372883
C7    C     C_3   0.569009 0.793234 0.788339 -0.040809
C8    C     C_3   0.552791 0.773312 0.708178 -0.102993
H1    H     H_    0.530739 0.855436 0.669212 0.224934
C9    C     C_3   0.828178 0.659036 0.762667 0.117526
C10   C     C_3   0.689786 0.542919 0.815980 0.024570
C11   C     C_3   0.704197 0.673344 0.814880 -0.055391
C12   C     C_3   0.668725 0.638797 0.679987 -0.020238
C13   C     C_3   0.804654 0.649085 0.681117 0.189957
C14   C     C_3   0.671867 0.522929 0.733268 -0.055498
C15   C     C_R   0.775419 0.157932 0.709910 -0.042097
C16   C     C_R   0.790202 0.138630 0.781416 -0.105152
H2    H     H_    0.884031 0.122789 0.804644 0.250635
C17   C     C_R   0.689359 0.133033 0.821830 -0.008989
C18   C     C_R   0.561910 0.167285 0.791869 0.257774
C19   C     C_R   0.543475 0.185864 0.720461 0.093735
C20   C     C_R   0.652268 0.182796 0.677220 0.020424
C21   C     C_R   0.207217 0.555528 0.720359 0.011876
C22   C     C_R   0.185623 0.570345 0.794220 0.162381
C23   C     C_R   0.151591 0.691654 0.828159 0.025538
C24   C     C_R   0.152168 0.793446 0.788695 0.261902
C25   C     C_R   0.169478 0.779343 0.717215 0.245535
C26   C     C_R   0.204214 0.658853 0.682864 -0.009083
C27   C     C_R   0.766205 0.545274 0.278497 0.199827
C28   C     C_R   0.776773 0.547677 0.206817 -0.070620
C29   C     C_R   0.676645 0.670959 0.173298 -0.085532
C30   C     C_R   0.561342 0.771410 0.212090 0.225564
C31   C     C_R   0.548328 0.757481 0.283615 0.189789
C32   C     C_R   0.651751 0.643878 0.317242 -0.045428
C33   C     C_R   0.520885 0.184105 0.289417 -0.040900
C34   C     C_R   0.544369 0.153133 0.218400 0.175121
C35   C     C_R   0.660774 0.133241 0.180601 -0.029415
C36   C     C_R   0.760357 0.145517 0.214284 -0.114669
H3    H     H_    0.852816 0.129118 0.186763 0.239338
C37   C     C_R   0.740377 0.181440 0.283406 0.198323
C38   C     C_R   0.624198 0.200543 0.321982 -0.019821
C39   C     C_R   0.173919 0.770713 0.291097 -0.094490
H4    H     H_    0.188779 0.846012 0.315794 0.258305
C40   C     C_R   0.132075 0.793706 0.224720 0.225510
C41   C     C_R   0.115458 0.697084 0.186644 -0.054579
C42   C     C_R   0.139111 0.579542 0.219526 -0.051038
C43   C     C_R   0.175828 0.563938 0.288543 0.216332
C44   C     C_R   0.194097 0.658023 0.325280 -0.031611
O14   O     O_R   0.089490 0.825610 0.930610 -0.429384
O15   O     O_R   0.818370 0.054540 0.929880 -0.464879
C45   C     C_R   0.708435 0.086880 0.894268 0.574025
O16   O     O_R   0.605870 0.077310 0.915530 -0.475612
O17   O     O_R   0.646440 0.806700 0.917570 -0.523743
C46   C     C_R   0.733386 0.693648 0.887554 0.593210
O18   O     O_R   0.837200 0.593290 0.915250 -0.464199
O19   O     O_R   0.065330 0.635370 0.931590 -0.453040
C47   C     C_R   0.104162 0.716129 0.902913 0.626054
O20   O     O_R   0.068300 0.828790 0.091860 -0.432088
O21   O     O_R   0.798730 0.057480 0.079370 -0.520726
C48   C     C_R   0.680984 0.090319 0.107086 0.569551
O22   O     O_R   0.584680 0.080480 0.076790 -0.406774
O23   O     O_R   0.626790 0.809640 0.067050 -0.421617
C49   C     C_R   0.703789 0.694763 0.099826 0.567665
O24   O     O_R   0.816010 0.596460 0.076500 -0.573112
O25   O     O_R   0.045680 0.638310 0.081070 -0.552004
C50   C     C_R   0.075944 0.720663 0.114489 0.541558
Cr4   Cr    Cr6+3 0.937620 0.938540 0.007640 1.172127
Cr5   Cr    Cr6+3 0.625150 0.937450 0.994520 1.178865
Cr6   Cr    Cr6+3 0.937990 0.625080 0.001190 1.114895
O26   O     O_3   0.833590 0.833690 0.001120 -0.374081
C51   C     C_2   0.572626 0.911890 0.787912 0.270092
H5    H     H_    0.629276 0.939502 0.818707 0.202415
O27   O     O_2   0.495778 0.989392 0.751621 -0.495164
C52   C     C_2   0.791812 0.398159 0.714264 0.330337
H6    H     H_    0.836519 0.330015 0.750638 0.208965
O28   O     O_2   0.848728 0.367687 0.659173 -0.379590
C53   C     C_2   0.947984 0.532610 0.786273 0.340309
H7    H     H_    0.968841 0.483605 0.833476 0.276510
O29   O     O_2   0.033100 0.451711 0.750110 -0.428168
Cl1   Cl    Cl    0.952162 0.512758 0.629444 -0.450269
C54   C     C_2   0.900093 0.135320 0.668763 0.361711
H8    H     H_    0.890462 0.151429 0.614381 0.184965
O30   O     O_2   0.990839 0.148139 0.694682 -0.344643
Cl2   Cl    Cl    0.418149 0.178031 0.843301 -0.371040
C55   C     C_2   0.413699 0.196122 0.691175 0.356013
H9    H     H_    0.390416 0.201970 0.639206 0.198781
O31   O     O_2   0.325477 0.185211 0.723225 -0.337426
C56   C     C_2   0.219927 0.434600 0.684696 0.364965
H10   H     H_    0.196078 0.363825 0.658289 0.410762
O32   O     O_2   0.219243 0.386142 0.629563 -0.645662
Cl3   Cl    Cl    0.203211 0.437778 0.846625 -0.433534
Cl4   Cl    Cl    0.131553 0.944300 0.824243 -0.439034
C57   C     C_2   0.444326 0.832150 0.836271 0.327949
H11   H     H_    0.384451 0.925397 0.864266 0.229720
O33   O     O_2   0.388949 0.767108 0.833225 -0.530287
Cl5   Cl    Cl    0.147213 0.917423 0.669598 -0.460809
Cl6   Cl    Cl    0.913011 0.418634 0.318771 -0.301557
C58   C     C_2   0.895045 0.418593 0.169644 0.295310
H12   H     H_    0.921245 0.418418 0.117025 0.171625
O34   O     O_2   0.976481 0.314139 0.194839 -0.320513
Cl7   Cl    Cl    0.419057 0.897824 0.170636 -0.331988
Cl8   Cl    Cl    0.402579 0.886555 0.328015 -0.463562
C59   C     C_2   0.388876 0.190229 0.321256 0.420311
H13   H     H_    0.315745 0.188121 0.288643 0.272299
O35   O     O_2   0.339616 0.215528 0.380698 -0.354244
Cl9   Cl    Cl    0.415961 0.151026 0.174410 -0.406955
Cl10  Cl    Cl    0.876113 0.181756 0.320876 -0.389557
C60   C     C_2   0.422664 0.794074 0.701509 0.263995
H14   H     H_    0.343241 0.866217 0.730420 0.256326
O36   O     O_2   0.404700 0.719970 0.668953 -0.515222
Cl11  Cl    Cl    0.110206 0.947781 0.195937 -0.385084
C61   C     C_2   0.123963 0.473672 0.183255 0.361852
H15   H     H_    0.042510 0.501518 0.151262 0.125346
O37   O     O_2   0.188259 0.358107 0.194400 -0.355712
Cl12  Cl    Cl    0.168836 0.441184 0.332713 -0.424019
Cl13  Cl    Cl    0.858674 0.799000 0.776530 -0.715012
C62   C     C_2   0.800052 0.762173 0.635709 0.309278
H16   H     H_    0.882856 0.734669 0.596851 0.173839
O38   O     O_2   0.718342 0.877918 0.643152 -0.508960
Cl14  Cl    Cl    0.827993 0.390101 0.861902 -0.597514
C63   C     C_2   0.574586 0.548664 0.866603 0.353146
H17   H     H_    0.554887 0.468036 0.861594 0.138342
O39   O     O_2   0.515526 0.625278 0.915424 -0.406535
C64   C     C_2   0.541028 0.511435 0.730165 0.206185
H18   H     H_    0.447652 0.581359 0.754659 0.182322
O40   O     O_2   0.528847 0.426867 0.700815 -0.572002

loop_
_geom_bond_atom_site_label_1
_geom_bond_atom_site_label_2
_geom_bond_distance
_ccdc_geom_bond_type
C19   C55   1.551548 S    
C51   H5    1.047946 S    
C55   H9    1.043953 S    
C23   C24   1.416042 A    
C17   C18   1.451305 A    
C29   C49   1.502053 S    
O20   Cr4   2.206096 S    
O21   C48   1.302349 A    
C61   H15   1.049432 S    
C56   O32   1.209223 D    
C58   H12   1.053048 S    
C21   C56   1.509525 S    
O4    Cr2   2.060085 S    
C35   C36   1.391200 A    
C37   C38   1.419076 A    
C63   O39   1.235290 D    
O8    Cr1   2.084254 S    
C10   C63   1.588010 S    
C10   Cl14  1.966006 S    
C18   C19   1.408339 A    
C19   C20   1.459422 A    
C64   O40   1.202898 D    
C41   C50   1.469175 S    
C57   O33   1.197882 D    
O4    C2    1.354787 A    
C4    C44   1.496966 S    
O14   Cr4   2.145287 S    
C39   C40   1.368757 A    
C5    O11   1.333875 A    
C54   H8    1.071041 S    
C8    C60   1.393648 S    
O14   C47   1.315767 A    
C15   C54   1.513465 S    
C28   C29   1.508617 A    
C5    C32   1.490746 S    
C8    C12   1.572384 S    
C13   Cl1   1.919455 S    
O15   Cr4   2.081937 S    
O18   Cr6   2.180717 S    
C34   Cl9   1.726665 S    
C31   Cl8   1.809930 S    
O6    C3    1.326360 A    
C33   C59   1.576186 S    
C7    C8    1.599756 S    
C46   O18   1.333619 A    
C33   C38   1.443028 A    
C43   Cl12  1.702318 S    
C12   C13   1.609832 S    
C14   C52   1.478056 S    
C9    C53   1.538541 S    
O15   C45   1.339029 A    
C55   O31   1.222347 D    
C7    C51   1.403250 S    
Cr3   O13   2.091091 S    
C41   C42   1.421085 A    
O20   C50   1.299708 A    
C56   H10   1.112138 S    
C54   O30   1.234350 D    
O25   C50   1.336630 A    
C2    O5    1.322174 A    
C59   O35   1.235913 D    
O19   Cr6   1.994725 S    
C39   C44   1.394140 A    
C7    C57   1.543768 S    
C36   C37   1.381311 A    
C1    C26   1.470590 S    
O1    Cr1   2.210541 S    
C28   C58   1.610501 S    
C43   C44   1.405672 A    
C10   C14   1.652322 S    
C45   O16   1.280941 A    
O16   Cr5   2.178011 S    
C37   Cl10  1.730775 S    
O10   Cr2   1.996219 S    
Cr1   O13   2.070636 S    
O1    C3    1.302730 A    
C8    H1    1.156097 S    
C21   C22   1.440469 A    
O23   C49   1.373004 A    
O22   Cr5   2.176707 S    
C39   H4    1.082949 S    
Cr6   O26   2.136794 S    
O12   Cr3   2.052415 S    
C33   C34   1.406279 A    
C61   O37   1.211367 D    
C40   C41   1.434089 A    
C25   C26   1.421041 A    
O24   Cr6   2.118248 S    
O23   Cr5   2.045227 S    
C6    C38   1.447503 S    
C52   O28   1.191603 D    
C29   C30   1.457442 A    
C17   C45   1.489975 S    
O7    Cr1   2.165047 S    
C59   H13   1.071177 S    
C13   C62   1.567962 S    
C2    C12   1.554052 S    
C42   C43   1.400740 A    
O12   C6    1.327427 A    
C18   Cl2   1.840955 S    
C53   H7    1.052194 S    
C7    C11   1.609073 S    
C48   O22   1.312435 A    
C21   C26   1.395361 A    
C22   Cl3   1.784928 S    
C30   C31   1.407518 A    
Cr2   O13   2.136209 S    
C9    C13   1.624587 S    
C15   C20   1.457145 A    
C51   O27   1.168455 D    
C62   H16   1.106211 S    
C27   C28   1.392110 A    
C35   C48   1.482641 S    
C25   Cl5   1.772087 S    
C1    O3    1.313761 A    
C9    Cl13  1.843662 S    
C34   C35   1.411178 A    
C60   O36   1.166210 D    
C36   H3    1.095992 S    
C22   C23   1.427301 A    
O9    Cr2   2.188483 S    
O2    Cr1   2.037014 S    
C40   Cl11  1.784972 S    
C11   C46   1.501288 S    
Cr5   O26   2.096378 S    
O19   C47   1.332445 A    
O6    Cr3   2.039077 S    
C58   O34   1.239142 D    
O8    C4    1.341967 A    
O11   Cr3   2.154225 S    
C30   Cl7   1.803826 S    
C63   H17   1.070163 S    
C9    C11   1.651769 S    
C15   C16   1.407233 A    
O2    C1    1.331285 A    
C12   C14   1.689944 S    
O17   Cr5   2.053426 S    
O5    Cr3   2.178251 S    
C57   H11   1.098121 S    
C42   C61   1.500998 S    
O21   Cr4   2.027478 S    
C52   H6    1.013575 S    
C27   C32   1.444226 A    
O7    C6    1.264731 A    
C64   H18   1.076313 S    
C3    C20   1.528199 S    
C16   C17   1.396823 A    
C16   H2    1.105479 S    
O17   C46   1.329704 A    
C23   C47   1.507452 S    
C49   O24   1.308644 A    
O3    Cr2   2.120516 S    
C27   Cl6   1.821617 S    
Cr4   O26   2.074918 S    
C4    O9    1.320005 A    
C53   O29   1.183177 D    
C31   C32   1.459755 A    
C24   C25   1.391170 A    
C10   C11   1.605232 S    
C62   O38   1.224131 D    
O10   C5    1.326503 A    
C14   C64   1.561752 S    
C24   Cl4   1.791678 S    
O25   Cr6   2.055944 S    
C60   H14   1.038169 S    
