data_mof_unit_54350.cif
_audit_creation_date              2012-12-10T17:50:15-0500
_audit_creation_method            fapswitch 2.2
_symmetry_space_group_name_H-M    P1
_symmetry_Int_Tables_number       1
_space_group_crystal_system       triclinic
_cell_length_a                    10.61679
_cell_length_b                    14.725671
_cell_length_c                    14.528859
_cell_angle_alpha                 65.553945
_cell_angle_beta                  103.662909
_cell_angle_gamma                 102.72889
_cell_volume                      1989.90036059

loop_
_atom_site_label
_atom_site_type_symbol
_atom_type_description
_atom_site_fract_x
_atom_site_fract_y
_atom_site_fract_z
_atom_type_partial_charge
C1    C     C_R   0.480523 0.119048 0.311111 0.846712
C2    C     C_R   0.522938 0.880609 0.689181 0.845222
C3    C     C_R   0.465682 0.287258 0.175448 -0.314054
C4    C     C_R   0.490164 0.710203 0.822184 -0.321316
C5    C     C_R   0.468869 0.359131 0.075202 0.099297
C6    C     C_R   0.499658 0.638748 0.923296 0.094454
C7    C     C_R   0.461445 0.324081 0.996811 0.080731
C8    C     C_R   0.533432 0.674562 0.003479 0.078028
C9    C     C_R   0.482724 0.464709 0.051136 0.086514
C10   C     C_R   0.479481 0.533040 0.946912 0.088394
C11   C     C_R   0.465613 0.493768 0.870550 -0.226076
C12   C     C_R   0.508361 0.504518 0.128320 -0.234558
C13   C     C_R   0.457565 0.391417 0.895444 -0.206602
C14   C     C_R   0.534412 0.607356 0.104671 -0.204720
C15   C     C_R   0.737126 0.295203 0.653070 -0.259123
C16   C     C_R   0.264754 0.706702 0.344175 -0.251656
C17   C     C_R   0.698686 0.212034 0.625741 0.141000
C18   C     C_R   0.304708 0.790743 0.370126 0.131111
C19   C     C_R   0.510906 0.281053 0.515792 0.043415
C20   C     C_R   0.486129 0.717302 0.486908 0.023827
C21   C     C_R   0.547293 0.370525 0.537133 -0.060887
C22   C     C_R   0.449427 0.627987 0.465400 -0.060522
C23   C     C_R   0.259386 0.000270 0.500030 0.778069
C24   C     C_R   0.740621 0.999705 0.500026 0.817272
C25   C     C_R   0.661769 0.374742 0.609823 0.046961
C26   C     C_R   0.336432 0.624812 0.391124 0.040740
C27   C     C_R   0.475910 0.455484 0.488652 0.005691
C28   C     C_R   0.519749 0.542505 0.514781 0.006462
C29   C     C_R   0.631970 0.541020 0.589922 -0.299406
C30   C     C_R   0.363290 0.456801 0.413890 -0.298162
C31   C     C_R   0.700574 0.458326 0.638173 0.490973
C32   C     C_R   0.295952 0.540280 0.364329 0.492731
C33   C     C_3   0.010210 0.923877 0.475344 -0.136629
C34   C     C_3   0.989812 0.076091 0.524829 -0.121972
C35   C     C_3   0.931713 0.011939 0.406228 -0.153805
C36   C     C_3   0.068347 0.988039 0.593943 -0.148543
C37   C     C_3   0.877516 0.999760 0.500030 0.010115
C38   C     C_3   0.122506 0.000206 0.500120 0.012206
C39   C     C_3   0.953808 0.911835 0.569201 -0.164880
C40   C     C_3   0.046225 0.088137 0.430978 -0.176071
C41   C     C_R   0.471468 0.185241 0.200928 -0.181450
C42   C     C_R   0.532071 0.813397 0.799609 -0.183732
C43   C     C_R   0.461863 0.221998 0.020356 -0.252469
C44   C     C_R   0.571715 0.777257 0.982502 -0.239245
C45   C     C_R   0.472190 0.152348 0.121733 0.437382
C46   C     C_R   0.579453 0.846560 0.882305 0.445949
Cu1   Cu    Cu3+1 0.465750 0.918270 0.475680 0.976182
Cu2   Cu    Cu3+1 0.534250 0.081730 0.524320 0.992074
H1    H     H_    0.873031 0.021713 0.329451 0.184987
H2    H     H_    0.127461 0.978408 0.670596 0.152363
H3    H     H_    0.570604 0.726731 0.541621 0.125763
H4    H     H_    0.424568 0.270487 0.463047 0.118224
H5    H     H_    0.247886 0.852742 0.334955 0.153509
H6    H     H_    0.759863 0.153449 0.655871 0.164404
H7    H     H_    0.826722 0.297459 0.706864 0.188991
H8    H     H_    0.177475 0.706019 0.287845 0.194083
H9    H     H_    0.670501 0.603433 0.613474 0.147399
H10   H     H_    0.323937 0.393777 0.391423 0.143685
H11   H     H_    0.021060 0.861458 0.455010 0.150727
H12   H     H_    0.978893 0.138482 0.545181 0.147550
H13   H     H_    0.912683 0.839753 0.625534 0.142227
H14   H     H_    0.087326 0.160233 0.374648 0.139427
H15   H     H_    0.451577 0.365052 0.834809 0.152217
H16   H     H_    0.558576 0.634363 0.166628 0.152729
H17   H     H_    0.449090 0.686669 0.759165 0.178875
H18   H     H_    0.457749 0.308909 0.235820 0.163756
H19   H     H_    0.458444 0.197285 0.959048 0.194132
H20   H     H_    0.602580 0.802437 0.045704 0.197344
H21   H     H_    0.468040 0.540292 0.790890 0.142428
H22   H     H_    0.516096 0.458587 0.208890 0.145092
N1    N     N_R   0.585750 0.204560 0.560800 -0.177333
N2    N     N_R   0.414250 0.795440 0.439200 -0.185171
O1    O     O_R   0.454850 0.022100 0.338110 -0.509385
O2    O     O_R   0.545150 0.977900 0.661890 -0.497379
O3    O     O_R   0.512700 0.160150 0.379180 -0.605786
O4    O     O_R   0.487300 0.839850 0.620820 -0.608141
O5    O     O_R   0.287930 0.931000 0.479440 -0.600301
O6    O     O_R   0.712070 0.069000 0.520560 -0.594083
O7    O     O_R   0.345780 0.069050 0.520520 -0.587038
O8    O     O_R   0.654220 0.930950 0.479480 -0.577980
S1    S     S_3+6 0.662888 0.968695 0.867639 0.014756
O9    O     O_2   0.570364 0.045560 0.811601 -0.261805
O10   O     O_2   0.721017 0.974245 0.970476 -0.269613
O11   O     O_3   0.784387 0.992543 0.801162 -0.577794
H23   H     H_    0.854428 0.037667 0.826199 0.360674
S2    S     S_3+6 0.488420 0.027423 0.143210 0.012875
O12   O     O_2   0.362525 0.960631 0.169960 -0.321290
O13   O     O_2   0.515689 0.022827 0.048414 -0.234140
O14   O     O_3   0.612230 0.986376 0.239419 -0.541950
H24   H     H_    0.600767 0.912624 0.258087 0.370464
O15   O     O_3   0.811998 0.462423 0.709368 -0.582986
C47   C     C_3   0.773700 0.439177 0.804097 -0.307204
H25   H     H_    0.713239 0.363767 0.830283 0.174654
H26   H     H_    0.720198 0.498073 0.800082 0.163125
H27   H     H_    0.862915 0.436784 0.862587 0.202027
O16   O     O_3   0.183849 0.536175 0.293677 -0.582086
C48   C     C_3   0.220738 0.553285 0.200121 -0.308643
H28   H     H_    0.267926 0.490002 0.206852 0.161135
H29   H     H_    0.286312 0.626012 0.172291 0.172723
H30   H     H_    0.131332 0.557824 0.141478 0.202125

loop_
_geom_bond_atom_site_label_1
_geom_bond_atom_site_label_2
_ccdc_geom_bond_type
C25   C31   A    
C38   C40   S    
C26   C32   A    
C34   C37   S    
C19   N1    A    
C48   H30   S    
C48   H28   S    
C36   H2    S    
C33   C39   S    
C34   C40   S    
Cu2   O7    S    
C28   C29   A    
C35   C37   S    
Cu1   O4    S    
C20   H3    S    
C4    H17   S    
S2    O13   D    
C15   C25   A    
C40   H14   S    
C42   C46   A    
Cu2   O6    S    
C12   H22   S    
C18   H5    S    
C48   H29   S    
C19   H4    S    
C24   O8    A    
C18   N2    A    
C35   H1    S    
C7    C43   A    
C9    C10   A    
C2    O2    A    
C21   C27   A    
C33   H11   S    
C22   C28   A    
C27   C30   A    
C34   H12   S    
Cu2   O3    S    
Cu1   O8    S    
S1    O10   D    
C44   C46   A    
S1    O9    D    
C16   C26   A    
C39   H13   S    
C29   H9    S    
C1    O3    A    
Cu2   O2    S    
O11   H23   S    
Cu1   O1    S    
C4    C6    A    
O15   C47   S    
C5    C7    A    
S2    O12   D    
C6    C8    A    
C47   H27   S    
C15   H7    S    
C16   H8    S    
C43   H19   S    
C5    C9    A    
C46   S1    S    
Cu1   Cu2   S    
C13   H15   S    
C7    C13   A    
C14   H16   S    
O16   C48   S    
C47   H26   S    
C24   C37   S    
C23   O5    A    
C43   C45   A    
C24   O6    A    
C32   O16   S    
C20   C22   A    
C17   N1    A    
C31   O15   S    
C44   H20   S    
C3    H18   S    
Cu1   O5    S    
Cu2   N1    S    
S1    O11   S    
C2    O4    A    
C1    C41   S    
C15   C17   A    
C21   C25   A    
C3    C41   A    
C8    C14   A    
C19   C21   A    
C36   C39   S    
C8    C44   A    
C12   C14   A    
C3    C5    A    
S2    O14   S    
C6    C10   A    
C11   H21   S    
C23   C38   S    
C33   C38   S    
C1    O1    A    
C36   C38   S    
C45   S2    S    
C29   C31   A    
C30   C32   A    
C11   C13   A    
C4    C42   A    
C2    C42   S    
C30   H10   S    
C47   H25   S    
C33   C35   S    
C35   C40   S    
C34   C36   S    
C9    C12   A    
Cu1   N2    S    
C10   C11   A    
C37   C39   S    
C16   C18   A    
C22   C26   A    
C27   C28   A    
C41   C45   A    
C20   N2    A    
C23   O7    A    
O14   H24   S    
C17   H6    S    
