data_mof_unit_37009.cif
_audit_creation_date              2012-12-11T14:58:23-0500
_audit_creation_method            fapswitch 2.2
_symmetry_space_group_name_H-M    P1
_symmetry_Int_Tables_number       1
_space_group_crystal_system       triclinic
_cell_length_a                    10.992313
_cell_length_b                    10.96332
_cell_length_c                    18.762904
_cell_angle_alpha                 90.404906
_cell_angle_beta                  90.528275
_cell_angle_gamma                 59.660533
_cell_volume                      1951.39836306

loop_
_atom_site_label
_atom_site_type_symbol
_atom_type_description
_atom_site_fract_x
_atom_site_fract_y
_atom_site_fract_z
_atom_type_partial_charge
C1    C     C_R   0.359619 0.771702 0.397631 0.540503
C2    C     C_R   0.590508 0.094066 0.184308 0.034765
C3    C     C_R   0.341016 0.306752 0.171979 0.004743
C4    C     C_R   0.437907 0.200421 0.286168 -0.148892
C5    C     C_R   0.448495 0.194979 0.212724 -0.022945
C6    C     C_R   0.068253 0.697344 0.289498 -0.077676
C7    C     C_R   0.958187 0.817289 0.321846 -0.094521
C8    C     C_R   0.625111 0.965091 0.152044 -0.046225
C9    C     C_R   0.761499 0.874793 0.125667 0.004190
C10   C     C_R   0.229148 0.422160 0.206888 -0.157912
C11   C     C_R   0.226396 0.433608 0.280970 -0.030578
C12   C     C_R   0.379993 0.350138 0.390791 0.534133
C13   C     C_R   0.884908 0.803142 0.378503 -0.110326
C14   C     C_R   0.922475 0.668938 0.403537 -0.100237
C15   C     C_R   0.032901 0.548602 0.371706 -0.048736
C16   C     C_R   0.107307 0.561478 0.314394 0.058511
C17   C     C_R   0.338210 0.324134 0.320607 -0.009425
C18   C     C_R   0.956813 0.296704 0.308665 -0.157590
C19   C     C_R   0.986148 0.289624 0.236524 -0.134975
C20   C     C_R   0.876596 0.336029 0.186227 0.026988
C21   C     C_R   0.736735 0.404680 0.207427 -0.170011
C22   C     C_R   0.707134 0.412601 0.279555 -0.136236
C23   C     C_R   0.778711 0.377912 0.403524 0.530741
C24   C     C_R   0.817225 0.355941 0.329775 0.044621
C25   C     C_R   0.475029 0.764938 0.284970 -0.131084
C26   C     C_R   0.463544 0.784979 0.211627 -0.167840
C27   C     C_R   0.331587 0.875813 0.182246 0.028125
C28   C     C_R   0.214185 0.948172 0.226717 -0.134069
C29   C     C_R   0.223259 0.922314 0.298599 -0.151612
C30   C     C_R   0.352892 0.826943 0.327507 0.032006
C31   C     C_R   0.380077 0.199303 0.692931 -0.138841
C32   C     C_R   0.368714 0.185701 0.765023 -0.123366
C33   C     C_R   0.297815 0.306482 0.808552 0.032489
C34   C     C_R   0.345104 0.768404 0.604823 0.545836
C35   C     C_R   0.227681 0.440966 0.778665 -0.158883
C36   C     C_R   0.238110 0.454744 0.705952 -0.135092
C37   C     C_R   0.320435 0.333827 0.663740 0.030696
C38   C     C_R   0.906209 0.394627 0.707708 -0.130545
C39   C     C_R   0.943499 0.375978 0.779010 -0.131400
C40   C     C_R   0.921152 0.283764 0.820668 0.027982
C41   C     C_R   0.871251 0.201196 0.788705 -0.134687
C42   C     C_R   0.831591 0.221388 0.716970 -0.136726
C43   C     C_R   0.842920 0.323297 0.677137 0.027383
C44   C     C_R   0.196730 0.847711 0.711392 -0.137376
C45   C     C_R   0.368694 0.350629 0.595270 0.543737
C46   C     C_R   0.186709 0.858031 0.784615 -0.137673
C47   C     C_R   0.300932 0.842572 0.825468 0.035514
C48   C     C_R   0.427154 0.811735 0.792463 -0.140563
C49   C     C_R   0.437816 0.799831 0.719067 -0.140316
C50   C     C_R   0.322922 0.816573 0.678158 0.030613
C51   C     C_R   0.912405 0.316306 0.112131 0.550025
C52   C     C_R   0.324904 0.288106 0.095933 0.558709
C53   C     C_R   0.305740 0.902571 0.106480 0.535806
C54   C     C_R   0.948151 0.280345 0.897133 0.573598
C55   C     C_R   0.292663 0.284963 0.883913 0.550258
C56   C     C_R   0.768195 0.373810 0.609260 0.546752
C57   C     C_R   0.275743 0.893331 0.898185 0.540937
C58   C     C_R   0.865463 0.911284 0.135885 -0.091645
C59   C     C_R   0.832481 0.035630 0.171578 -0.117896
C60   C     C_R   0.697003 0.124779 0.196224 -0.118569
Cr1   Cr    Cr6+3 0.601770 0.606860 0.505860 0.995050
Cr2   Cr    Cr6+3 0.291380 0.601660 0.495070 1.018770
Cr3   Cr    Cr6+3 0.606880 0.291510 0.499120 1.006736
Cr4   Cr    Cr6+3 0.062440 0.063090 0.008210 1.000889
Cr5   Cr    Cr6+3 0.062880 0.375170 0.998920 0.968389
Cr6   Cr    Cr6+3 0.374700 0.061720 0.992470 0.973855
H1    H     H_    0.522941 0.115411 0.316246 0.145102
H2    H     H_    0.799883 0.896260 0.403429 0.109163
H3    H     H_    0.866958 0.658309 0.448182 0.125532
H4    H     H_    0.062305 0.445711 0.392749 0.095771
H5    H     H_    0.041737 0.256516 0.347454 0.095453
H6    H     H_    0.094424 0.245261 0.219624 0.123999
H7    H     H_    0.651773 0.445763 0.168558 0.110973
H8    H     H_    0.598267 0.461176 0.296340 0.121705
H9    H     H_    0.577501 0.693345 0.307683 0.151365
H10   H     H_    0.555342 0.727491 0.178432 0.098965
H11   H     H_    0.113856 0.022611 0.204893 0.128741
H12   H     H_    0.129084 0.972566 0.330936 0.118242
H13   H     H_    0.442292 0.105462 0.660921 0.122264
H14   H     H_    0.418567 0.080092 0.786993 0.139210
H15   H     H_    0.169401 0.534284 0.811548 0.115787
H16   H     H_    0.190927 0.560252 0.683995 0.139240
H17   H     H_    0.918378 0.471999 0.677844 0.129561
H18   H     H_    0.983486 0.439184 0.802601 0.133957
H19   H     H_    0.855607 0.127382 0.819727 0.127262
H20   H     H_    0.783627 0.164511 0.694226 0.131138
H21   H     H_    0.107061 0.859449 0.681086 0.127242
H22   H     H_    0.930545 0.921505 0.303650 0.111447
H23   H     H_    0.087228 0.884382 0.808776 0.125789
H24   H     H_    0.515838 0.801416 0.823188 0.121276
H25   H     H_    0.537347 0.772998 0.694771 0.134336
H26   H     H_    0.972191 0.842395 0.117615 0.118740
H27   H     H_    0.911595 0.062488 0.181761 0.132061
H28   H     H_    0.674126 0.216220 0.227000 0.129934
H29   H     H_    0.124745 0.710614 0.246064 0.107240
H30   H     H_    0.546029 0.937084 0.146821 0.147785
H31   H     H_    0.142621 0.504190 0.176323 0.128867
O1    O     O_R   0.748800 0.497470 0.428000 -0.532070
O2    O     O_R   0.300070 0.471040 0.567100 -0.512153
O3    O     O_R   0.491670 0.258900 0.574910 -0.521915
O4    O     O_R   0.718780 0.304180 0.577850 -0.503310
O5    O     O_3   0.500010 0.500010 0.500020 -0.243508
O6    O     O_R   0.186690 0.923650 0.086970 -0.529439
O7    O     O_R   0.957250 0.194250 0.084630 -0.503464
O8    O     O_R   0.934970 0.407490 0.085330 -0.535997
O9    O     O_R   0.203780 0.365190 0.067090 -0.512377
O10   O     O_R   0.417600 0.174890 0.067840 -0.515017
O11   O     O_R   0.375320 0.946260 0.070860 -0.525064
O12   O     O_R   0.476420 0.724060 0.429470 -0.513203
O13   O     O_R   0.160600 0.919630 0.926660 -0.531382
O14   O     O_R   0.933060 0.190520 0.936020 -0.498111
O15   O     O_R   0.908880 0.403460 0.925020 -0.535090
O16   O     O_R   0.179600 0.361450 0.918490 -0.529198
O17   O     O_R   0.391510 0.170860 0.907530 -0.526741
O18   O     O_R   0.351130 0.942530 0.922260 -0.522145
O19   O     O_3   0.166667 0.166667 0.999870 -0.266050
O20   O     O_R   0.264580 0.744340 0.416750 -0.505173
O21   O     O_R   0.309380 0.472470 0.418200 -0.491335
O22   O     O_R   0.501710 0.260430 0.414300 -0.531410
O23   O     O_R   0.728090 0.305600 0.428960 -0.502165
O24   O     O_R   0.738760 0.495930 0.588610 -0.529530
O25   O     O_R   0.467110 0.722640 0.578360 -0.506781
O26   O     O_R   0.254530 0.742800 0.577360 -0.528678
C61   C     C_3   0.797794 0.739349 0.087695 -0.251297
C62   C     C_3   0.832215 0.742610 0.008792 -0.304743
C63   C     C_3   0.702214 0.845198 0.965575 -0.386803
H32   H     H_    0.619734 0.815585 0.969528 0.173520
H33   H     H_    0.659608 0.955082 0.985182 0.188713
H34   H     H_    0.731113 0.840751 0.908676 0.113910
H35   H     H_    0.915293 0.771228 0.003261 0.145113
H36   H     H_    0.874559 0.635131 0.986058 0.197513
H37   H     H_    0.891212 0.652045 0.114739 0.157637
H38   H     H_    0.710815 0.716042 0.091449 0.140709

loop_
_geom_bond_atom_site_label_1
_geom_bond_atom_site_label_2
_ccdc_geom_bond_type
C33   C55   S    
Cr4   O6    S    
C63   H32   S    
Cr4   O19   S    
C38   H17   S    
C41   C42   A    
Cr1   O1    S    
C8    H30   S    
Cr6   O10   S    
Cr3   O4    S    
Cr1   O12   S    
C35   H15   S    
C57   O18   A    
C46   H23   S    
C28   C29   A    
C26   C27   A    
Cr3   O3    S    
Cr6   O19   S    
C61   H38   S    
C18   C24   A    
C36   C37   A    
C56   O4    A    
C18   C19   A    
C20   C51   S    
C38   C39   A    
C33   C35   A    
C2    C60   A    
C47   C57   S    
C15   C16   A    
C21   H7    S    
C18   H5    S    
C9    C61   S    
C61   H37   S    
Cr1   O24   S    
C9    C58   A    
C7    H22   S    
Cr2   O20   S    
C1    O12   A    
C62   H35   S    
C29   H12   S    
C31   C32   A    
C52   O10   A    
C36   H16   S    
C8    C9    A    
C12   C17   S    
C26   H10   S    
C23   C24   S    
C42   H20   S    
C44   H21   S    
C52   O9    A    
C59   C60   A    
C34   O25   A    
C48   H24   S    
C21   C22   A    
C19   H6    S    
C49   H25   S    
Cr3   O5    S    
Cr5   O8    S    
Cr2   O26   S    
C44   C46   A    
C34   C50   S    
Cr6   O18   S    
C45   O2    A    
C23   O23   A    
Cr4   O14   S    
C55   O16   A    
C63   H34   S    
C51   O7    A    
C31   C37   A    
Cr1   O25   S    
C25   H9    S    
C35   C36   A    
C10   H31   S    
Cr5   O15   S    
C29   C30   A    
C32   H14   S    
C12   O22   A    
Cr3   O22   S    
C11   C16   S    
C62   H36   S    
Cr4   O13   S    
C47   C48   A    
C51   O8    A    
C54   O15   A    
C1    O20   A    
C28   H11   S    
C12   O21   A    
C4    C17   A    
C40   C41   A    
C49   C50   A    
C40   C54   S    
C62   C63   S    
C14   H3    S    
C22   C24   A    
C58   C59   A    
C2    C5    S    
C42   C43   A    
C22   H8    S    
C37   C45   S    
Cr5   O9    S    
C39   C40   A    
C44   C50   A    
C25   C30   A    
Cr4   O7    S    
C15   H4    S    
C46   C47   A    
C11   C17   A    
C63   H33   S    
Cr6   O17   S    
Cr5   O16   S    
C2    C8    A    
Cr6   O11   S    
C4    C5    A    
C3    C5    A    
C45   O3    A    
C39   H18   S    
C4    H1    S    
C3    C52   S    
C27   C53   S    
C57   O13   A    
C31   H13   S    
C6    C7    A    
C55   O17   A    
C41   H19   S    
C56   O24   A    
C19   C20   A    
Cr1   O5    S    
C25   C26   A    
C38   C43   A    
C3    C10   A    
C32   C33   A    
Cr3   O23   S    
C53   O11   A    
C53   O6    A    
C48   C49   A    
C1    C30   S    
Cr5   O19   S    
C54   O14   A    
Cr2   O21   S    
C10   C11   A    
C6    C16   A    
Cr2   O2    S    
C43   C56   S    
C7    C13   A    
C23   O1    A    
C20   C21   A    
C6    H29   S    
C27   C28   A    
C34   O26   A    
C14   C15   A    
C59   H27   S    
C13   C14   A    
C58   H26   S    
C61   C62   S    
Cr2   O5    S    
C13   H2    S    
C60   H28   S    
