data_mof_unit_68612.cif
_audit_creation_date              2012-12-11T15:45:08-0500
_audit_creation_method            fapswitch 2.2
_symmetry_space_group_name_H-M    P1
_symmetry_Int_Tables_number       1
_space_group_crystal_system       triclinic
_cell_length_a                    19.396341
_cell_length_b                    11.081428
_cell_length_c                    18.544746
_cell_angle_alpha                 90.467105
_cell_angle_beta                  90.841157
_cell_angle_gamma                 89.911826
_cell_volume                      3985.42605274

loop_
_atom_site_label
_atom_site_type_symbol
_atom_type_description
_atom_site_fract_x
_atom_site_fract_y
_atom_site_fract_z
_atom_type_partial_charge
C1    C     C_R   0.759541 0.534929 0.646874 0.528129
C2    C     C_R   0.239254 0.533448 0.353103 0.539691
C3    C     C_R   0.259124 0.036232 0.647518 0.523460
C4    C     C_R   0.741011 0.036704 0.352533 0.530837
C5    C     C_R   0.839485 0.110561 0.520674 -0.159544
C6    C     C_R   0.162974 0.108834 0.478228 -0.161949
C7    C     C_R   0.332660 0.610766 0.521667 -0.182682
C8    C     C_R   0.662339 0.609409 0.478271 -0.159939
C9    C     C_R   0.828882 0.084997 0.447285 -0.162953
C10   C     C_R   0.173251 0.080813 0.550909 -0.169305
C11   C     C_R   0.320040 0.580048 0.450492 -0.181222
C12   C     C_R   0.673551 0.580668 0.550737 -0.158579
C13   C     C_3   0.651762 0.211176 0.452590 -0.136631
C14   C     C_3   0.348231 0.221325 0.553322 -0.148786
C15   C     C_3   0.155787 0.747428 0.447025 -0.155322
C16   C     C_3   0.850658 0.711324 0.547861 -0.140249
C17   C     C_3   0.665369 0.252069 0.530253 -0.249915
C18   C     C_3   0.336402 0.264050 0.475767 -0.256469
C19   C     C_3   0.178360 0.793998 0.521001 -0.238640
C20   C     C_3   0.836252 0.761775 0.472557 -0.253893
C21   C     C_R   0.790240 0.175484 0.559589 -0.013120
C22   C     C_R   0.211533 0.176027 0.440652 -0.019956
C23   C     C_R   0.280361 0.658830 0.563139 -0.014940
C24   C     C_R   0.711750 0.674052 0.440182 -0.011304
C25   C     C_R   0.997902 0.333247 0.425277 -0.033467
C26   C     C_R   0.006816 0.328469 0.576961 -0.029374
C27   C     C_R   0.506248 0.843915 0.430030 -0.021887
C28   C     C_R   0.513314 0.834039 0.581620 -0.041521
C29   C     C_R   0.990227 0.111231 0.423052 -0.101278
C30   C     C_R   0.011660 0.106914 0.572277 -0.103655
C31   C     C_R   0.486524 0.624821 0.426645 -0.108340
C32   C     C_R   0.513868 0.612960 0.574141 -0.102316
C33   C     C_R   0.997823 0.001964 0.458188 -0.162023
C34   C     C_R   0.010796 0.000231 0.532088 -0.159822
C35   C     C_R   0.488609 0.514093 0.460582 -0.163750
C36   C     C_R   0.506019 0.507761 0.533334 -0.161921
C37   C     C_R   0.003676 0.218569 0.537792 0.006182
C38   C     C_R   0.997535 0.220943 0.461195 0.006444
C39   C     C_R   0.509563 0.726491 0.540925 0.006081
C40   C     C_R   0.501687 0.731909 0.465155 0.001415
C41   C     C_R   0.017762 0.433495 0.538561 -0.035483
C42   C     C_R   0.993657 0.438457 0.467263 -0.033535
C43   C     C_R   0.528309 0.942727 0.546839 -0.046357
C44   C     C_R   0.508245 0.951698 0.472522 -0.032322
C45   C     C_R   0.793096 0.175887 0.639633 0.559720
C46   C     C_R   0.207464 0.176095 0.360633 0.563059
C47   C     C_R   0.291866 0.673981 0.639767 0.557446
C48   C     C_R   0.707479 0.675640 0.360557 0.562470
C49   C     C_R   0.044243 0.537753 0.572291 0.303828
C50   C     C_R   0.969985 0.549954 0.440077 0.281633
C51   C     C_R   0.546072 0.050137 0.586596 0.295482
C52   C     C_R   0.487286 0.068313 0.446188 0.291919
C53   C     C_R   0.023886 0.647986 0.544677 -0.145527
C54   C     C_R   0.987587 0.654274 0.478938 -0.177032
C55   C     C_R   0.522744 0.158687 0.559493 -0.143426
C56   C     C_R   0.495004 0.167873 0.491127 -0.168946
C57   C     C_R   0.744958 0.066031 0.072944 0.013126
C58   C     C_R   0.238316 0.102947 0.915504 0.011286
C59   C     C_R   0.244742 0.565495 0.072603 0.014850
C60   C     C_R   0.739269 0.601329 0.916173 0.011991
C61   C     C_R   0.802559 0.023032 0.037673 0.016176
C62   C     C_R   0.179127 0.065063 0.951472 0.028085
C63   C     C_R   0.300108 0.516533 0.036325 0.018183
C64   C     C_R   0.679494 0.564569 0.951569 0.032349
C65   C     C_R   0.807360 0.027241 0.964326 0.017638
C66   C     C_R   0.169725 0.090005 0.023107 0.012616
C67   C     C_R   0.303588 0.517193 0.962728 0.019720
C68   C     C_R   0.669333 0.590871 0.022915 0.010559
C69   C     C_R   0.693014 0.111879 0.955984 -0.153388
C70   C     C_R   0.268460 0.219553 0.022991 -0.129389
C71   C     C_R   0.192969 0.615507 0.956256 -0.151538
C72   C     C_R   0.768967 0.718746 0.023473 -0.121401
C73   C     C_R   0.687797 0.104600 0.031193 -0.151303
C74   C     C_R   0.278002 0.193796 0.948993 -0.171732
C75   C     C_R   0.188403 0.609194 0.031620 -0.150189
C76   C     C_R   0.779970 0.690429 0.950167 -0.163539
C77   C     C_3   0.875902 0.055454 0.051124 -0.279878
C78   C     C_3   0.146960 0.943519 0.958098 -0.270388
C79   C     C_3   0.374518 0.541641 0.048013 -0.280537
C80   C     C_3   0.647161 0.442946 0.958467 -0.269139
C81   C     C_3   0.882044 0.060405 0.970285 -0.253080
C82   C     C_3   0.139534 0.968627 0.037639 -0.270299
C83   C     C_3   0.379559 0.539124 0.967134 -0.262972
C84   C     C_3   0.638069 0.470323 0.037596 -0.272286
C85   C     C_R   0.754967 0.079974 0.922604 0.009618
C86   C     C_R   0.217339 0.158321 0.062117 0.023545
C87   C     C_R   0.253309 0.577291 0.921848 0.006896
C88   C     C_R   0.717084 0.658783 0.062194 0.021789
C89   C     C_R   0.971897 0.343915 0.647396 0.552790
C90   C     C_R   0.028374 0.345244 0.352779 0.549659
C91   C     C_R   0.471179 0.844984 0.647201 0.530574
C92   C     C_R   0.531690 0.847481 0.355069 0.526849
C93   C     C_R   0.997464 0.333122 0.078052 -0.009274
C94   C     C_R   0.985103 0.344294 0.929134 0.041735
C95   C     C_R   0.492356 0.835201 0.080982 -0.007236
C96   C     C_R   0.460745 0.846237 0.934925 0.038823
C97   C     C_R   0.963440 0.429601 0.046181 0.019755
C98   C     C_R   0.954634 0.432323 0.973126 0.017053
C99   C     C_R   0.453976 0.931423 0.053734 0.036539
C100  C     C_R   0.437121 0.935631 0.981630 -0.012425
C101  C     C_R   0.012179 0.240164 0.960545 -0.185871
C102  C     C_R   0.015687 0.232909 0.035223 -0.173613
C103  C     C_R   0.496960 0.746687 0.962217 -0.170993
C104  C     C_R   0.509523 0.738664 0.035504 -0.180708
C105  C     C_3   0.973236 0.563465 0.051893 0.175033
C106  C     C_3   0.958549 0.567022 0.971078 0.176332
C107  C     C_3   0.467065 0.064255 0.058489 0.180804
C108  C     C_3   0.447906 0.069219 0.978972 0.165167
C109  C     C_R   0.759504 0.535055 0.850973 0.535478
C110  C     C_R   0.238304 0.530156 0.147201 0.535868
C111  C     C_R   0.259247 0.035694 0.850697 0.530661
C112  C     C_R   0.738294 0.030054 0.147261 0.533846
C113  C     C_R   0.772856 0.125374 0.852276 0.535980
C114  C     C_R   0.209287 0.171638 0.140071 0.576184
C115  C     C_R   0.272791 0.625361 0.852383 0.524741
C116  C     C_R   0.709135 0.671934 0.140139 0.572680
C117  C     C_R   0.968625 0.347798 0.854068 0.549242
C118  C     C_R   0.029482 0.346070 0.147424 0.545108
C119  C     C_R   0.440521 0.851641 0.860747 0.569416
C120  C     C_R   0.528861 0.846435 0.147998 0.550177
C121  C     C_R   0.765531 0.112173 0.413735 -0.004312
C122  C     C_R   0.235397 0.110424 0.586153 -0.011116
C123  C     C_R   0.254171 0.593383 0.419984 0.011917
C124  C     C_R   0.736696 0.607297 0.584709 0.000996
C125  C     C_R   0.726616 0.200067 0.447177 0.013388
C126  C     C_R   0.273886 0.199758 0.554229 0.013523
C127  C     C_R   0.201362 0.640980 0.461333 0.031818
C128  C     C_R   0.775981 0.694929 0.552201 0.012914
C129  C     C_R   0.740133 0.236326 0.518205 -0.000411
C130  C     C_R   0.261425 0.236470 0.483596 0.002014
C131  C     C_R   0.215412 0.677658 0.531548 0.012740
C132  C     C_R   0.762009 0.733884 0.482499 0.000331
Cr1   Cr    Cr6+3 0.885860 0.491680 0.749630 0.986077
Cr2   Cr    Cr6+3 0.114140 0.491680 0.250370 0.992760
Cr3   Cr    Cr6+3 0.385860 0.991680 0.749630 0.987718
Cr4   Cr    Cr6+3 0.614140 0.991680 0.250370 0.991913
Cr5   Cr    Cr6+3 0.730490 0.332970 0.748720 1.000050
Cr6   Cr    Cr6+3 0.269510 0.332970 0.251280 0.985013
Cr7   Cr    Cr6+3 0.230490 0.832970 0.748720 0.991568
Cr8   Cr    Cr6+3 0.769510 0.832970 0.251280 0.981955
Cr9   Cr    Cr6+3 0.887570 0.179310 0.750150 0.968423
Cr10  Cr    Cr6+3 0.112430 0.179310 0.249850 0.968865
Cr11  Cr    Cr6+3 0.387570 0.679310 0.750150 0.965433
Cr12  Cr    Cr6+3 0.612430 0.679310 0.249850 0.968430
H1    H     H_    0.881966 0.068520 0.548248 0.165127
H2    H     H_    0.122008 0.064660 0.449342 0.175103
H3    H     H_    0.382344 0.594196 0.545350 0.174634
H4    H     H_    0.618612 0.571114 0.450522 0.168213
H5    H     H_    0.035720 0.727872 0.575233 0.112875
H6    H     H_    0.973226 0.740705 0.458131 0.120546
H7    H     H_    0.528419 0.238514 0.592664 0.125992
H8    H     H_    0.478215 0.254687 0.472864 0.129846
H9    H     H_    0.650960 0.149048 0.924625 0.148586
H10   H     H_    0.303629 0.280272 0.050246 0.146738
H11   H     H_    0.152193 0.657757 0.925621 0.155568
H12   H     H_    0.803391 0.780962 0.050521 0.145055
H13   H     H_    0.640046 0.130600 0.056402 0.129138
H14   H     H_    0.319525 0.236536 0.920415 0.109834
H15   H     H_    0.142178 0.640899 0.057584 0.126653
H16   H     H_    0.822536 0.731262 0.922321 0.106648
H17   H     H_    0.906061 0.980920 0.075730 0.120887
H18   H     H_    0.182879 0.867919 0.946718 0.162946
H19   H     H_    0.402565 0.466798 0.074304 0.119757
H20   H     H_    0.683496 0.367212 0.948687 0.162920
H21   H     H_    0.881816 0.144763 0.078268 0.144221
H22   H     H_    0.096970 0.943102 0.928466 0.115809
H23   H     H_    0.383668 0.632253 0.072416 0.147828
H24   H     H_    0.597743 0.440069 0.927717 0.119184
H25   H     H_    0.890532 0.152948 0.950340 0.174891
H26   H     H_    0.084952 0.970720 0.054635 0.116974
H27   H     H_    0.391814 0.627512 0.944330 0.171134
H28   H     H_    0.583087 0.474579 0.053157 0.117547
H29   H     H_    0.916522 0.989581 0.948203 0.119052
H30   H     H_    0.173964 0.911278 0.071541 0.159381
H31   H     H_    0.409825 0.461908 0.946296 0.116320
H32   H     H_    0.671227 0.413024 0.072875 0.158009
H33   H     H_    0.029630 0.165025 0.927771 0.127085
H34   H     H_    0.038373 0.153841 0.059068 0.147306
H35   H     H_    0.514910 0.674633 0.927329 0.139228
H36   H     H_    0.538296 0.662467 0.055419 0.144984
H37   H     H_    0.027061 0.588894 0.066890 0.136889
H38   H     H_    0.907982 0.605437 0.954979 0.130475
H39   H     H_    0.521985 0.087259 0.070012 0.138509
H40   H     H_    0.399336 0.115896 0.966038 0.123855
H41   H     H_    0.865531 0.028769 0.419900 0.143339
H42   H     H_    0.138241 0.018756 0.575317 0.147947
H43   H     H_    0.361078 0.542480 0.419105 0.146009
H44   H     H_    0.636598 0.525617 0.577580 0.140951
H45   H     H_    0.102355 0.717448 0.443421 0.165609
H46   H     H_    0.877047 0.622502 0.549309 0.173284
H47   H     H_    0.625699 0.122456 0.447427 0.175530
H48   H     H_    0.377836 0.136043 0.558553 0.172390
H49   H     H_    0.650528 0.345788 0.540923 0.144456
H50   H     H_    0.346707 0.360443 0.469129 0.152318
H51   H     H_    0.216465 0.868298 0.519679 0.140985
H52   H     H_    0.845233 0.859023 0.469915 0.145709
H53   H     H_    0.650082 0.188047 0.571923 0.179991
H54   H     H_    0.360712 0.207949 0.434263 0.174578
H55   H     H_    0.136453 0.807028 0.559827 0.137378
H56   H     H_    0.858697 0.712383 0.427248 0.179665
H57   H     H_    0.996797 0.920135 0.426610 0.102046
H58   H     H_    0.023265 0.917371 0.558338 0.091655
H59   H     H_    0.475899 0.434636 0.429466 0.103690
H60   H     H_    0.513524 0.422192 0.558407 0.095503
H61   H     H_    0.977295 0.108123 0.366164 0.132368
H62   H     H_    0.023749 0.101426 0.629296 0.127896
H63   H     H_    0.470267 0.625303 0.370642 0.128561
H64   H     H_    0.526898 0.604624 0.630843 0.131386
O1    O     O_R   0.957020 0.451640 0.669920 -0.477004
O2    O     O_R   0.042980 0.451640 0.330080 -0.461528
O3    O     O_R   0.457020 0.951640 0.669920 -0.482102
O4    O     O_R   0.542980 0.951640 0.330080 -0.470450
O5    O     O_R   0.736470 0.210100 0.823360 -0.503481
O6    O     O_R   0.263530 0.210100 0.176640 -0.486561
O7    O     O_R   0.236470 0.710100 0.823360 -0.508965
O8    O     O_R   0.763530 0.710100 0.176640 -0.497281
O9    O     O_R   0.831960 0.093290 0.830130 -0.527080
O10   O     O_R   0.168040 0.093290 0.169870 -0.517554
O11   O     O_R   0.331960 0.593290 0.830130 -0.529674
O12   O     O_R   0.668040 0.593290 0.169870 -0.521403
O13   O     O_R   0.945600 0.250580 0.824860 -0.520635
O14   O     O_R   0.054400 0.250580 0.175140 -0.527961
O15   O     O_R   0.445600 0.750580 0.824860 -0.526947
O16   O     O_R   0.554400 0.750580 0.175140 -0.524784
O17   O     O_3   0.834640 0.334650 0.749500 -0.268420
O18   O     O_3   0.165360 0.334650 0.250500 -0.290606
O19   O     O_3   0.334640 0.834650 0.749500 -0.285046
O20   O     O_3   0.665360 0.834650 0.250500 -0.288070
O21   O     O_R   0.821450 0.543440 0.674610 -0.512164
O22   O     O_R   0.178550 0.543440 0.325390 -0.500973
O23   O     O_R   0.321450 0.043440 0.674610 -0.508138
O24   O     O_R   0.678550 0.043440 0.325390 -0.501813
O25   O     O_R   0.715320 0.458650 0.668100 -0.534699
O26   O     O_R   0.284680 0.458650 0.331900 -0.537793
O27   O     O_R   0.215320 0.958650 0.668100 -0.536780
O28   O     O_R   0.784680 0.958650 0.331900 -0.536310
O29   O     O_R   0.737170 0.209590 0.674530 -0.492086
O30   O     O_R   0.262830 0.209590 0.325470 -0.509333
O31   O     O_R   0.237170 0.709590 0.674530 -0.490486
O32   O     O_R   0.762830 0.709590 0.325470 -0.503673
O33   O     O_R   0.832710 0.092740 0.669580 -0.541227
O34   O     O_R   0.167290 0.092740 0.330420 -0.535348
O35   O     O_R   0.332710 0.592740 0.669580 -0.541771
O36   O     O_R   0.667290 0.592740 0.330420 -0.540590
O37   O     O_R   0.946290 0.250060 0.676040 -0.533978
O38   O     O_R   0.053710 0.250060 0.323960 -0.534295
O39   O     O_R   0.446290 0.750060 0.676040 -0.524757
O40   O     O_R   0.553710 0.750060 0.323960 -0.528208
O41   O     O_R   0.956270 0.452200 0.830470 -0.500747
O42   O     O_R   0.043730 0.452200 0.169530 -0.531502
O43   O     O_R   0.456270 0.952200 0.830470 -0.481141
O44   O     O_R   0.543730 0.952200 0.169530 -0.529383
O45   O     O_R   0.820760 0.543950 0.823440 -0.524349
O46   O     O_R   0.179240 0.543950 0.176560 -0.518350
O47   O     O_R   0.320760 0.043950 0.823440 -0.533618
O48   O     O_R   0.679240 0.043950 0.176560 -0.517975
O49   O     O_R   0.714570 0.459210 0.828640 -0.521385
O50   O     O_R   0.285430 0.459210 0.171360 -0.539980
O51   O     O_R   0.214570 0.959210 0.828640 -0.521352
O52   O     O_R   0.785430 0.959210 0.171360 -0.538656
O53   O     O_3   0.920509 0.616591 0.093409 -0.583317
C133  C     C_3   0.940957 0.732107 0.118885 -0.019199
H65   H     H_    0.893420 0.784451 0.129398 0.178586
H66   H     H_    0.970598 0.783459 0.078217 0.090167
C134  C     C_3   0.981704 0.723602 0.190245 -0.246460
H67   H     H_    0.954347 0.663086 0.227736 0.211176
H68   H     H_    0.033742 0.685759 0.180351 0.169759
C135  C     C_3   0.990226 0.847514 0.225889 -0.474437
H69   H     H_    0.018132 0.909450 0.189652 0.140878
H70   H     H_    0.020317 0.838417 0.276954 0.139885
H71   H     H_    0.939046 0.886818 0.238619 0.154982
O54   O     O_3   0.015826 0.605721 0.931270 -0.588581
C136  C     C_3   0.006142 0.725545 0.907593 -0.024116
H72   H     H_    0.057520 0.766764 0.906608 0.143314
H73   H     H_    0.974305 0.781793 0.944589 0.096263
C137  C     C_3   0.976998 0.728243 0.830408 -0.245488
H74   H     H_    0.008549 0.668817 0.795300 0.201894
H75   H     H_    0.923186 0.694709 0.829693 0.180012
C138  C     C_3   0.977861 0.855811 0.799890 -0.484402
H76   H     H_    0.943753 0.916002 0.831462 0.160547
H77   H     H_    0.959055 0.854105 0.743132 0.137492
H78   H     H_    0.031093 0.892664 0.801017 0.144176
O55   O     O_3   0.417912 0.119669 0.103496 -0.577889
C139  C     C_3   0.439598 0.236931 0.123925 -0.019223
H79   H     H_    0.392529 0.289430 0.136349 0.182604
H80   H     H_    0.466512 0.284649 0.079750 0.088198
C140  C     C_3   0.484822 0.234519 0.192419 -0.250560
H81   H     H_    0.459142 0.179994 0.234171 0.206693
H82   H     H_    0.535502 0.192743 0.180576 0.167753
C141  C     C_3   0.497042 0.361897 0.221947 -0.470676
H83   H     H_    0.523567 0.417781 0.181359 0.144031
H84   H     H_    0.529850 0.357764 0.271371 0.145447
H85   H     H_    0.447276 0.405238 0.236049 0.150677
O56   O     O_3   0.505066 0.098991 0.936140 -0.572786
C142  C     C_3   0.501359 0.220313 0.913282 -0.018349
H86   H     H_    0.553487 0.258342 0.919721 0.137591
H87   H     H_    0.466905 0.278444 0.946267 0.088100
C143  C     C_3   0.480527 0.225733 0.833367 -0.235383
H88   H     H_    0.513709 0.163306 0.801917 0.215123
H89   H     H_    0.426042 0.196840 0.826695 0.179611
C144  C     C_3   0.488312 0.352488 0.802919 -0.484839
H90   H     H_    0.454665 0.417229 0.831767 0.155481
H91   H     H_    0.473117 0.351902 0.744947 0.139343
H92   H     H_    0.542764 0.382730 0.807707 0.149266
C145  C     C_3   0.625727 0.307351 0.400476 -0.385458
H93   H     H_    0.658322 0.389269 0.403532 0.160026
H94   H     H_    0.627022 0.271492 0.344459 0.156082
H95   H     H_    0.572277 0.331476 0.412789 0.134140
C146  C     C_3   0.366925 0.318659 0.608807 -0.385773
H96   H     H_    0.333893 0.399251 0.601381 0.178318
H97   H     H_    0.359427 0.283754 0.664097 0.151837
H98   H     H_    0.421300 0.344266 0.603971 0.120391
C147  C     C_3   0.170742 0.829159 0.383111 -0.396336
H99   H     H_    0.206196 0.903006 0.398075 0.164620
H100  H     H_    0.190726 0.777195 0.336620 0.157449
H101  H     H_    0.121799 0.872345 0.365252 0.143186
C148  C     C_3   0.877278 0.802662 0.603473 -0.403486
H102  H     H_    0.845525 0.885874 0.603330 0.169428
H103  H     H_    0.877181 0.762109 0.657938 0.149936
H104  H     H_    0.930557 0.826788 0.591472 0.124692
O57   O     O_3   0.934589 0.561536 0.374451 -0.570499
C149  C     C_3   0.875588 0.485374 0.368939 0.000265
H105  H     H_    0.830142 0.531637 0.391534 0.147056
H106  H     H_    0.879545 0.399364 0.398679 0.120095
C150  C     C_3   0.860966 0.456928 0.289288 -0.233109
H107  H     H_    0.848162 0.541703 0.260480 0.213252
H108  H     H_    0.907730 0.417346 0.264533 0.180064
C151  C     C_3   0.801392 0.368151 0.279683 -0.455649
H109  H     H_    0.815201 0.279998 0.304093 0.139633
H110  H     H_    0.790415 0.353714 0.221263 0.157793
H111  H     H_    0.754204 0.403891 0.305483 0.181890
O58   O     O_3   0.081834 0.534155 0.636791 -0.548655
C152  C     C_3   0.140024 0.455997 0.631700 0.022423
H112  H     H_    0.187011 0.511294 0.635648 0.176367
H113  H     H_    0.144186 0.405137 0.579771 0.102913
C153  C     C_3   0.143001 0.365959 0.694108 -0.251484
H114  H     H_    0.101988 0.297121 0.687803 0.148152
H115  H     H_    0.193180 0.317431 0.692452 0.120161
C154  C     C_3   0.136674 0.427920 0.767490 -0.361438
H116  H     H_    0.177389 0.497176 0.774145 0.169709
H117  H     H_    0.142716 0.360299 0.811012 0.122065
H118  H     H_    0.085447 0.471587 0.772542 0.211873
O59   O     O_3   0.458938 0.095503 0.378600 -0.576246
C155  C     C_3   0.403455 0.022803 0.352650 0.027082
H119  H     H_    0.421830 0.954298 0.313697 0.164676
H120  H     H_    0.371364 0.081324 0.317417 0.170267
C156  C     C_3   0.355234 0.968391 0.408824 -0.301207
H121  H     H_    0.375546 0.967653 0.464849 0.159071
H122  H     H_    0.307215 0.021081 0.410527 0.153701
C157  C     C_3   0.336524 0.841110 0.387213 -0.477280
H123  H     H_    0.308079 0.839838 0.334842 0.152728
H124  H     H_    0.304488 0.806918 0.430675 0.175869
H125  H     H_    0.382398 0.782974 0.382152 0.152635
O60   O     O_3   0.575184 0.062580 0.656018 -0.574896
C158  C     C_3   0.610662 0.966256 0.689748 0.038754
H126  H     H_    0.577279 0.893408 0.708566 0.145713
H127  H     H_    0.630507 0.005929 0.741255 0.170211
C159  C     C_3   0.672520 0.915612 0.649619 -0.285253
H128  H     H_    0.655173 0.854247 0.605424 0.155297
H129  H     H_    0.702877 0.989350 0.625927 0.193345
C160  C     C_3   0.717214 0.845070 0.703484 -0.451371
H130  H     H_    0.737267 0.905655 0.746954 0.167632
H131  H     H_    0.761672 0.804632 0.676830 0.161630
H132  H     H_    0.686985 0.771068 0.727826 0.141621

loop_
_geom_bond_atom_site_label_1
_geom_bond_atom_site_label_2
_ccdc_geom_bond_type
C149  H106  S    
Cr2   O2    S    
C141  H85   S    
C116  O8    A    
C144  H90   S    
C4    O24   A    
C139  H79   S    
Cr1   O17   S    
C6    H2    S    
C94   C117  S    
C95   C99   A    
C152  C153  S    
C149  C150  S    
C29   C33   A    
Cr8   O32   S    
C136  C137  S    
C159  C160  S    
Cr6   O18   S    
C3    O27   A    
C82   H30   S    
C1    O25   A    
O54   C136  S    
Cr10  O38   S    
C83   H27   S    
C70   C74   A    
C9    C121  A    
C140  H82   S    
C17   H53   S    
C81   H25   S    
C87   C115  S    
C80   C84   S    
C97   C105  S    
C122  C126  A    
Cr4   O20   S    
C15   C127  S    
C22   C130  A    
C19   C131  S    
C20   C132  S    
C41   C49   A    
C111  O47   A    
C160  H132  S    
C107  O55   S    
Cr8   O20   S    
C108  H40   S    
C14   C146  S    
C23   C47   S    
C118  O42   A    
Cr1   O45   S    
C30   C34   A    
C152  H112  S    
Cr7   O31   S    
C60   C76   A    
C7    H3    S    
C25   C42   A    
C148  H104  S    
C43   C44   A    
C31   H63   S    
C37   C38   A    
C66   C82   S    
C78   C82   S    
C158  H126  S    
C16   C20   S    
C45   O29   A    
C119  O15   A    
C115  O7    A    
C55   H7    S    
C135  H70   S    
C125  C129  A    
Cr7   O27   S    
C18   C130  S    
C143  H88   S    
Cr2   O42   S    
C144  H92   S    
Cr8   O52   S    
C139  C140  S    
C120  O44   A    
Cr11  O19   S    
C153  H114  S    
C10   C122  A    
Cr1   O21   S    
C98   C106  S    
C57   C61   A    
Cr5   O49   S    
C59   C63   A    
C14   C126  S    
C60   C64   A    
C1    C124  S    
C110  O46   A    
C49   C53   A    
Cr12  O36   S    
C89   O37   A    
C51   C55   A    
C138  H77   S    
Cr5   O29   S    
C157  H123  S    
C127  C131  A    
C61   C65   A    
C5    C21   A    
O57   C149  S    
C126  C130  A    
Cr4   O44   S    
C79   H23   S    
C80   H24   S    
Cr9   O13   S    
C79   C83   S    
Cr6   O50   S    
C67   C83   S    
C72   H12   S    
C118  O14   A    
Cr1   O1    S    
C114  O6    A    
C97   C98   A    
C92   O40   A    
C142  H87   S    
C53   C54   A    
C121  C125  A    
C25   C90   S    
Cr3   O19   S    
C64   C68   A    
Cr12  O12   S    
O53   C133  S    
C147  H100  S    
C77   H21   S    
C73   H13   S    
C29   H61   S    
C57   C73   A    
C150  H108  S    
Cr10  O10   S    
Cr5   O17   S    
C60   C109  S    
Cr4   O4    S    
C27   C44   A    
C52   O59   S    
C61   C77   S    
C145  H94   S    
C29   C38   A    
Cr9   O37   S    
C107  C108  S    
C32   H64   S    
C14   H48   S    
C44   C52   A    
C15   H45   S    
C120  O16   A    
C53   H5    S    
C4    O28   A    
C114  O10   A    
C153  C154  S    
C136  H72   S    
C21   C45   S    
C146  H97   S    
C100  C108  S    
C5    H1    S    
C62   C66   A    
C24   C48   S    
O58   C152  S    
C91   O3    A    
C3    O23   A    
C39   C40   A    
C89   O1    A    
Cr10  O34   S    
C81   H29   S    
C5    C9    A    
C119  O43   A    
C25   C38   A    
C123  C127  A    
C27   C40   A    
C8    C12   A    
C23   C131  A    
C159  H129  S    
C134  H68   S    
C21   C129  A    
C42   C50   A    
C47   O31   A    
C158  H127  S    
C102  H34   S    
Cr11  O35   S    
C92   O4    A    
C93   C97   A    
C69   C85   A    
C58   C74   A    
C54   H6    S    
C62   C78   S    
Cr3   O43   S    
C151  H109  S    
C84   H28   S    
C66   C86   A    
C133  H65   S    
C19   H55   S    
C13   C17   S    
C139  H80   S    
C13   C125  S    
C112  O52   A    
C156  C157  S    
C15   C147  S    
C34   H58   S    
C7    C23   A    
C96   C100  A    
C8    C24   A    
C28   C91   S    
Cr2   O22   S    
C2    O22   A    
Cr11  O11   S    
C154  H118  S    
C137  H74   S    
O60   C158  S    
O55   C139  S    
C105  H37   S    
C58   C62   A    
Cr3   O3    S    
C55   C56   A    
C101  C102  A    
Cr1   O41   S    
C41   C42   A    
C96   C119  S    
C35   C36   A    
C48   O36   A    
C133  C134  S    
C49   O58   S    
C15   C19   S    
C160  H131  S    
C50   C54   A    
C13   C145  S    
O56   C142  S    
C112  O48   A    
C18   H50   S    
C94   C98   A    
C6    C22   A    
C31   C40   A    
Cr7   O19   S    
C141  H83   S    
C32   C39   A    
C148  H103  S    
C80   H20   S    
Cr9   O9    S    
C117  O13   A    
C2    O26   A    
Cr7   O7    S    
Cr7   O51   S    
C18   H54   S    
C138  H76   S    
C69   C73   A    
C56   H8    S    
C124  C128  A    
C152  H113  S    
C149  H105  S    
Cr3   O23   S    
C64   C80   S    
C8    H4    S    
C143  H89   S    
C151  H111  S    
C111  O51   A    
C48   O32   A    
Cr10  O18   S    
C144  H91   S    
C77   H17   S    
C91   O39   A    
C78   H22   S    
C74   H14   S    
C58   C111  S    
C68   C84   S    
C153  H115  S    
C156  H121  S    
C117  O41   A    
C157  H125  S    
Cr9   O33   S    
C30   C37   A    
C143  C144  S    
C10   H42   S    
C24   C132  A    
C65   C81   S    
C154  H116  S    
C137  C138  S    
C77   C81   S    
C71   H11   S    
C140  C141  S    
C157  H124  S    
C16   H46   S    
C71   C87   A    
C22   C46   S    
C31   C35   A    
Cr6   O26   S    
C106  O54   S    
C46   O34   A    
C32   C36   A    
C142  H86   S    
Cr6   O6    S    
C108  O56   S    
C11   C123  A    
C93   C102  A    
C6    C10   A    
C26   C37   A    
C110  O50   A    
C95   C120  S    
C99   C107  S    
C105  C106  S    
C28   C43   A    
C28   C39   A    
C47   O35   A    
C43   C51   A    
C147  H99   S    
C90   O38   A    
C109  O45   A    
Cr11  O39   S    
C4    C121  S    
C103  H35   S    
C150  H107  S    
C69   H9    S    
C101  H33   S    
C135  H69   S    
C145  H93   S    
C96   C103  A    
C103  C104  A    
Cr8   O28   S    
Cr3   O47   S    
C84   H32   S    
C2    C123  S    
C30   H62   S    
O59   C155  S    
C82   H26   S    
C19   H51   S    
C83   H31   S    
C14   C18   S    
C17   H49   S    
C113  O5    A    
C72   C76   A    
C63   C79   S    
C146  H96   S    
C26   C89   S    
C7    C11   A    
Cr4   O24   S    
C11   H43   S    
Cr2   O18   S    
C9    H41   S    
Cr11  O15   S    
C57   C112  S    
C16   C148  S    
C12   H44   S    
C59   C110  S    
C138  H78   S    
C106  H38   S    
C136  H73   S    
C20   H56   S    
C140  H81   S    
C94   C101  A    
C155  C156  S    
C134  H67   S    
C3    C122  S    
C115  O11   A    
C148  H102  S    
C59   C75   A    
C128  C132  A    
C113  O9    A    
C72   C88   A    
C142  C143  S    
Cr9   O17   S    
C50   O57   S    
C63   C67   A    
C17   C129  S    
Cr2   O46   S    
C151  H110  S    
C90   O2    A    
C147  H101  S    
C133  H66   S    
C107  H39   S    
C88   C116  S    
C150  C151  S    
C156  H122  S    
C99   C100  A    
C12   C124  A    
C135  H71   S    
C145  H95   S    
C33   C34   A    
C27   C92   S    
C155  H119  S    
C16   C128  S    
C154  H117  S    
C137  H75   S    
C78   H18   S    
C85   C113  S    
Cr12  O40   S    
C68   C88   A    
C116  O12   A    
C93   C118  S    
Cr5   O25   S    
C70   C86   A    
C45   O33   A    
C95   C104  A    
C146  H98   S    
C75   H15   S    
C76   H16   S    
Cr5   O5    S    
C70   H10   S    
Cr4   O48   S    
C79   H19   S    
C65   C85   A    
C160  H130  S    
C67   C87   A    
C13   H47   S    
C86   C114  S    
C51   O60   S    
C71   C75   A    
C35   H59   S    
C104  H36   S    
C33   H57   S    
C20   H52   S    
Cr6   O30   S    
C141  H84   S    
C46   O30   A    
C109  O49   A    
C159  H128  S    
C134  C135  S    
Cr12  O16   S    
Cr8   O8    S    
C1    O21   A    
C158  C159  S    
C105  O53   S    
C155  H120  S    
Cr12  O20   S    
C36   H60   S    
Cr10  O14   S    
C52   C56   A    
C26   C41   A    
