data_mof_unit_52590.cif
_audit_creation_date              2012-12-11T15:39:24-0500
_audit_creation_method            fapswitch 2.2
_symmetry_space_group_name_H-M    P1
_symmetry_Int_Tables_number       1
_space_group_crystal_system       triclinic
_cell_length_a                    14.315666
_cell_length_b                    14.777727
_cell_length_c                    33.184848
_cell_angle_alpha                 97.751042
_cell_angle_beta                  90.565482
_cell_angle_gamma                 118.709336
_cell_volume                      6078.51716712

loop_
_atom_site_label
_atom_site_type_symbol
_atom_type_description
_atom_site_fract_x
_atom_site_fract_y
_atom_site_fract_z
_atom_type_partial_charge
C1    C     C_R   0.616634 0.910265 0.436969 0.546011
C2    C     C_R   0.711583 0.436435 0.949521 0.551708
C3    C     C_R   0.549490 0.818197 0.774237 0.153798
C4    C     C_R   0.561187 0.835369 0.733426 0.318224
C5    C     C_R   0.605362 0.785234 0.707248 0.074615
C6    C     C_R   0.632277 0.714900 0.721111 -0.153090
C7    C     C_R   0.620932 0.698237 0.761408 -0.171857
C8    C     C_R   0.585026 0.753507 0.788719 0.007182
C9    C     C_R   0.547813 0.735200 0.632918 0.049885
C10   C     C_R   0.552685 0.764584 0.594520 -0.122119
C11   C     C_R   0.711138 0.929824 0.618820 -0.099684
C12   C     C_3   0.124932 0.636473 0.187247 -0.097314
C13   C     C_R   0.709584 0.741059 0.950738 0.557792
C14   C     C_3   0.235321 0.099094 0.205702 -0.095475
C15   C     C_3   0.912877 0.078040 0.343484 -0.121769
C16   C     C_3   0.426283 0.813596 0.288890 -0.109444
C17   C     C_3   0.831605 0.228415 0.828846 -0.083316
C18   C     C_3   0.863350 0.272483 0.614592 -0.097326
C19   C     C_3   0.559527 0.416596 0.605786 -0.080614
C20   C     C_3   0.469983 0.369701 0.820068 -0.116700
C21   C     C_3   0.152335 0.589764 0.634034 -0.067876
C22   C     C_3   0.715379 0.137703 0.279598 -0.120919
C23   C     C_3   0.877533 0.732780 0.784258 -0.134277
C24   C     C_R   0.813229 0.400595 0.159531 -0.157646
C25   C     C_3   0.058455 0.639549 0.534465 -0.106468
C26   C     C_3   0.868237 0.945059 0.689748 -0.126303
C27   C     C_3   0.596595 0.001598 0.727522 -0.064744
C28   C     C_3   0.814053 0.957817 0.828104 -0.104992
C29   C     C_3   0.499483 0.355456 0.192509 -0.098842
C30   C     C_R   0.810005 0.416075 0.119050 0.068922
C31   C     C_R   0.709991 0.300502 0.238056 -0.129659
C32   C     C_R   0.698949 0.283229 0.278571 0.295175
C33   C     C_R   0.726900 0.368470 0.309785 0.027469
C34   C     C_R   0.773846 0.470373 0.300979 -0.124438
C35   C     C_R   0.786675 0.487677 0.260626 0.130508
C36   C     C_R   0.751410 0.401812 0.228961 0.009391
C37   C     C_R   0.744873 0.414690 0.186283 0.027656
C38   C     C_R   0.599098 0.326873 0.363473 0.121478
C39   C     C_R   0.593790 0.205295 0.456546 0.534193
C40   C     C_R   0.567128 0.287175 0.399741 -0.102496
C41   C     C_R   0.739308 0.297274 0.412555 -0.137802
C42   C     C_R   0.771689 0.337373 0.376508 -0.134414
C43   C     C_R   0.700799 0.349173 0.351295 0.070998
C44   C     C_R   0.635291 0.268083 0.423659 -0.001476
C45   C     C_R   0.241083 0.877182 0.393845 0.013174
C46   C     C_R   0.236621 0.961607 0.380382 -0.119738
C47   C     C_R   0.209031 0.956714 0.339388 -0.092577
C48   C     C_R   0.708829 0.899849 0.657238 0.251014
C49   C     C_R   0.184172 0.867065 0.311459 0.039056
C50   C     C_R   0.180269 0.779702 0.325036 -0.119479
C51   C     C_R   0.294966 0.892610 0.434446 0.531301
C52   C     C_R   0.208907 0.784719 0.366027 -0.134711
C53   C     C_R   0.180603 0.790421 0.164002 0.241184
C54   C     C_R   0.166995 0.779677 0.121383 0.087721
C55   C     C_R   0.117908 0.917265 0.128236 0.069344
C56   C     C_R   0.141097 0.934162 0.170840 0.253242
C57   C     C_R   0.163360 0.864826 0.188688 0.002714
C58   C     C_1   0.168833 0.868984 0.232327 0.067347
C59   C     C_R   0.622301 0.805503 0.665071 0.068420
C60   C     C_1   0.173886 0.868575 0.268519 0.010766
C61   C     C_R   0.120587 0.832391 0.103463 -0.065271
C62   C     C_R   0.635021 0.880382 0.394891 -0.064717
C63   C     C_R   0.613811 0.905151 0.551719 0.555770
C64   C     C_R   0.547048 0.816713 0.366329 -0.115500
C65   C     C_R   0.559974 0.810045 0.324572 0.244691
C66   C     C_R   0.662658 0.863553 0.311222 0.058448
C67   C     C_R   0.752507 0.924069 0.339382 0.249708
C68   C     C_R   0.737895 0.930516 0.381423 -0.129007
C69   C     C_R   0.772001 0.931574 0.172550 -0.097642
C70   C     C_R   0.630260 0.864424 0.587801 -0.050347
C71   C     C_R   0.785500 0.915490 0.131049 -0.098656
C72   C     C_R   0.622121 0.748740 0.122451 -0.109851
C73   C     C_R   0.608556 0.765166 0.163755 -0.081891
C74   C     C_R   0.685647 0.854439 0.189063 0.030408
C75   C     C_R   0.589980 0.199104 0.571200 0.566908
C76   C     C_1   0.680334 0.861170 0.232250 0.014577
C77   C     C_1   0.673972 0.862746 0.268322 0.078224
C78   C     C_R   0.713598 0.821345 0.106110 0.018676
C79   C     C_R   0.624117 0.247492 0.614810 0.018339
C80   C     C_R   0.569688 0.294195 0.636815 0.240623
C81   C     C_R   0.055002 0.782650 0.063423 0.571948
C82   C     C_R   0.579311 0.309982 0.679589 -0.093009
C83   C     C_R   0.646304 0.284556 0.700597 -0.065463
C84   C     C_R   0.709535 0.250204 0.679272 -0.112703
C85   C     C_R   0.701038 0.233507 0.636600 0.221095
C86   C     C_R   0.750315 0.324990 0.846137 0.241137
C87   C     C_R   0.287823 0.886570 0.548388 0.571838
C88   C     C_R   0.765346 0.360231 0.888268 -0.115563
C89   C     C_R   0.585941 0.337265 0.887351 -0.119621
C90   C     C_R   0.571940 0.306663 0.844897 0.247507
C91   C     C_R   0.656019 0.304522 0.824214 0.055025
C92   C     C_R   0.743889 0.485722 0.065999 0.564166
C93   C     C_1   0.650672 0.294163 0.780476 0.066345
C94   C     C_1   0.648122 0.289859 0.744040 -0.004773
C95   C     C_R   0.685168 0.371167 0.908852 -0.066141
C96   C     C_R   0.067503 0.752004 0.908180 -0.002486
C97   C     C_R   0.101172 0.849072 0.895677 -0.126925
C98   C     C_R   0.123712 0.860904 0.855427 -0.080323
C99   C     C_R   0.737703 0.447637 0.105289 -0.016402
C100  C     C_R   0.110973 0.775454 0.827083 0.048647
C101  C     C_R   0.082835 0.679306 0.840048 0.081011
C102  C     C_R   0.062810 0.668780 0.880588 -0.091673
C103  C     C_R   0.742662 0.789490 0.066272 0.553480
C104  C     C_R   0.190789 0.767972 0.761702 -0.108727
C105  C     C_R   0.194948 0.774449 0.720381 -0.072979
C106  C     C_R   0.124579 0.798107 0.700441 0.021786
C107  C     C_R   0.050792 0.816774 0.722250 -0.083256
C108  C     C_R   0.044848 0.808473 0.763717 0.286364
C109  C     C_R   0.116201 0.784859 0.783631 0.044243
C110  C     C_R   0.170016 0.911552 0.647897 -0.167459
C111  C     C_R   0.664911 0.455031 0.131918 -0.120607
C112  C     C_R   0.209841 0.935858 0.610456 0.032640
C113  C     C_R   0.164194 0.753772 0.589295 0.253023
C114  C     C_R   0.021506 0.731827 0.947371 0.542401
C115  C     C_R   0.128786 0.731317 0.628014 0.287086
C116  C     C_R   0.136352 0.812210 0.657645 -0.025538
C117  C     C_R   0.217040 0.858886 0.582181 -0.020362
C118  C     C_R   0.658556 0.748220 0.913285 -0.018479
C119  C     C_R   0.586612 0.655818 0.887556 -0.171820
C120  C     C_R   0.556739 0.658733 0.847844 -0.169880
C121  C     C_R   0.600507 0.753571 0.832722 0.034445
C122  C     C_R   0.670828 0.847277 0.858590 0.314239
C123  C     C_R   0.666680 0.436746 0.171958 0.300283
C124  C     C_R   0.693766 0.845317 0.899562 0.114670
Cr1   Cr    Cr6+3 0.424820 0.846020 0.489780 1.044532
Cr2   Cr    Cr6+3 0.657880 0.078580 0.505700 1.035046
Cr3   Cr    Cr6+3 0.417280 0.075360 0.504550 1.068997
Cr4   Cr    Cr6+3 0.903360 0.812540 0.006510 1.087234
Cr5   Cr    Cr6+3 0.914630 0.587050 0.006280 1.091588
Cr6   Cr    Cr6+3 0.673560 0.582680 0.008540 1.036059
H1    H     H_    0.608773 0.479163 0.122381 0.151016
H2    H     H_    0.831511 0.001457 0.192037 0.135080
H3    H     H_    0.805890 0.977329 0.403634 0.134893
H4    H     H_    0.466905 0.777830 0.376041 0.155475
H5    H     H_    0.540997 0.705536 0.176345 0.151939
H6    H     H_    0.564583 0.675882 0.103988 0.143219
H7    H     H_    0.842394 0.385439 0.904140 0.159147
H8    H     H_    0.849729 0.353492 0.367075 0.102410
H9    H     H_    0.762765 0.232102 0.695689 0.148482
H10   H     H_    0.521830 0.342044 0.902829 0.154390
H11   H     H_    0.532250 0.339483 0.696273 0.152768
H12   H     H_    0.486629 0.265088 0.407728 0.148257
H13   H     H_    0.105437 0.914293 0.916504 0.141183
H14   H     H_    0.035460 0.592830 0.889613 0.164929
H15   H     H_    0.254885 0.763443 0.704154 0.158576
H16   H     H_    0.245365 0.749224 0.776615 0.177136
H17   H     H_    0.145816 0.935331 0.845808 0.155649
H18   H     H_    0.997925 0.837318 0.707108 0.099123
H19   H     H_    0.172003 0.972550 0.670647 0.154606
H20   H     H_    0.557953 0.580564 0.897363 0.139050
H21   H     H_    0.680793 0.234520 0.213558 0.117677
H22   H     H_    0.503774 0.586299 0.828078 0.123405
H23   H     H_    0.870276 0.379025 0.170400 0.134216
H24   H     H_    0.664096 0.674533 0.700856 0.118823
H25   H     H_    0.645320 0.645843 0.771871 0.103712
H26   H     H_    0.490798 0.711776 0.570729 0.166930
H27   H     H_    0.772306 0.006651 0.614247 0.183517
H28   H     H_    0.796905 0.535782 0.325323 0.149149
H29   H     H_    0.152717 0.587512 0.200392 0.151236
H30   H     H_    0.077248 0.591237 0.157820 0.166974
H31   H     H_    0.073341 0.650891 0.209100 0.129289
H32   H     H_    0.227725 0.163940 0.223589 0.158666
H33   H     H_    0.276435 0.127722 0.178104 0.123645
H34   H     H_    0.793679 0.283815 0.430537 0.126463
H35   H     H_    0.285160 0.080137 0.225179 0.122903
H36   H     H_    0.954305 0.083981 0.372983 0.125989
H37   H     H_    0.863281 0.117517 0.347861 0.093512
H38   H     H_    0.975428 0.120793 0.323332 0.152697
H39   H     H_    0.481961 0.879691 0.273650 0.129337
H40   H     H_    0.402853 0.843952 0.317286 0.120505
H41   H     H_    0.352915 0.765206 0.267857 0.172468
H42   H     H_    0.753952 0.159850 0.815748 0.139307
H43   H     H_    0.848756 0.223769 0.861066 0.149525
H44   H     H_    0.895176 0.224703 0.811037 0.152896
H45   H     H_    0.160974 0.709846 0.303538 0.119207
H46   H     H_    0.862879 0.333102 0.598074 0.116908
H47   H     H_    0.906133 0.308599 0.645512 0.130478
H48   H     H_    0.908610 0.239225 0.597223 0.143681
H49   H     H_    0.620539 0.419130 0.584733 0.090830
H50   H     H_    0.598130 0.478011 0.633166 0.119659
H51   H     H_    0.504227 0.434554 0.589274 0.182557
H52   H     H_    0.541251 0.427638 0.806719 0.100922
H53   H     H_    0.459528 0.405543 0.850136 0.111572
H54   H     H_    0.398811 0.347913 0.799243 0.162298
H55   H     H_    0.237961 0.650958 0.640295 0.148777
H56   H     H_    0.211646 0.718544 0.375378 0.134638
H57   H     H_    0.139343 0.542223 0.603539 0.180494
H58   H     H_    0.134903 0.536915 0.657009 0.151048
H59   H     H_    0.798207 0.189791 0.294093 0.104844
H60   H     H_    0.716506 0.116790 0.246221 0.117248
H61   H     H_    0.682496 0.064591 0.292904 0.141446
H62   H     H_    0.891934 0.672577 0.795582 0.146867
H63   H     H_    0.836278 0.702935 0.752940 0.116964
H64   H     H_    0.823899 0.746676 0.804976 0.130314
H65   H     H_    0.062783 0.703034 0.518587 0.109731
H66   H     H_    0.987025 0.609343 0.552310 0.127254
H67   H     H_    0.260915 0.034049 0.400936 0.136103
H68   H     H_    0.048488 0.574395 0.510698 0.138322
H69   H     H_    0.908559 0.955519 0.660881 0.125287
H70   H     H_    0.839603 0.864369 0.696262 0.112015
H71   H     H_    0.928603 0.999657 0.714939 0.158268
H72   H     H_    0.660430 0.022152 0.752138 0.131390
H73   H     H_    0.553439 0.044977 0.737571 0.157217
H74   H     H_    0.634441 0.029797 0.699505 0.169180
H75   H     H_    0.868302 0.952307 0.850760 0.147611
H76   H     H_    0.855989 0.037639 0.820166 0.134275
H77   H     H_    0.799347 0.902243 0.799606 0.139402
H78   H     H_    0.212151 0.024666 0.329165 0.136127
H79   H     H_    0.509630 0.288583 0.199061 0.119669
H80   H     H_    0.460603 0.338256 0.161147 0.111374
H81   H     H_    0.445009 0.364201 0.214301 0.171687
H82   H     H_    0.855595 0.973425 0.119184 0.175040
I1    I     I_    0.224004 0.686854 0.086026 -0.250073
I2    I     I_    0.486700 0.340905 0.326232 -0.390714
I3    I     I_    0.087232 0.027848 0.103809 -0.302749
I4    I     I_    0.915818 0.387249 0.081721 -0.296382
I5    I     I_    0.257842 0.091793 0.601870 -0.274170
I6    I     I_    0.052928 0.542185 0.799486 -0.356364
I7    I     I_    0.780027 0.992353 0.938912 -0.260957
I8    I     I_    0.475349 0.887983 0.812901 -0.317846
I9    I     I_    0.420036 0.588037 0.641366 -0.457932
I10   I     I_    0.855712 0.644141 0.249285 -0.337448
O1    O     O_R   0.318160 0.824460 0.443680 -0.522137
O2    O     O_R   0.668160 0.499860 0.053480 -0.521228
O3    O     O_R   0.689170 0.693840 0.050110 -0.505130
O4    O     O_R   0.525040 0.857250 0.449830 -0.500686
O5    O     O_R   0.803860 0.812940 0.962540 -0.480975
O6    O     O_R   0.982950 0.787950 0.964120 -0.497301
O7    O     O_R   0.007050 0.649970 0.960540 -0.508507
O8    O     O_R   0.807910 0.482370 0.965590 -0.492540
O9    O     O_R   0.643310 0.460980 0.963840 -0.514921
O10   O     O_R   0.666140 0.657800 0.967020 -0.500967
O11   O     O_3   0.830520 0.660760 0.007110 -0.265253
O12   O     O_R   0.645130 0.163230 0.552140 -0.463361
O13   O     O_R   0.684760 0.998800 0.456360 -0.517457
O14   O     O_R   0.647540 0.166310 0.470260 -0.508181
O15   O     O_R   0.500960 0.181750 0.467450 -0.519391
O16   O     O_R   0.331100 0.981120 0.457080 -0.502597
O17   O     O_R   0.315560 0.821140 0.532010 -0.459331
O18   O     O_R   0.522630 0.854180 0.531710 -0.498200
O19   O     O_R   0.682160 0.995480 0.544690 -0.485108
O20   O     O_3   0.215226 0.730777 0.181584 -0.549508
O21   O     O_3   0.132022 0.012837 0.195168 -0.528556
O22   O     O_3   0.852999 0.972570 0.324777 -0.542572
O23   O     O_R   0.498360 0.178430 0.555780 -0.445442
O24   O     O_3   0.471552 0.750780 0.296801 -0.551983
O25   O     O_3   0.833152 0.323251 0.825715 -0.545170
O26   O     O_3   0.758812 0.191090 0.616737 -0.548059
O27   O     O_3   0.499980 0.316850 0.617037 -0.508562
O28   O     O_3   0.476153 0.278564 0.823408 -0.548147
O29   O     O_3   0.080643 0.630228 0.636931 -0.573031
O30   O     O_3   0.648749 0.182626 0.287665 -0.553093
O31   O     O_3   0.972544 0.828166 0.785091 -0.592440
O32   O     O_3   0.153008 0.673472 0.559472 -0.547873
O33   O     O_3   0.784208 0.968940 0.688358 -0.586169
O34   O     O_R   0.328690 0.978040 0.538950 -0.472982
O35   O     O_3   0.521410 0.893952 0.718154 -0.562180
O36   O     O_3   0.717074 0.941605 0.844019 -0.548776
O37   O     O_3   0.597742 0.449281 0.198124 -0.524439
O38   O     O_3   0.499990 0.999990 0.500010 -0.256288
O39   O     O_R   0.828710 0.851830 0.052170 -0.481174
O40   O     O_R   0.005980 0.823990 0.047210 -0.468428
O41   O     O_R   0.031900 0.688850 0.050170 -0.468552
O42   O     O_R   0.830940 0.518420 0.048680 -0.458403

loop_
_geom_bond_atom_site_label_1
_geom_bond_atom_site_label_2
_ccdc_geom_bond_type
C1    O4    A    
C54   I1    S    
C65   O24   S    
C89   C95   A    
C93   C94   T    
C40   H12   S    
C108  O31   S    
C42   H8    S    
C27   H72   S    
C28   H76   S    
C73   C74   A    
C35   C36   A    
C79   C85   A    
C23   O31   S    
C110  H19   S    
C96   C114  S    
C1    C62   S    
C19   H51   S    
C114  O7    A    
C13   C118  S    
C57   C58   S    
C11   C70   A    
C7    C8    A    
C47   C49   A    
C53   C54   A    
C50   C52   A    
C90   O28   S    
Cr1   O38   S    
C29   O37   S    
C49   C60   S    
C74   C76   S    
C47   H78   S    
C48   C59   A    
C83   C84   A    
C27   H73   S    
C5    C6    A    
C36   C37   S    
Cr5   O41   S    
C87   C117  S    
C110  C116  A    
C96   C102  A    
C26   O33   S    
C13   O5    A    
C55   I3    S    
C112  C117  A    
C86   C88   A    
C8    C121  S    
C72   H6    S    
C115  O29   S    
C106  C107  A    
C17   O25   S    
C58   C60   T    
C115  C116  A    
C63   O19   A    
Cr5   O7    S    
C108  C109  A    
C23   H64   S    
C75   O12   A    
C15   O22   S    
C34   C35   A    
C41   C42   A    
C14   H33   S    
C69   C71   A    
C48   O33   S    
C118  C119  A    
C97   H13   S    
C62   C64   A    
C25   H68   S    
C12   H31   S    
C37   C123  A    
C101  I6    S    
C122  O36   S    
C73   H5    S    
C18   H47   S    
C51   O1    A    
C3    I8    S    
C85   O26   S    
C72   C78   A    
C112  I5    S    
C15   H36   S    
C21   H57   S    
Cr3   O23   S    
Cr4   O40   S    
C22   H60   S    
Cr5   O42   S    
Cr2   O14   S    
C9    C10   A    
C40   C44   A    
C25   H65   S    
C4    O35   S    
Cr4   O6    S    
C97   C98   A    
C20   H54   S    
C119  H20   S    
C66   C67   A    
C88   C95   A    
C99   C111  A    
C81   O40   A    
C28   H75   S    
C15   H37   S    
C11   C48   A    
C52   H56   S    
C38   I2    S    
C82   H11   S    
C9    I9    S    
C16   H39   S    
C104  C105  A    
C17   H43   S    
C29   H81   S    
C6    C7    A    
C24   C30   A    
C76   C77   T    
Cr1   O1    S    
C27   O35   S    
C39   O14   A    
C64   H4    S    
C17   H42   S    
C87   O17   A    
C5    C59   S    
C111  C123  A    
C27   H74   S    
C33   C43   S    
C101  C102  A    
C104  H16   S    
C92   O2    A    
C26   H71   S    
C53   O20   S    
Cr6   O3    S    
C80   C82   A    
C3    C8    A    
C35   I10   S    
C10   H26   S    
C63   O18   A    
C53   C57   A    
C19   O27   S    
C46   H67   S    
C45   C52   A    
C123  O37   S    
C45   C46   A    
C83   C94   S    
C30   I4    S    
Cr5   O8    S    
C82   C83   A    
C12   H30   S    
Cr3   O34   S    
Cr5   O11   S    
C50   H45   S    
C9    C59   A    
C14   H32   S    
C67   C68   A    
C22   O30   S    
C26   H69   S    
C18   O26   S    
C91   C93   S    
C31   H21   S    
C20   O28   S    
C31   C32   A    
C102  H14   S    
C63   C70   S    
Cr6   O10   S    
C107  C108  A    
C89   H10   S    
C105  H15   S    
C96   C97   A    
C23   H63   S    
Cr2   O19   S    
C24   C37   A    
C103  O39   A    
C69   C74   A    
C118  C124  A    
Cr4   O39   S    
C84   C85   A    
C22   H59   S    
C21   H55   S    
Cr2   O13   S    
Cr1   O18   S    
C121  C122  A    
C6    H24   S    
C25   H66   S    
C2    O9    A    
C84   H9    S    
C20   H53   S    
C113  C117  A    
C10   C70   A    
C111  H1    S    
C87   O34   A    
C56   O21   S    
C29   H80   S    
C71   H82   S    
C120  H22   S    
C12   O20   S    
C80   O27   S    
C86   O25   S    
C41   C44   A    
C15   H38   S    
Cr3   O15   S    
C42   C43   A    
C122  C124  A    
C3    C4    A    
Cr3   O38   S    
C19   H49   S    
C39   O15   A    
C26   H70   S    
C17   H44   S    
C11   H27   S    
C21   H58   S    
C20   H52   S    
C23   H62   S    
Cr4   O11   S    
C56   C57   A    
C66   C77   S    
C46   C47   A    
C68   H3    S    
C92   O42   A    
C30   C99   A    
C113  O32   S    
C34   H28   S    
C78   C103  S    
C31   C36   A    
C98   C100  A    
C24   H23   S    
C72   C73   A    
C75   O23   A    
C21   O29   S    
C119  C120  A    
C29   H79   S    
C39   C44   S    
C54   C61   A    
C16   O24   S    
C14   O21   S    
C103  O3    A    
C105  C106  A    
C32   O30   S    
Cr6   O11   S    
C28   O36   S    
Cr2   O38   S    
C86   C91   A    
C64   C65   A    
Cr6   O2    S    
C22   H61   S    
C69   H2    S    
C38   C43   A    
C61   C81   S    
C32   C33   A    
C13   O10   A    
C38   C40   A    
C107  H18   S    
C16   H41   S    
C90   C91   A    
C104  C109  A    
Cr6   O9    S    
C1    O13   A    
Cr4   O5    S    
C4    C5    A    
C55   C61   A    
C25   O32   S    
C100  C101  A    
C14   H35   S    
C33   C34   A    
C51   O16   A    
C62   C68   A    
C65   C66   A    
C12   H29   S    
Cr2   O12   S    
C67   O22   S    
C110  C112  A    
C88   H7    S    
C124  I7    S    
C2    O8    A    
C55   C56   A    
C114  O6    A    
C79   C80   A    
C16   H40   S    
C100  C109  S    
C7    H25   S    
C18   H48   S    
Cr3   O16   S    
C49   C50   A    
C98   H17   S    
C41   H34   S    
C106  C116  S    
C28   H77   S    
C45   C51   S    
C120  C121  A    
C2    C95   S    
Cr1   O17   S    
C89   C90   A    
C75   C79   S    
C19   H50   S    
C71   C78   A    
Cr1   O4    S    
C92   C99   S    
C113  C115  A    
C81   O41   A    
C18   H46   S    
