data_mof_unit_40379.cif
_audit_creation_date              2012-12-10T17:12:42-0500
_audit_creation_method            fapswitch 2.2
_symmetry_space_group_name_H-M    P1
_symmetry_Int_Tables_number       1
_space_group_crystal_system       triclinic
_cell_length_a                    23.112583
_cell_length_b                    10.654443
_cell_length_c                    10.102308
_cell_angle_alpha                 87.559354
_cell_angle_beta                  88.767975
_cell_angle_gamma                 90.250746
_cell_volume                      2484.84437133

loop_
_atom_site_label
_atom_site_type_symbol
_atom_type_description
_atom_site_fract_x
_atom_site_fract_y
_atom_site_fract_z
_atom_type_partial_charge
C1    C     C_R   0.507020 0.263445 0.502315 1.002667
C2    C     C_R   0.965987 0.252692 0.675516 0.596831
C3    C     C_R   0.026108 0.251697 0.677444 0.579263
C4    C     C_R   0.058815 0.315517 0.576209 -0.258595
C5    C     C_R   0.030575 0.374022 0.467183 -0.109506
C6    C     C_R   0.063062 0.435314 0.362393 -0.086396
C7    C     C_R   0.033976 0.481528 0.247203 0.014834
C8    C     C_R   0.973271 0.483776 0.248736 0.660307
C9    C     C_R   0.119025 0.326152 0.582694 0.636231
C10   C     C_R   0.122901 0.451613 0.380824 0.620722
C11   C     C_R   0.247718 0.349195 0.427071 0.622966
C12   C     C_R   0.389337 0.496638 0.501333 1.057661
C13   C     C_R   0.306380 0.376055 0.426085 0.463946
C14   C     C_R   0.327504 0.471282 0.503887 -0.442395
C15   C     C_R   0.289757 0.538056 0.584953 0.531350
C16   C     C_R   0.230073 0.513223 0.584633 0.002440
C17   C     C_R   0.209398 0.417946 0.504128 -0.034738
C18   C     C_R   0.751434 0.346980 0.431993 0.624394
C19   C     C_R   0.693127 0.374000 0.434934 0.459293
C20   C     C_R   0.672994 0.481482 0.495961 -0.315773
C21   C     C_R   0.711821 0.565036 0.554834 0.074122
C22   C     C_R   0.771908 0.536944 0.551238 0.105859
C23   C     C_R   0.499025 0.737511 0.497294 0.910786
C24   C     C_R   0.790668 0.427073 0.488824 -0.009371
C25   C     C_2   0.532850 0.934879 0.406951 0.346354
C26   C     C_2   0.496319 0.870585 0.488989 0.249760
C27   C     C_2   0.529662 0.069502 0.398400 0.684788
C28   C     C_2   0.528807 0.135816 0.509118 -0.134358
C29   C     C_2   0.540463 0.545242 0.925801 0.724773
C30   C     C_2   0.529544 0.577961 0.067730 -0.018670
C31   C     C_R   0.610711 0.500612 0.498669 0.944497
C32   C     C_R   0.880755 0.447149 0.367114 0.625693
C33   C     C_R   0.876879 0.330001 0.573975 0.655579
C34   C     C_R   0.937219 0.317041 0.572051 -0.247271
C35   C     C_R   0.969635 0.374245 0.465307 -0.165414
C36   C     C_R   0.941088 0.435110 0.358947 -0.144544
H1    H     H_    0.498001 0.410551 0.116997 0.199823
N1    N     N_R   0.850805 0.399348 0.475846 -0.334072
N2    N     N_R   0.148806 0.397943 0.489326 -0.311433
N3    N     N_2   0.500610 0.501330 0.852150 -0.140715
N4    N     N_2   0.500630 0.501360 0.147810 -0.228169
O1    O     O_R   0.499990 0.319060 0.613040 -0.635765
O2    O     O_2   0.844372 0.276694 0.673883 -0.453883
O3    O     O_2   0.147771 0.269151 0.683190 -0.452449
O4    O     O_2   0.155129 0.524603 0.295335 -0.566878
O5    O     O_R   0.500010 0.319100 0.386900 -0.525454
O6    O     O_R   0.416150 0.499940 0.613100 -0.614227
O7    O     O_R   0.416160 0.499980 0.386960 -0.568697
O8    O     O_R   0.499990 0.680900 0.613100 -0.608226
O9    O     O_R   0.500010 0.680940 0.386960 -0.640845
O10   O     O_R   0.583840 0.500020 0.613040 -0.585764
O11   O     O_R   0.583850 0.500060 0.386900 -0.582338
O12   O     O_2   0.852015 0.509079 0.269692 -0.447454
Zn1   Zn    Zn3+2 0.499990 0.499970 0.650990 0.997548
Zn2   Zn    Zn3+2 0.500010 0.500030 0.349010 1.048222
F1    F     F_    0.936348 0.193419 0.777756 -0.551773
F2    F     F_    0.655806 0.294030 0.378757 -0.609129
C37   C     C_3   0.689451 0.687659 0.608882 -0.405689
C38   C     C_3   0.683506 0.787412 0.497254 -0.748401
H2    H     H_    0.726570 0.811412 0.452078 0.278583
H3    H     H_    0.655189 0.752396 0.419441 0.287745
H4    H     H_    0.664146 0.873712 0.536943 0.261135
H5    H     H_    0.647023 0.674092 0.660391 0.264686
H6    H     H_    0.717621 0.724651 0.685465 0.229561
C39   C     C_3   0.816318 0.623414 0.610077 -0.403274
C40   C     C_3   0.821775 0.596671 0.759079 -0.693496
H7    H     H_    0.779168 0.601991 0.811177 0.265161
H8    H     H_    0.839960 0.501720 0.778723 0.292085
H9    H     H_    0.851420 0.666667 0.800246 0.265902
H10   H     H_    0.859745 0.612953 0.563191 0.206737
H11   H     H_    0.805377 0.723479 0.589540 0.229175
F3    F     F_    0.571974 0.877465 0.328267 -0.703404
F4    F     F_    0.456095 0.928298 0.565700 -0.668406
F5    F     F_    0.519384 0.122402 0.276158 -0.606067
C41   C     C_3   0.553105 0.085116 0.640991 -0.454810
C42   C     C_3   0.609102 0.152618 0.674110 -0.752765
H12   H     H_    0.642384 0.139327 0.595101 0.286921
H13   H     H_    0.601899 0.254445 0.685196 0.281771
H14   H     H_    0.625761 0.112484 0.769047 0.262520
H15   H     H_    0.520443 0.096565 0.721858 0.274276
H16   H     H_    0.563886 0.983930 0.641107 0.208815
F6    F     F_    0.594009 0.565520 0.871217 -0.672616
C43   C     C_3   0.439605 0.500589 0.896149 -0.340622
C44   C     C_3   0.413479 0.632330 0.889600 -0.643670
H17   H     H_    0.434629 0.693600 0.960468 0.214886
H18   H     H_    0.418333 0.676004 0.788497 0.312814
H19   H     H_    0.366632 0.626210 0.915919 0.268837
H20   H     H_    0.414956 0.438898 0.832683 0.253582
H21   H     H_    0.430343 0.454479 0.993381 0.176367
C45   C     C_3   0.550449 0.701578 0.117537 -0.247476
C46   C     C_3   0.580625 0.789885 0.014003 -0.745802
H22   H     H_    0.623504 0.752234 0.984716 0.289886
H23   H     H_    0.553363 0.804732 0.925477 0.246281
H24   H     H_    0.587978 0.882575 0.057195 0.297504
H25   H     H_    0.512064 0.752398 0.155088 0.245519
H26   H     H_    0.580740 0.682062 0.199508 0.271728
F7    F     F_    0.051839 0.191524 0.781630 -0.563310
C47   C     C_3   0.064784 0.521812 0.117693 -0.293924
C48   C     C_3   0.072052 0.664426 0.103956 -0.687178
H27   H     H_    0.029086 0.710438 0.099131 0.281968
H28   H     H_    0.095604 0.700644 0.189070 0.280243
H29   H     H_    0.096860 0.689866 0.011256 0.243841
H30   H     H_    0.106873 0.473901 0.105203 0.253482
H31   H     H_    0.039429 0.490552 0.032651 0.239806
F8    F     F_    0.945826 0.533482 0.140982 -0.614389
F9    F     F_    0.227501 0.258138 0.349917 -0.577922
F10   F     F_    0.342775 0.307758 0.350425 -0.576422
F11   F     F_    0.310784 0.629968 0.660144 -0.647723
C49   C     C_3   0.189441 0.591872 0.666019 -0.312687
C50   C     C_3   0.178497 0.718953 0.595888 -0.707576
H32   H     H_    0.219639 0.772253 0.580054 0.303752
H33   H     H_    0.158296 0.705754 0.498654 0.261725
H34   H     H_    0.148668 0.774677 0.657592 0.250368
H35   H     H_    0.147230 0.544115 0.685506 0.194173
H36   H     H_    0.208209 0.606481 0.764611 0.250045
F12   F     F_    0.770376 0.242755 0.371923 -0.580652

loop_
_geom_bond_atom_site_label_1
_geom_bond_atom_site_label_2
_ccdc_geom_bond_type
O7    Zn2   S    
C40   H8    S    
C7    C47   S    
C19   C20   A    
C44   H19   S    
C31   O11   A    
C30   C45   S    
C8    F8    S    
C7    C8    A    
C19   F2    S    
C18   C24   A    
C32   C36   A    
C42   H13   S    
C18   C19   A    
C17   N2    S    
C5    C6    A    
C1    O5    A    
C23   O8    A    
C40   H9    S    
C47   H30   S    
C9    N2    A    
C26   F4    S    
C34   C35   A    
C8    C36   A    
C23   C26   S    
C50   H32   S    
N4    Zn2   S    
C48   H27   S    
C16   C17   A    
C38   H4    S    
O5    Zn2   S    
C1    C28   S    
C24   N1    S    
C42   H14   S    
C30   N4    D    
C32   N1    A    
C27   F5    S    
C41   H15   S    
O11   Zn2   S    
C13   F10   S    
C2    C34   A    
C43   H20   S    
C38   H2    S    
O8    Zn1   S    
C21   C22   A    
N3    C43   S    
C11   F9    S    
C12   O6    A    
C16   C49   S    
C37   H6    S    
C43   H21   S    
C38   H3    S    
C15   C16   A    
C33   O2    S    
C45   H25   S    
C42   H12   S    
C18   F12   S    
C46   H22   S    
C41   H16   S    
C23   O9    A    
C37   C38   S    
C39   H11   S    
C10   N2    A    
C35   C36   A    
C15   F11   S    
C41   C42   S    
C22   C39   S    
C29   C30   S    
C46   H23   S    
C3    F7    S    
C43   C44   S    
C10   O4    S    
C33   C34   A    
C25   F3    S    
C44   H17   S    
C50   H34   S    
C49   H35   S    
O6    Zn1   S    
C48   H28   S    
C12   C14   S    
C47   C48   S    
N3    Zn1   S    
C22   C24   A    
C3    C4    A    
C32   O12   S    
C37   H5    S    
C11   C17   A    
C9    O3    S    
C33   N1    A    
C31   O10   A    
C4    C5    A    
C6    C10   A    
C45   H26   S    
C6    C7    A    
C25   C27   S    
O9    Zn2   S    
O10   Zn1   S    
C2    C3    A    
C25   C26   D    
C21   C37   S    
C2    F1    S    
C49   C50   S    
O1    Zn1   S    
C46   H24   S    
C11   C13   A    
C45   C46   S    
C47   H31   S    
C5    C35   A    
C29   N3    D    
C12   O7    A    
C40   H7    S    
H1    N4    S    
C50   H33   S    
C49   H36   S    
C1    O1    A    
C29   F6    S    
C48   H29   S    
C20   C21   A    
C39   C40   S    
C27   C28   D    
C14   C15   A    
C44   H18   S    
C4    C9    A    
C13   C14   A    
C28   C41   S    
C39   H10   S    
C20   C31   S    
