data_mof_unit_33060.cif
_audit_creation_date              2013-03-05T16:32:50-0500
_audit_creation_method            fapswitch 2.2
_symmetry_space_group_name_H-M    P1
_symmetry_Int_Tables_number       1
_space_group_crystal_system       triclinic
_cell_length_a                    19.309827
_cell_length_b                    10.901433
_cell_length_c                    9.574326
_cell_angle_alpha                 89.631807
_cell_angle_beta                  89.648571
_cell_angle_gamma                 92.814633
_cell_volume                      2012.92654007

loop_
_atom_site_label
_atom_site_type_symbol
_atom_site_description
_atom_site_fract_x
_atom_site_fract_y
_atom_site_fract_z
_atom_type_partial_charge
O1    O     O_R   0.500000 0.319640 0.618810 -0.578854
O2    O     O_R   0.500010 0.319680 0.381230 -0.562770
C1    C     C_R   0.498446 0.262484 0.499799 0.818456
O3    O     O_R   0.400140 0.499970 0.618830 -0.543937
O4    O     O_R   0.400150 0.500010 0.381250 -0.565184
C2    C     C_R   0.367248 0.503366 0.500028 0.845561
Cu1   Cu    Cu3+1 0.500000 0.499980 0.640670 0.991360
Cu2   Cu    Cu3+1 0.500000 0.500020 0.359330 1.014260
O5    O     O_R   0.499990 0.680320 0.618770 -0.596273
O6    O     O_R   0.500000 0.680360 0.381190 -0.537772
O7    O     O_R   0.599850 0.499990 0.618750 -0.564655
O8    O     O_R   0.599860 0.500030 0.381170 -0.571254
C3    C     C_R   0.499426 0.737633 0.499753 0.801142
C4    C     C_R   0.632209 0.492321 0.499828 0.844973
C5    C     C_R   0.249884 0.485069 0.617008 0.422125
C6    C     C_R   0.178188 0.497304 0.612939 -0.276512
H1    H     H_    0.147439 0.475588 0.705810 0.204452
C7    C     C_R   0.145411 0.526514 0.488715 -0.186780
C8    C     C_R   0.184924 0.556210 0.368022 0.262888
C9    C     C_R   0.257888 0.557278 0.374957 0.315982
C10   C     C_R   0.290871 0.515406 0.497935 -0.288950
N1    N     N_R   0.036684 0.432417 0.401522 -0.169583
N2    N     N_R   0.967869 0.417622 0.404419 -0.158609
C11   C     C_R   0.929745 0.485832 0.491399 0.501706
N3    N     N_R   0.963014 0.568990 0.575661 -0.160267
N4    N     N_R   0.031822 0.582817 0.573994 -0.178500
C12   C     C_R   0.069670 0.515440 0.486082 0.514880
C13   C     C_R   0.817266 0.474421 0.623794 0.289071
C14   C     C_R   0.744947 0.477600 0.624360 -0.241122
H2    H     H_    0.717862 0.478685 0.723155 0.250621
C15   C     C_R   0.707654 0.476014 0.499564 -0.178394
C16   C     C_R   0.742728 0.455933 0.374410 -0.154846
H3    H     H_    0.713648 0.442051 0.279517 0.218615
C17   C     C_R   0.815168 0.458048 0.369149 0.309123
C18   C     C_R   0.853373 0.471246 0.494568 -0.191577
C19   C     C_R   0.518824 0.065317 0.614888 -0.058911
C20   C     C_R   0.499685 0.129422 0.496543 -0.128582
C21   C     C_R   0.486604 0.063775 0.371964 0.435110
C22   C     C_R   0.484828 0.935033 0.375742 -0.219017
H4    H     H_    0.466596 0.885487 0.285341 0.212529
C23   C     C_R   0.501377 0.871345 0.498256 -0.098011
C24   C     C_R   0.522171 0.939221 0.615458 0.020905
C25   C     C_3   0.498092 0.929771 0.764409 -0.448660
C26   C     C_3   0.491700 0.067694 0.760954 0.213555
H5    H     H_    0.448406 0.874850 0.778198 0.245819
H6    H     H_    0.540113 0.905924 0.836235 0.166839
H7    H     H_    0.527326 0.119201 0.832247 0.079990
C27   C     C_R   0.559005 0.534265 0.071713 0.057696
N5    N     N_R   0.500440 0.500930 0.147930 -0.190764
C28   C     C_R   0.444304 0.454541 0.075328 0.012047
H8    H     H_    0.398748 0.418886 0.131085 0.169587
C29   C     C_R   0.444239 0.455116 0.926934 -0.001301
H9    H     H_    0.398693 0.420415 0.872720 0.199239
N6    N     N_R   0.500440 0.500890 0.852020 -0.214923
C30   C     C_R   0.559176 0.532455 0.923937 0.158379
C31   C     C_3   0.598279 0.652717 0.909373 0.126628
C32   C     C_3   0.598902 0.656946 0.069209 0.460169
H10   H     H_    0.565449 0.718415 0.855984 0.121237
O9    O     O_3   0.279795 0.446349 0.739474 -0.586332
C33   C     C_3   0.260171 0.321365 0.766464 0.038182
H11   H     H_    0.304381 0.265272 0.738204 0.231632
H12   H     H_    0.214678 0.284691 0.705324 0.135532
C34   C     C_3   0.243254 0.305014 0.921829 -0.278781
H13   H     H_    0.289151 0.334237 0.985063 0.233087
H14   H     H_    0.199964 0.363988 0.949444 0.264498
C35   C     C_3   0.221754 0.171898 0.957588 -0.807050
H15   H     H_    0.175493 0.141071 0.896296 0.263653
H16   H     H_    0.208398 0.164492 0.070373 0.253690
H17   H     H_    0.264808 0.110926 0.935014 0.296969
N7    N     N_R   0.419551 0.102257 0.770844 0.138225
O10   O     O_R   0.400656 0.169938 0.874168 -0.447678
O11   O     O_R   0.372697 0.056661 0.685929 -0.393792
O12   O     O_3   0.663850 0.642268 0.846066 -0.569945
C36   C     C_3   0.695102 0.760499 0.819316 0.129089
H18   H     H_    0.751408 0.756983 0.841023 0.221170
H19   H     H_    0.675382 0.833274 0.888737 0.137123
C37   C     C_3   0.686246 0.795211 0.665514 -0.376734
H20   H     H_    0.717674 0.735620 0.599174 0.247869
H21   H     H_    0.631223 0.780020 0.635616 0.231636
C38   C     C_3   0.708708 0.929290 0.637616 -0.836609
H22   H     H_    0.676707 0.990843 0.700405 0.242106
H23   H     H_    0.701629 0.951004 0.525269 0.278770
H24   H     H_    0.764219 0.946275 0.664424 0.275064
N8    N     N_R   0.667959 0.650859 0.133367 0.123444
O13   O     O_R   0.681274 0.704153 0.252142 -0.321443
O14   O     O_R   0.713705 0.579709 0.081657 -0.302187
N9    N     N_R   0.559365 0.759212 0.119541 0.082322
O15   O     O_R   0.494858 0.765903 0.082555 -0.474081
O16   O     O_R   0.592382 0.858191 0.163625 -0.389674
N10   N     N_R   0.151696 0.589322 0.239810 0.142923
O17   O     O_R   0.176355 0.555536 0.120071 -0.318829
O18   O     O_R   0.098731 0.658668 0.241521 -0.314644
O19   O     O_3   0.296149 0.595406 0.258185 -0.559601
C39   C     C_3   0.325440 0.715783 0.278168 0.097206
H25   H     H_    0.373981 0.724001 0.215520 0.215757
H26   H     H_    0.340475 0.735309 0.388485 0.099672
C40   C     C_3   0.276575 0.812334 0.225895 -0.342161
H27   H     H_    0.260571 0.790774 0.117114 0.273055
H28   H     H_    0.229521 0.810943 0.293297 0.237931
C41   C     C_3   0.311560 0.940883 0.229024 -0.831058
H29   H     H_    0.329114 0.963755 0.336451 0.270828
H30   H     H_    0.274121 0.009124 0.195884 0.264821
H31   H     H_    0.356710 0.946913 0.156400 0.280582
N11   N     N_R   0.852898 0.471551 0.755170 0.154319
O20   O     O_R   0.829658 0.530793 0.861855 -0.240038
O21   O     O_R   0.902540 0.396741 0.774085 -0.298374
N12   N     N_R   0.848629 0.453598 0.235074 0.171224
O22   O     O_R   0.893909 0.540166 0.197779 -0.241194
O23   O     O_R   0.824818 0.376906 0.141308 -0.279274
O24   O     O_3   0.465944 0.125627 0.253497 -0.599984
C42   C     C_3   0.513138 0.113604 0.141105 0.097125
H32   H     H_    0.495157 0.173205 0.056101 0.195810
H33   H     H_    0.510338 0.018596 0.100324 0.202293
C43   C     C_3   0.588443 0.158064 0.174240 -0.387388
H34   H     H_    0.589528 0.253176 0.214843 0.238038
H35   H     H_    0.610687 0.097753 0.254596 0.240474
C44   C     C_3   0.634525 0.157546 0.044184 -0.820640
H36   H     H_    0.632890 0.064838 0.996452 0.262104
H37   H     H_    0.688893 0.183166 0.073204 0.289608
H38   H     H_    0.617314 0.225658 0.966587 0.240723

loop_
_geom_bond_atom_site_label_1
_geom_bond_atom_site_label_2
_geom_bond_distance
_ccdc_geom_bond_type
C27   C30   1.415110 A    
C35   H16   1.110178 S    
C30   C31   1.485772 S    
C34   H14   1.110961 S    
O19   C39   1.417832 S    
O12   C36   1.417207 S    
C19   C24   1.379284 A    
C42   H32   1.106309 S    
C4    C15   1.476268 S    
N9    O15   1.302417 A    
C3    C23   1.456272 S    
C40   H27   1.111494 S    
C27   C32   1.510268 S    
C22   C23   1.405698 A    
C37   H20   1.110411 S    
Cu1   O7    1.938189 S    
N4    C12   1.354691 A    
C14   H2    1.078472 S    
C36   H19   1.117817 S    
C33   C34   1.528425 S    
C17   N12   1.435743 S    
C19   C20   1.388939 A    
N8    O14   1.301495 A    
C7    C8    1.407975 A    
C44   H37   1.110475 S    
C21   C22   1.402440 A    
O7    C4    1.300564 A    
C35   H17   1.110671 S    
C5    C6    1.398112 A    
C31   C32   1.531417 S    
C33   H12   1.117604 S    
C17   C18   1.417589 A    
C23   C24   1.398193 A    
O5    C3    1.296390 A    
O24   C42   1.416737 S    
C8    C9    1.410365 A    
C13   C18   1.417895 A    
C6    H1    1.084550 S    
C36   C37   1.530730 S    
C28   C29   1.420748 A    
N2    C11   1.357418 A    
C26   N7    1.463661 S    
N7    O10   1.299049 A    
C21   O24   1.386522 S    
C26   H7    1.107787 S    
C35   H15   1.111183 S    
C34   C35   1.525824 S    
O9    C33   1.417871 S    
N12   O23   1.301265 A    
O3    Cu1   1.940853 S    
N11   O21   1.301455 A    
N11   O20   1.301197 A    
C40   H28   1.110666 S    
C29   N6    1.368894 A    
C43   H34   1.108960 S    
C37   H21   1.106932 S    
C11   C18   1.475605 S    
C36   H18   1.110665 S    
Cu1   Cu2   2.693638 S    
C11   N3    1.357911 A    
C38   H23   1.110602 S    
C44   H38   1.110812 S    
C22   H4    1.075115 S    
C9    O19   1.386459 S    
N3    N4    1.329803 A    
C2    C10   1.487308 S    
C41   H31   1.110968 S    
C32   N9    1.464236 S    
C33   H11   1.107454 S    
O1    C1    1.301997 A    
C16   C17   1.398447 A    
C25   C26   1.514812 S    
C20   C21   1.412634 A    
C13   N11   1.438328 S    
N10   O18   1.301402 A    
C15   C16   1.396580 A    
Cu2   O8    1.940851 S    
C41   H30   1.108745 S    
C28   H8    1.080683 S    
C32   N8    1.475833 S    
C42   H33   1.108167 S    
N8    O13   1.301637 A    
C39   H26   1.116130 S    
C25   H5    1.112406 S    
O3    C2    1.307357 A    
C27   N5    1.374612 A    
O8    C4    1.304049 A    
N1    C12   1.356250 A    
N9    O16   1.300181 A    
C19   C26   1.491157 S    
C24   C25   1.498609 S    
N12   O22   1.301312 A    
C40   C41   1.526087 S    
C29   H9    1.077710 S    
C38   H24   1.110690 S    
C37   C38   1.525521 S    
Cu1   O5    1.975783 S    
N6    C30   1.361317 A    
C13   C14   1.398575 A    
C31   O12   1.410367 S    
O1    Cu1   1.978411 S    
C5    O9    1.382917 S    
Cu2   O6    1.978412 S    
O2    Cu2   1.975782 S    
C7    C12   1.461985 S    
C38   H22   1.111236 S    
O6    C3    1.299299 A    
O4    Cu2   1.938189 S    
C43   H35   1.110835 S    
C39   C40   1.531416 S    
C16   H3    1.078582 S    
O2    C1    1.291137 A    
C14   C15   1.398601 A    
C8    N10   1.440686 S    
C44   H36   1.110969 S    
N10   O17   1.301005 A    
O4    C2    1.300848 A    
C41   H29   1.110958 S    
C31   H10   1.104529 S    
C42   C43   1.545466 S    
C39   H25   1.109288 S    
C25   H6    1.106415 S    
C43   C44   1.526214 S    
C34   H13   1.111232 S    
C5    C10   1.412041 A    
C9    C10   1.425201 A    
C1    C20   1.452463 S    
C6    C7    1.393099 A    
N5    C28   1.368890 A    
N1    N2    1.330775 A    
N7    O11   1.302563 A    
Cu1   N6    2.023690 S    
Cu2   N5    2.023937 S    
