data_mof_unit_37334.cif
_audit_creation_date              2012-12-11T16:56:19-0500
_audit_creation_method            fapswitch 2.2
_symmetry_space_group_name_H-M    P1
_symmetry_Int_Tables_number       1
_space_group_crystal_system       triclinic
_cell_length_a                    6.984041
_cell_length_b                    14.540476
_cell_length_c                    16.195498
_cell_angle_alpha                 90.4775
_cell_angle_beta                  89.914097
_cell_angle_gamma                 89.931991
_cell_volume                      1644.61341452

loop_
_atom_site_label
_atom_site_type_symbol
_atom_type_description
_atom_site_fract_x
_atom_site_fract_y
_atom_site_fract_z
_atom_type_partial_charge
O1    O     O_R   0.505830 0.583360 0.413880 -0.536852
O2    O     O_R   0.175830 0.595460 0.585520 -0.557681
O3    O     O_R   0.005520 0.416640 0.586120 -0.539422
C1    C     C_R   0.344279 0.617417 0.614416 0.699950
O4    O     O_R   0.176120 0.594390 0.414490 -0.538922
O5    O     O_R   0.005810 0.415570 0.413870 -0.536936
C2    C     C_R   0.345108 0.618224 0.387617 0.684196
O6    O     O_R   0.505540 0.584430 0.586130 -0.526372
O7    O     O_3   0.339200 0.441330 0.500000 -0.366858
V1    V     V_3+5 0.064350 0.510880 0.500000 1.407586
O8    O     O_R   0.676100 0.404540 0.414480 -0.540677
C3    C     C_R   0.845182 0.382770 0.385774 0.725480
O9    O     O_R   0.675810 0.405610 0.585510 -0.541752
C4    C     C_R   0.844665 0.387206 0.616151 0.619779
V2    V     V_3+5 0.564340 0.489120 0.500000 1.432942
O10   O     O_3   0.839360 0.558670 0.500000 -0.372782
C5    C     C_2   0.729943 0.213929 0.789387 -0.121163
C6    C     C_2   0.887687 0.165477 0.810388 0.270237
H1    H     H_    0.600890 0.208768 0.826558 0.092124
C7    C     C_2   0.719167 0.271899 0.714040 -0.101128
C8    C     C_2   0.859266 0.330825 0.692325 0.249185
H2    H     H_    0.588330 0.268433 0.678000 0.098638
C9    C     C_R   0.742296 0.176490 0.247252 0.020363
C10   C     C_R   0.882956 0.182812 0.185741 -0.201620
C11   C     C_R   0.022152 0.253184 0.194588 0.456201
C12   C     C_R   0.012576 0.315664 0.261901 -0.264029
H3    H     H_    0.119493 0.369353 0.266644 0.138123
C13   C     C_R   0.859226 0.313433 0.318572 -0.166446
C14   C     C_R   0.729249 0.240704 0.311167 0.099630
C15   C     C_3   0.515758 0.241001 0.308704 -0.374168
C16   C     C_3   0.530063 0.170101 0.239377 -0.352387
H4    H     H_    0.456366 0.308043 0.288352 0.180139
H5    H     H_    0.451677 0.213100 0.366126 0.169966
H6    H     H_    0.479582 0.195520 0.178799 0.225232
H7    H     H_    0.475207 0.101236 0.256954 0.161427
C17   C     C_R   0.521580 0.734217 0.699858 -0.033568
C18   C     C_R   0.353049 0.687364 0.681958 -0.051846
C19   C     C_R   0.200516 0.701239 0.736477 -0.152995
H8    H     H_    0.075738 0.661176 0.728311 0.110559
C20   C     C_R   0.215256 0.760436 0.805432 -0.084336
H9    H     H_    0.100165 0.762722 0.850094 0.146215
C21   C     C_R   0.380032 0.813477 0.818651 -0.122302
C22   C     C_R   0.531824 0.801061 0.763066 0.029446
C23   C     C_3   0.727501 0.770339 0.785535 0.109757
C24   C     C_3   0.702501 0.689363 0.725900 0.247857
H10   H     H_    0.743969 0.751057 0.851451 0.130275
H11   H     H_    0.801451 0.682402 0.672402 0.069903
C25   C     C_R   0.492859 0.678191 0.257831 0.046889
C26   C     C_R   0.353439 0.686831 0.319940 -0.197062
C27   C     C_R   0.214389 0.758138 0.310535 0.339105
C28   C     C_R   0.223520 0.817342 0.241920 -0.180453
H12   H     H_    0.118295 0.871846 0.237095 0.139874
C29   C     C_R   0.375951 0.812851 0.184833 -0.171831
C30   C     C_R   0.505441 0.740100 0.193006 0.088013
C31   C     C_3   0.718892 0.739447 0.194126 -0.379531
C32   C     C_3   0.705566 0.671259 0.264642 -0.354395
H13   H     H_    0.780115 0.806926 0.213053 0.185521
H14   H     H_    0.780532 0.709030 0.136771 0.159774
H15   H     H_    0.759321 0.698829 0.324385 0.220016
H16   H     H_    0.759036 0.601535 0.247788 0.153971
O11   O     O_R   0.229930 0.912420 0.917160 -0.533296
O12   O     O_R   0.559420 0.902500 0.088780 -0.543030
O13   O     O_R   0.729660 0.081330 0.089380 -0.544439
C33   C     C_R   0.390353 0.880897 0.117360 0.700051
O14   O     O_R   0.559650 0.901420 0.917750 -0.534136
O15   O     O_R   0.729880 0.080250 0.917130 -0.545221
C34   C     C_R   0.391063 0.879369 0.889062 0.694505
O16   O     O_R   0.229700 0.913500 0.089410 -0.546268
O17   O     O_3   0.396250 0.055540 0.003280 -0.366292
V3    V     V_3+5 0.671130 0.986010 0.003260 1.432246
O18   O     O_R   0.059600 0.091310 0.917720 -0.539104
C35   C     C_R   0.891626 0.109245 0.886822 0.625288
O19   O     O_R   0.059370 0.092380 0.088750 -0.515545
C36   C     C_R   0.890519 0.115147 0.116727 0.730446
V4    V     V_3+5 0.171120 0.007820 0.003230 1.460269
O20   O     O_3   0.896130 0.938240 0.003240 -0.371993
O21   O     O_3   0.862195 0.836317 0.759998 -0.650066
H17   H     H_    0.852202 0.844492 0.699292 0.287488
O22   O     O_3   0.653411 0.606742 0.767083 -0.548392
C37   C     C_3   0.817013 0.556239 0.788457 -0.241656
H18   H     H_    0.907564 0.595093 0.833001 0.121346
H19   H     H_    0.898011 0.534862 0.732490 0.124419
H20   H     H_    0.770351 0.492497 0.819749 0.177796
O23   O     O_3   0.076174 0.777212 0.369146 -0.655237
H21   H     H_    0.122798 0.756801 0.423668 0.284910
O24   O     O_3   0.042163 0.163652 0.756592 -0.609382
H22   H     H_    0.138536 0.119071 0.776550 0.291437
O25   O     O_3   0.013916 0.342171 0.745031 -0.620933
H23   H     H_    0.097771 0.391835 0.724452 0.285944
O26   O     O_3   0.165509 0.263129 0.136534 -0.558701
C38   C     C_3   0.104491 0.327322 0.077337 -0.249383
H24   H     H_    0.971446 0.304014 0.045672 0.121272
H25   H     H_    0.217689 0.333609 0.029607 0.167228
H26   H     H_    0.082901 0.396614 0.105590 0.127572

loop_
_geom_bond_atom_site_label_1
_geom_bond_atom_site_label_2
_ccdc_geom_bond_type
O18   V4    S    
C31   C32   S    
V4    O20   S    
O19   C36   A    
C1    O6    A    
C27   O23   S    
O15   V3    S    
O21   H17   S    
O11   V4    S    
O16   V4    S    
C25   C30   A    
C12   H3    S    
C14   C15   S    
C3    C13   S    
C9    C14   A    
C4    C8    S    
C17   C18   A    
O5    C3    A    
C15   C16   S    
C29   C33   S    
O14   V3    S    
C5    C7    S    
O12   V3    S    
O12   C33   A    
O8    V2    S    
O15   C35   A    
C1    C18   S    
O14   C34   A    
C9    C10   A    
O1    V2    S    
C15   H4    S    
O7    V1    S    
O25   H23   S    
C20   C21   A    
C8    O25   S    
O9    C4    A    
O19   V4    S    
C37   H20   S    
C23   H10   S    
C5    C6    D    
C24   H11   S    
C6    C35   S    
C28   H12   S    
C10   C11   A    
C2    C26   S    
C37   H19   S    
C38   H24   S    
O4    C2    A    
O24   H22   S    
C11   C12   A    
C29   C30   A    
C32   H16   S    
C28   C29   A    
C9    C16   S    
O2    C1    A    
C22   C23   S    
C18   C19   A    
C38   H25   S    
O11   C34   A    
O13   V3    S    
C27   C28   A    
C11   O26   S    
C16   H6    S    
C17   C24   S    
C24   O22   S    
C6    O24   S    
O23   H21   S    
O3    C4    A    
C20   H9    S    
C7    H2    S    
O6    V2    S    
C31   H13   S    
V3    O20   S    
C21   C34   S    
C16   H7    S    
C21   C22   A    
O2    V1    S    
C33   O16   A    
C23   C24   S    
C25   C32   S    
C30   C31   S    
C13   C14   A    
C15   H5    S    
O1    C2    A    
C37   H18   S    
O5    V1    S    
O8    C3    A    
O13   C36   A    
C23   O21   S    
C12   C13   A    
C32   H15   S    
O9    V2    S    
O7    V2    S    
O4    V1    S    
O3    V1    S    
V1    O10   S    
C38   H26   S    
C19   C20   A    
C10   C36   S    
O26   C38   S    
C19   H8    S    
C25   C26   A    
C5    H1    S    
O17   V4    S    
O17   V3    S    
O22   C37   S    
O18   C35   A    
C7    C8    D    
C26   C27   A    
C31   H14   S    
C17   C22   A    
V2    O10   S    
