data_mof_unit_37013.cif
_audit_creation_date              2013-03-05T15:52:05-0500
_audit_creation_method            fapswitch 2.2
_symmetry_space_group_name_H-M    P1
_symmetry_Int_Tables_number       1
_space_group_crystal_system       triclinic
_cell_length_a                    19.340998
_cell_length_b                    10.889035
_cell_length_c                    9.577376
_cell_angle_alpha                 91.188335
_cell_angle_beta                  89.835273
_cell_angle_gamma                 92.756814
_cell_volume                      2014.27015119

loop_
_atom_site_label
_atom_site_type_symbol
_atom_site_description
_atom_site_fract_x
_atom_site_fract_y
_atom_site_fract_z
_atom_type_partial_charge
O1    O     O_R   0.499990 0.319640 0.618810 -0.595209
O2    O     O_R   0.500000 0.319660 0.381240 -0.542371
C1    C     C_R   0.504566 0.262877 0.498709 0.816323
O3    O     O_R   0.400140 0.499970 0.618820 -0.587416
O4    O     O_R   0.400150 0.500000 0.381250 -0.556344
C2    C     C_R   0.367613 0.497856 0.500179 0.825982
Cu1   Cu    Cu3+1 0.500000 0.499990 0.640660 0.915903
Cu2   Cu    Cu3+1 0.500000 0.500010 0.359340 0.948521
O5    O     O_R   0.500000 0.680340 0.618760 -0.615619
O6    O     O_R   0.500010 0.680360 0.381190 -0.593140
O7    O     O_R   0.599850 0.500000 0.618750 -0.605958
O8    O     O_R   0.599860 0.500030 0.381180 -0.598480
C3    C     C_R   0.496793 0.737590 0.502520 0.812998
C4    C     C_R   0.632510 0.500972 0.499837 0.755618
C5    C     C_R   0.251207 0.410736 0.579126 0.041601
C6    C     C_R   0.178971 0.416236 0.578584 -0.181935
H1    H     H_    0.147907 0.350752 0.638669 0.154587
C7    C     C_R   0.146199 0.502533 0.498597 0.003909
C8    C     C_R   0.186211 0.584817 0.417859 -0.212644
H2    H     H_    0.161612 0.652384 0.355817 0.157283
C9    C     C_R   0.258446 0.583034 0.418561 0.120316
C10   C     C_R   0.291553 0.496663 0.499822 -0.048359
N1    N     N_R   0.036336 0.559896 0.394918 -0.238219
N2    N     N_R   0.967564 0.561007 0.395159 -0.240931
C11   C     C_R   0.930094 0.508726 0.500315 0.405755
N3    N     N_R   0.964014 0.455312 0.605102 -0.240824
N4    N     N_R   0.032695 0.453607 0.604470 -0.240326
C12   C     C_R   0.070192 0.505784 0.499398 0.430154
C13   C     C_R   0.816608 0.483185 0.623124 -0.156857
H3    H     H_    0.843021 0.465362 0.719641 0.152702
C14   C     C_R   0.744545 0.481433 0.623078 -0.192480
H4    H     H_    0.717063 0.461836 0.719399 0.154664
C15   C     C_R   0.708547 0.503506 0.499770 -0.025724
C16   C     C_R   0.745845 0.528773 0.376850 -0.192652
H5    H     H_    0.719378 0.546659 0.280419 0.154979
C17   C     C_R   0.817985 0.531980 0.377314 -0.156770
H6    H     H_    0.845482 0.551303 0.280983 0.152614
C18   C     C_R   0.853986 0.508505 0.500284 0.059158
C19   C     C_R   0.560842 0.129530 0.735970 -0.138346
H7    H     H_    0.587549 0.218413 0.725574 0.156869
C20   C     C_R   0.561669 0.076035 0.866632 -0.153214
H8    H     H_    0.585991 0.125188 0.954274 0.138338
C21   C     C_R   0.528632 0.961585 0.885215 -0.158249
H9    H     H_    0.525288 0.922666 0.988253 0.142967
C22   C     C_R   0.501584 0.895115 0.770325 -0.154576
H10   H     H_    0.473934 0.809629 0.792894 0.172037
C23   C     C_R   0.507201 0.942733 0.633760 0.086427
C24   C     C_R   0.526779 0.068321 0.621574 0.042171
C25   C     C_R   0.510132 0.128868 0.497070 -0.121444
C26   C     C_R   0.489988 0.058755 0.377010 0.143665
H11   H     H_    0.473769 0.879475 0.287451 0.173307
C27   C     C_R   0.485666 0.931579 0.382787 -0.269462
C28   C     C_R   0.494048 0.871989 0.508995 -0.146053
H12   H     H_    0.422276 0.359363 0.126573 0.145238
C29   C     C_R   0.593319 0.662182 0.147108 -0.162080
H13   H     H_    0.597603 0.670845 0.257261 0.199678
C30   C     C_R   0.639608 0.739763 0.076055 -0.234718
H14   H     H_    0.675477 0.801225 0.133380 0.156550
C31   C     C_R   0.639682 0.739260 0.932208 -0.193569
H15   H     H_    0.675327 0.800808 0.876926 0.160689
C32   C     C_R   0.593156 0.661752 0.858607 -0.156440
H16   H     H_    0.596151 0.671452 0.748769 0.204736
C33   C     C_R   0.545657 0.579900 0.926612 0.188284
C34   C     C_R   0.545713 0.579905 0.076325 0.211247
N5    N     N_R   0.500660 0.501210 0.147910 -0.197870
C35   C     C_R   0.457254 0.422732 0.072454 -0.047307
H17   H     H_    0.423231 0.357964 0.868055 0.132141
C36   C     C_R   0.457504 0.422419 0.924468 -0.067127
N6    N     N_R   0.500680 0.501290 0.852040 -0.201666
C37   C     C_3   0.282646 0.309865 0.661561 -0.414631
C38   C     C_3   0.310700 0.209535 0.564975 -0.342527
C39   C     C_3   0.340824 0.107235 0.648971 -0.830832
H18   H     H_    0.384446 0.144654 0.714741 0.261518
H19   H     H_    0.300452 0.063688 0.717008 0.249640
H20   H     H_    0.360293 0.035764 0.576576 0.247642
H21   H     H_    0.268061 0.169302 0.498325 0.221509
H22   H     H_    0.351711 0.248858 0.495517 0.212002
H23   H     H_    0.323651 0.349279 0.731668 0.210420
H24   H     H_    0.243068 0.265947 0.731446 0.195577
N7    N     N_3   0.298357 0.671372 0.339096 -0.584824
H25   H     H_    0.283576 0.660905 0.234422 0.223281
H26   H     H_    0.285799 0.759335 0.373474 0.211039
N8    N     N_3   0.473754 0.115598 0.248227 -0.571943
H27   H     H_    0.423372 0.086559 0.219481 0.207241
H28   H     H_    0.507605 0.084712 0.171404 0.211856

loop_
_geom_bond_atom_site_label_1
_geom_bond_atom_site_label_2
_geom_bond_distance
_ccdc_geom_bond_type
C35   C36   1.417251 A    
C29   H13   1.060359 S    
C37   H23   1.105605 S    
C20   H8    1.082470 S    
C8    H2    1.083590 S    
C4    C15   1.469552 S    
C1    C25   1.468112 S    
Cu1   Cu2   2.694312 S    
C19   C20   1.391695 A    
C22   H10   1.076577 S    
Cu1   O7    1.941959 S    
N3    N4    1.329372 A    
C17   H6    1.082936 S    
C8    C9    1.398197 A    
C7    C8    1.399362 A    
C39   H20   1.110190 S    
C38   H21   1.111830 S    
O7    C4    1.300732 A    
C30   C31   1.377572 A    
C5    C6    1.401296 A    
C2    C10   1.470525 S    
C16   H5    1.082908 S    
C32   C33   1.415778 A    
O5    C3    1.290257 A    
C36   N6    1.366931 A    
C5    C10   1.420238 A    
N8    H27   1.045739 S    
C6    H1    1.083699 S    
C13   C18   1.404330 A    
C26   C27   1.385569 A    
N1    N2    1.330761 A    
C14   C15   1.403504 A    
C37   C38   1.534895 S    
C23   C28   1.425023 A    
C31   H15   1.083028 S    
C9    C10   1.411173 A    
C20   C21   1.387451 A    
O3    Cu1   1.943274 S    
C26   N8    1.433728 S    
C3    C28   1.467003 S    
C22   C23   1.418894 A    
C31   C32   1.387405 A    
H11   C27   1.084305 S    
C23   C24   1.408432 A    
C33   N6    1.380627 A    
C7    C12   1.472173 S    
N2    C11   1.357745 A    
O3    C2    1.299630 A    
C19   H7    1.081242 S    
C39   H18   1.110842 S    
C11   N3    1.356681 A    
H17   C36   1.079575 S    
O1    C1    1.299285 A    
C21   H9    1.082575 S    
C13   H3    1.082963 S    
C11   C18   1.471892 S    
C14   H4    1.083282 S    
Cu2   O8    1.943272 S    
C29   C34   1.417414 A    
C15   C16   1.404084 A    
C6    C7    1.400556 A    
N1    C12   1.357423 A    
C21   C22   1.393613 A    
C39   H19   1.110601 S    
C24   C25   1.419665 A    
N8    H28   1.044625 S    
O8    C4    1.301289 A    
N5    C35   1.366079 A    
C29   C30   1.387745 A    
C38   H22   1.109559 S    
C27   C28   1.397194 A    
Cu1   O5    1.979327 S    
C5    C37   1.517395 S    
C37   H24   1.112542 S    
O1    Cu1   1.970626 S    
O2    Cu2   1.979327 S    
N7    H25   1.045705 S    
O6    C3    1.309885 A    
Cu1   N6    2.024298 S    
O4    Cu2   1.941963 S    
H12   C35   1.081827 S    
C34   N5    1.383010 A    
C17   C18   1.404107 A    
O2    C1    1.300192 A    
C38   C39   1.526351 S    
C13   C14   1.392977 A    
C30   H14   1.083009 S    
O4    C2    1.299816 A    
C9    N7    1.433853 S    
N7    H26   1.045789 S    
C16   C17   1.394048 A    
C32   H16   1.060570 S    
C33   C34   1.433861 A    
Cu2   N5    2.025257 S    
Cu2   O6    1.970626 S    
C25   C26   1.412227 A    
N4    C12   1.356952 A    
C19   C24   1.417837 A    
