data_mof_unit_40744.cif
_audit_creation_date              2013-03-05T16:09:18-0500
_audit_creation_method            fapswitch 2.2
_symmetry_space_group_name_H-M    P1
_symmetry_Int_Tables_number       1
_space_group_crystal_system       triclinic
_cell_length_a                    7.235733
_cell_length_b                    12.168967
_cell_length_c                    21.239814
_cell_angle_alpha                 90.017629
_cell_angle_beta                  90.525315
_cell_angle_gamma                 90.139869
_cell_volume                      1870.11099671

loop_
_atom_site_label
_atom_site_type_symbol
_atom_site_description
_atom_site_fract_x
_atom_site_fract_y
_atom_site_fract_z
_atom_type_partial_charge
O1    O     O_R   0.354460 0.152320 0.595720 -0.572462
O2    O     O_R   0.645540 0.847680 0.404280 -0.593146
O3    O     O_R   0.145540 0.652320 0.404280 -0.587668
O4    O     O_R   0.854460 0.347680 0.595720 -0.591970
O5    O     O_R   0.683670 0.140090 0.727290 -0.589308
O6    O     O_R   0.316330 0.859910 0.272710 -0.567996
O7    O     O_R   0.816330 0.640090 0.272710 -0.571618
O8    O     O_R   0.183670 0.359910 0.727290 -0.567651
O9    O     O_R   0.854010 0.349340 0.727750 -0.592083
O10   O     O_R   0.145990 0.650660 0.272250 -0.595148
O11   O     O_R   0.645990 0.849340 0.272250 -0.594140
O12   O     O_R   0.354010 0.150660 0.727750 -0.571563
C1    C     C_R   0.515867 0.111066 0.746326 1.006158
C2    C     C_R   0.483738 0.888631 0.253519 1.006181
C3    C     C_R   0.983613 0.611841 0.253211 1.013849
C4    C     C_R   0.016672 0.389255 0.746237 1.003037
O13   O     O_R   0.684170 0.139420 0.596190 -0.588985
O14   O     O_R   0.315830 0.860580 0.403810 -0.568490
O15   O     O_R   0.815830 0.639420 0.403810 -0.576389
O16   O     O_R   0.184170 0.360580 0.596190 -0.568417
C5    C     C_R   0.515070 0.113302 0.574420 0.999528
C6    C     C_R   0.484944 0.886694 0.425582 1.000212
C7    C     C_R   0.984767 0.613407 0.425651 1.011070
C8    C     C_R   0.015219 0.386744 0.574425 0.997408
O17   O     O_3   0.520730 0.319480 0.661730 -0.279639
O18   O     O_3   0.479270 0.680520 0.338270 -0.282256
O19   O     O_3   0.979270 0.819480 0.338270 -0.281036
O20   O     O_3   0.020730 0.180520 0.661730 -0.275575
V1    V     V_3+5 0.795560 0.238090 0.661730 1.250130
V2    V     V_3+5 0.204440 0.761910 0.338270 1.263513
V3    V     V_3+5 0.704440 0.738090 0.338270 1.256310
V4    V     V_3+5 0.295560 0.261910 0.661730 1.279298
C9    C     C_R   0.014585 0.470892 0.796928 -0.258330
C10   C     C_R   0.989960 0.530457 0.202525 -0.255659
C11   C     C_R   0.488179 0.969596 0.202649 -0.262881
C12   C     C_R   0.507632 0.029896 0.797057 -0.257845
C13   C     C_R   0.045172 0.655648 0.837413 -0.173165
C14   C     C_R   0.041050 0.347101 0.162846 -0.176442
C15   C     C_R   0.475477 0.154990 0.162650 -0.172691
C16   C     C_R   0.468468 0.845600 0.836952 -0.171257
C17   C     C_R   0.043971 0.583791 0.785967 0.336516
C18   C     C_R   0.024737 0.418508 0.214215 0.344004
C19   C     C_R   0.474160 0.083078 0.213955 0.338518
C20   C     C_R   0.473221 0.917646 0.785654 0.338162
C21   C     C_R   0.992247 0.432216 0.858216 -0.213155
C22   C     C_R   0.975217 0.568990 0.140876 -0.218213
C23   C     C_R   0.504108 0.930274 0.141302 -0.215798
C24   C     C_R   0.528842 0.068277 0.858570 -0.212272
C25   C     C_R   0.002024 0.503163 0.910885 0.169879
C26   C     C_R   0.995565 0.498403 0.088546 0.170953
C27   C     C_R   0.506990 0.001712 0.088781 0.171354
C28   C     C_R   0.515038 0.997368 0.911028 0.169342
C29   C     C_R   0.018574 0.617989 0.899462 0.016035
C30   C     C_R   0.017394 0.384053 0.100339 0.015562
C31   C     C_R   0.497242 0.116904 0.100389 0.011681
C32   C     C_R   0.496003 0.882775 0.899243 0.013532
C33   C     C_R   0.999023 0.462949 0.974212 0.082013
C34   C     C_R   0.996173 0.538531 0.025229 0.080641
C35   C     C_R   0.514147 0.961646 0.025399 0.085650
C36   C     C_R   0.516893 0.037364 0.974439 0.080647
C37   C     C_R   0.001201 0.652184 0.011637 -0.245009
C38   C     C_R   0.005879 0.349360 0.988000 -0.241136
C39   C     C_R   0.514439 0.150986 0.988192 -0.240375
C40   C     C_R   0.514400 0.847990 0.011389 -0.242776
C41   C     C_R   0.012005 0.692627 0.950305 0.347077
C42   C     C_R   0.015498 0.309184 0.049513 0.346813
C43   C     C_R   0.505792 0.191491 0.049550 0.350770
C44   C     C_R   0.503080 0.807884 0.949912 0.344599
H1    H     H_    0.002242 0.713229 0.048166 0.162444
H2    H     H_    0.008605 0.288175 0.951601 0.162300
H3    H     H_    0.515281 0.212181 0.951805 0.161416
H4    H     H_    0.521992 0.786361 0.047419 0.160586
C45   C     C_1   0.995231 0.533297 0.478149 -0.146020
C46   C     C_1   0.004766 0.466891 0.521948 -0.149414
C47   C     C_1   0.504558 0.033198 0.521914 -0.147609
C48   C     C_1   0.495449 0.966797 0.478088 -0.149278
N1    N     N_R   0.012826 0.810194 0.941121 0.217277
O21   O     O_R   0.910500 0.854628 0.897436 -0.406364
O22   O     O_R   0.087179 0.874164 0.983471 -0.382776
N2    N     N_R   0.016983 0.191629 0.058860 0.217981
O23   O     O_R   0.914030 0.146830 0.101711 -0.408767
O24   O     O_R   0.091357 0.127869 0.016986 -0.383624
N3    N     N_R   0.506119 0.309127 0.058603 0.217462
O25   O     O_R   0.609598 0.353925 0.101939 -0.409907
O26   O     O_R   0.430963 0.372853 0.016424 -0.382537
N4    N     N_R   0.503293 0.690379 0.940427 0.217425
O27   O     O_R   0.604091 0.646558 0.896744 -0.406098
O28   O     O_R   0.430225 0.625873 0.982291 -0.382804
H5    H     H_    0.945407 0.655200 0.135791 0.114271
H6    H     H_    0.966970 0.345376 0.862712 0.115239
H7    H     H_    0.557754 0.154702 0.863361 0.113987
H8    H     H_    0.513305 0.842442 0.136895 0.114992
N5    N     N_R   0.040068 0.375434 0.277329 0.241338
O29   O     O_R   0.123283 0.282404 0.287558 -0.321385
O30   O     O_R   0.952816 0.421310 0.323668 -0.410579
N6    N     N_R   0.067899 0.627942 0.723523 0.239287
O31   O     O_R   0.022734 0.729332 0.711529 -0.323468
O32   O     O_R   0.147685 0.571131 0.679661 -0.394769
N7    N     N_R   0.446842 0.874580 0.722928 0.239816
O33   O     O_R   0.486007 0.772428 0.710824 -0.321106
O34   O     O_R   0.369855 0.933466 0.678889 -0.399338
N8    N     N_R   0.463416 0.127390 0.276733 0.242596
O35   O     O_R   0.531553 0.224225 0.289033 -0.318453
O36   O     O_R   0.375849 0.075373 0.320899 -0.393303
H9    H     H_    0.074180 0.741126 0.828203 0.190964
H10   H     H_    0.073008 0.262189 0.172545 0.193575
H11   H     H_    0.453736 0.240939 0.172442 0.196357
H12   H     H_    0.436618 0.760483 0.827438 0.190388

loop_
_geom_bond_atom_site_label_1
_geom_bond_atom_site_label_2
_geom_bond_distance
_ccdc_geom_bond_type
O1    C5    1.338983 A    
N5    O29   1.300933 A    
C18   N5    1.442925 S    
C9    C21   1.394999 A    
C23   H8    1.075171 S    
O3    C7    1.338169 A    
C10   C18   1.407687 A    
C6    C48   1.482258 S    
C11   C23   1.393799 A    
C25   C33   1.431787 A    
C33   C38   1.413927 A    
C22   H5    1.076809 S    
C16   C20   1.399327 A    
N1    O21   1.300440 A    
C43   N3    1.444304 S    
C35   C40   1.414640 A    
C26   C30   1.422882 A    
C36   C39   1.413281 A    
C40   C44   1.395492 A    
O20   V1    1.775075 S    
O9    C4    1.328165 A    
C14   C18   1.400621 A    
O10   C3    1.324975 A    
O4    C8    1.338165 A    
C20   N7    1.442371 S    
N4    O28   1.301301 A    
C17   N6    1.442876 S    
O13   V1    2.000706 S    
C38   H2    1.073529 S    
C45   C46   1.233997 T    
C28   C36   1.431883 A    
C15   C31   1.411447 A    
O16   C8    1.342083 A    
C16   C32   1.410384 A    
C24   H7    1.076418 S    
N6    O32   1.300212 A    
O2    C6    1.338885 A    
C10   C22   1.394221 A    
C11   C19   1.405683 A    
C3    C10   1.463685 S    
O5    C1    1.330204 A    
O4    V1    1.983726 S    
O9    V1    1.990755 S    
C16   H12   1.079184 S    
C13   C29   1.410136 A    
C34   C37   1.413395 A    
O7    C3    1.328886 A    
O15   V3    2.003579 S    
C35   C36   1.421908 A    
N5    O30   1.300672 A    
O12   V4    1.992745 S    
O19   V2    1.775075 S    
C7    C45   1.482860 S    
O5    V1    2.008394 S    
N1    O22   1.301227 A    
C39   C43   1.395197 A    
C41   N1    1.443973 S    
C38   C42   1.396339 A    
O8    V4    2.010231 S    
O7    V3    2.010233 S    
C1    C12   1.463482 S    
N2    O24   1.301176 A    
C2    C11   1.462981 S    
N4    O27   1.300456 A    
C23   C27   1.414754 A    
C32   C44   1.411093 A    
O1    V4    1.984545 S    
O13   C5    1.341479 A    
O2    V3    1.984542 S    
C26   C34   1.430932 A    
C14   H10   1.078901 S    
O3    V2    1.983723 S    
O15   C7    1.342096 A    
C47   C48   1.233659 T    
C13   H9    1.078940 S    
C4    C9    1.464947 S    
O6    C2    1.327658 A    
O10   V2    1.990756 S    
C31   C43   1.412511 A    
N3    O25   1.300023 A    
C14   C30   1.410921 A    
C21   C25   1.414032 A    
N6    O31   1.301773 A    
N8    O36   1.300553 A    
C21   H6    1.076448 S    
O14   V2    2.000706 S    
C44   N4    1.443973 S    
N3    O26   1.301248 A    
C39   H3    1.073454 S    
C12   C20   1.408384 A    
C27   C35   1.433091 A    
C29   C41   1.412067 A    
O16   V4    2.003579 S    
C37   H1    1.073955 S    
C5    C47   1.482256 S    
O6    V2    2.008395 S    
O14   C6    1.341575 A    
O18   V3    1.771933 S    
N2    O23   1.300482 A    
C15   H11   1.078516 S    
C15   C19   1.397883 A    
C30   C42   1.412329 A    
C42   N2    1.444347 S    
C22   C26   1.413490 A    
N7    O33   1.301741 A    
C9    C17   1.409467 A    
C19   N8    1.440964 S    
C8    C46   1.482819 S    
C33   C34   1.421410 A    
O17   V4    1.771932 S    
C25   C29   1.423242 A    
O11   C2    1.326461 A    
C12   C24   1.394377 A    
C27   C31   1.425233 A    
C40   H4    1.072785 S    
C13   C17   1.399258 A    
N8    O35   1.301745 A    
O11   V3    1.992746 S    
C37   C41   1.395477 A    
C24   C28   1.413580 A    
O12   C1    1.324323 A    
O8    C4    1.326845 A    
N7    O34   1.300600 A    
C28   C32   1.422823 A    
