data_mof_unit_59230.cif
_audit_creation_date              2013-03-05T15:55:43-0500
_audit_creation_method            fapswitch 2.2
_symmetry_space_group_name_H-M    P1
_symmetry_Int_Tables_number       1
_space_group_crystal_system       triclinic
_cell_length_a                    6.92716
_cell_length_b                    17.605491
_cell_length_c                    19.446632
_cell_angle_alpha                 108.572093
_cell_angle_beta                  89.606041
_cell_angle_gamma                 90.537566
_cell_volume                      2248.01056733

loop_
_atom_site_label
_atom_site_type_symbol
_atom_site_description
_atom_site_fract_x
_atom_site_fract_y
_atom_site_fract_z
_atom_type_partial_charge
O1    O     O_R   0.494330 0.415710 0.413720 -0.609312
O2    O     O_R   0.819360 0.430070 0.560210 -0.549653
O3    O     O_R   0.994320 0.584290 0.586280 -0.571369
C1    C     C_R   0.650111 0.412703 0.579928 1.079862
O4    O     O_R   0.823740 0.406290 0.412670 -0.593974
O5    O     O_R   0.998730 0.560340 0.437690 -0.611143
C2    C     C_R   0.654724 0.383001 0.384751 0.933408
O6    O     O_R   0.489920 0.439660 0.562310 -0.583155
O7    O     O_3   0.662330 0.550570 0.508380 -0.274672
V1    V     V_3+5 0.935370 0.490620 0.498440 1.248824
O8    O     O_R   0.328720 0.569930 0.439790 -0.596354
C3    C     C_R   0.160624 0.585115 0.418279 0.928802
O9    O     O_R   0.324340 0.593710 0.587330 -0.592107
C4    C     C_R   0.155287 0.614872 0.616626 1.008174
V2    V     V_3+5 0.435940 0.509380 0.501560 1.220874
O10   O     O_3   0.159110 0.449430 0.491620 -0.245505
C5    C     C_R   0.275926 0.744529 0.702401 -0.125125
H1    H     H_    0.386894 0.745813 0.663253 0.150888
C6    C     C_R   0.264389 0.808579 0.767016 -0.127662
H2    H     H_    0.367039 0.857552 0.775990 0.139831
C7    C     C_R   0.120071 0.810860 0.818738 -0.277566
C8    C     C_R   0.990145 0.745193 0.805774 0.296088
C9    C     C_R   0.002097 0.680235 0.740423 0.287721
C10   C     C_R   0.143567 0.680576 0.687352 -0.276262
C11   C     C_R   0.300311 0.631148 0.318880 -0.153057
C12   C     C_R   0.152547 0.635013 0.369619 -0.160650
C13   C     C_R   0.995524 0.686115 0.373315 -0.177673
C14   C     C_R   0.985661 0.734174 0.327674 0.057792
C15   C     C_R   0.133500 0.728583 0.275652 0.044526
C16   C     C_R   0.290489 0.676620 0.271327 0.152265
C17   C     C_R   0.832924 0.788176 0.332987 0.284782
C18   C     C_R   0.827547 0.835060 0.287017 -0.171347
C19   C     C_R   0.970902 0.829013 0.233894 -0.016708
C20   C     C_R   0.125382 0.775247 0.228227 -0.018688
C21   C     C_R   0.272832 0.768592 0.175811 0.053402
C22   C     C_R   0.427745 0.715544 0.171737 0.335874
C23   C     C_R   0.435929 0.670831 0.219576 -0.282504
C24   C     C_R   0.964972 0.876789 0.187469 0.370250
C25   C     C_R   0.109871 0.868778 0.133991 -0.329405
C26   C     C_R   0.261752 0.815012 0.128926 -0.091882
H3    H     H_    0.421447 0.591531 0.315523 0.123834
H4    H     H_    0.883236 0.688850 0.412938 0.179824
H5    H     H_    0.709181 0.876415 0.293551 0.209595
H6    H     H_    0.370835 0.809627 0.087610 0.204274
H7    H     H_    0.556773 0.631078 0.216063 0.166637
C27   C     C_R   0.470370 0.186660 0.868083 -0.248630
C28   C     C_R   0.623857 0.135377 0.869851 -0.141000
C29   C     C_R   0.782562 0.130036 0.823135 -0.247031
C30   C     C_R   0.786746 0.173813 0.774083 0.154373
C31   C     C_R   0.633271 0.225590 0.773007 0.069074
C32   C     C_R   0.474982 0.232335 0.820611 0.142137
C33   C     C_R   0.940509 0.165656 0.725246 -0.225953
C34   C     C_R   0.942379 0.207954 0.675456 -0.114479
C35   C     C_R   0.792472 0.261265 0.674409 -0.021629
C36   C     C_R   0.637233 0.270150 0.723897 -0.001823
C37   C     C_R   0.484401 0.322630 0.723869 0.130779
C38   C     C_R   0.328553 0.329306 0.771922 -0.144855
C39   C     C_R   0.323338 0.284227 0.819547 -0.213195
C40   C     C_R   0.792307 0.304608 0.624290 0.300607
C41   C     C_R   0.642670 0.360099 0.626624 -0.311112
C42   C     C_R   0.489888 0.367966 0.676241 -0.131164
H8    H     H_    0.347514 0.191431 0.904025 0.141756
H9    H     H_    0.900497 0.090113 0.823538 0.137753
H10   H     H_    0.059101 0.125867 0.725061 0.145616
H11   H     H_    0.062961 0.198601 0.638161 0.186570
H12   H     H_    0.375732 0.410410 0.678443 0.174670
H13   H     H_    0.209591 0.368969 0.772255 0.156162
H14   H     H_    0.200387 0.289927 0.855552 0.146829
C43   C     C_R   0.811546 0.275630 0.282109 -0.109839
H15   H     H_    0.952233 0.294521 0.305600 0.127898
C44   C     C_R   0.800470 0.211840 0.217115 -0.072383
H16   H     H_    0.933145 0.183417 0.192649 0.131137
C45   C     C_R   0.620958 0.185099 0.184311 -0.128693
C46   C     C_R   0.452784 0.223773 0.218439 -0.125508
H17   H     H_    0.312088 0.204828 0.194981 0.122788
C47   C     C_R   0.463862 0.287588 0.283421 -0.115223
H18   H     H_    0.331182 0.315979 0.307914 0.125539
C48   C     C_R   0.643415 0.314458 0.316128 -0.122501
O11   O     O_R   0.774940 0.060470 0.937800 -0.608655
O12   O     O_R   0.440880 0.093730 0.087350 -0.608330
O13   O     O_R   0.266130 0.939630 0.062280 -0.581561
C49   C     C_R   0.609794 0.116863 0.115461 0.979919
O14   O     O_R   0.445480 0.069960 0.939820 -0.611278
O15   O     O_R   0.270770 0.915690 0.913690 -0.593902
C50   C     C_R   0.614757 0.085614 0.918672 0.932326
O16   O     O_R   0.770300 0.084410 0.086380 -0.589112
O17   O     O_3   0.602600 0.949510 0.991670 -0.230325
V3    V     V_3+5 0.329470 0.009370 0.001550 1.201338
O18   O     O_R   0.940760 0.906160 0.912560 -0.575384
C51   C     C_R   0.109862 0.881585 0.885783 0.986301
O19   O     O_R   0.936150 0.929930 0.060100 -0.546245
C52   C     C_R   0.103835 0.916114 0.082814 1.045348
V4    V     V_3+5 0.828930 0.990450 0.998310 1.252216
O20   O     O_3   0.105670 0.050490 0.008320 -0.302661
Br1   Br    Br    0.633599 0.700849 0.101973 -0.502563
N1    N     N_R   0.937968 0.289375 0.568801 0.235196
O21   O     O_R   0.116049 0.310887 0.585663 -0.417751
O22   O     O_R   0.889589 0.260233 0.500845 -0.384010
Br2   Br    Br    0.804443 0.740163 0.878973 -0.412255
Br3   Br    Br    0.832993 0.588750 0.727379 -0.493542
Br4   Br    Br    0.628601 0.802859 0.403359 -0.553341
N2    N     N_R   0.818475 0.936452 0.197114 0.229063
O23   O     O_R   0.639596 0.915248 0.181586 -0.399381
O24   O     O_R   0.866065 0.011976 0.216607 -0.411831

loop_
_geom_bond_atom_site_label_1
_geom_bond_atom_site_label_2
_geom_bond_distance
_ccdc_geom_bond_type
O17   V3    2.151906 S    
V4    O20   2.160146 S    
C45   C46   1.406282 A    
C25   C52   1.488720 S    
C21   C22   1.414422 A    
C22   Br1   1.922936 S    
C1    O6    1.301034 A    
C34   C35   1.410826 A    
C12   C13   1.404928 A    
C46   C47   1.400128 A    
C27   H8    1.084264 S    
C17   Br4   1.922959 S    
C22   C23   1.398725 A    
C6    C7    1.404952 A    
C47   C48   1.408379 A    
O11   V4    1.995719 S    
O5    C3    1.296265 A    
C24   C25   1.415548 A    
V2    O10   2.160062 S    
C37   C38   1.403959 A    
C20   C21   1.416990 A    
C4    C10   1.491017 S    
C43   C44   1.400039 A    
C35   C36   1.414244 A    
O13   C52   1.298145 A    
O8    V2    1.993430 S    
C42   H12   1.084338 S    
C17   C18   1.397466 A    
N1    O22   1.301125 A    
C31   C36   1.415882 A    
C9    C10   1.419665 A    
O1    V2    2.002418 S    
C34   H11   1.081218 S    
O7    V1    2.152016 S    
C7    C51   1.490502 S    
C9    Br3   1.933698 S    
C40   C41   1.421628 A    
O9    C4    1.303286 A    
C43   C48   1.406308 A    
N2    O23   1.300238 A    
O15   C51   1.298322 A    
C38   H13   1.083781 S    
O4    V1    2.000750 S    
C5    H1    1.083318 S    
C35   C40   1.416343 A    
V3    O20   1.703640 S    
C5    C10   1.403010 A    
C46   H17   1.082748 S    
C47   H18   1.082772 S    
O12   C49   1.300716 A    
C33   H10   1.083852 S    
C11   H3    1.084484 S    
O19   C52   1.297824 A    
C44   C45   1.408377 A    
C29   H9    1.084387 S    
C31   C32   1.411333 A    
C11   C12   1.403772 A    
C49   O16   1.296118 A    
C15   C20   1.418753 A    
C16   C23   1.400311 A    
C3    C12   1.483735 S    
C41   C42   1.404933 A    
O2    C1    1.294933 A    
C15   C16   1.412455 A    
O16   V4    2.008222 S    
O19   V4    1.993346 S    
C28   C29   1.405910 A    
C30   C33   1.399707 A    
N1    O21   1.300156 A    
C1    C41   1.489678 S    
C36   C37   1.411802 A    
C19   C20   1.415711 A    
C37   C42   1.402219 A    
C32   C39   1.403169 A    
N2    O24   1.301059 A    
O3    C4    1.294933 A    
C2    C48   1.488966 S    
C39   H14   1.083675 S    
C29   C30   1.404369 A    
O14   C50   1.295992 A    
O6    V2    1.995125 S    
O9    V2    2.002570 S    
C40   N1    1.435343 S    
C23   H7    1.083967 S    
O2    V1    2.002860 S    
C28   C50   1.483539 S    
C45   C49   1.488942 S    
O11   C50   1.298213 A    
C33   C34   1.396824 A    
O4    C2    1.300617 A    
C11   C16   1.405038 A    
C27   C28   1.408926 A    
C14   C15   1.416384 A    
C8    Br2   1.934401 S    
O1    C2    1.296232 A    
C14   C17   1.410254 A    
O15   V3    2.001671 S    
O5    V1    2.000351 S    
O8    C3    1.298512 A    
C19   C24   1.417423 A    
C18   C19   1.408015 A    
C6    H2    1.083425 S    
C21   C26   1.407775 A    
O7    V2    1.709705 S    
C44   H16   1.082774 S    
O12   V3    2.000762 S    
O3    V1    2.001694 S    
V1    O10   1.703701 S    
C13   H4    1.081628 S    
C38   C39   1.398613 A    
O17   V4    1.707790 S    
C5    C6    1.398065 A    
C18   H5    1.081378 S    
O14   V3    2.002768 S    
C27   C32   1.404229 A    
O18   V4    2.002620 S    
C43   H15   1.082746 S    
O13   V3    2.000301 S    
C25   C26   1.403747 A    
C26   H6    1.081664 S    
C24   N2    1.435352 S    
C30   C31   1.411485 A    
C13   C14   1.410165 A    
C8    C9    1.415741 A    
O18   C51   1.299273 A    
C7    C8    1.417064 A    
