data_mof_unit_10297.cif
_audit_creation_date              2012-10-26T19:05:02-0400
_audit_creation_method            fapswitch 2.2
_symmetry_space_group_name_H-M    P1
_symmetry_Int_Tables_number       1
_space_group_crystal_system       triclinic
_cell_length_a                    15.863109
_cell_length_b                    10.790037
_cell_length_c                    9.719472
_cell_angle_alpha                 90.142443
_cell_angle_beta                  88.717458
_cell_angle_gamma                 94.164824
_cell_volume                      1658.80967526

loop_
_atom_site_label
_atom_site_type_symbol
_atom_type_description
_atom_site_fract_x
_atom_site_fract_y
_atom_site_fract_z
_atom_type_partial_charge
C1    C     C_R   0.499499 0.262978 0.499206 0.563979
C2    C     C_R   0.273077 0.043373 0.609298 -0.093514
C3    C     C_R   0.277296 0.917364 0.637272 0.002325
C4    C     C_R   0.340539 0.498339 0.501261 0.536545
C5    C     C_R   0.349829 0.857919 0.599547 -0.097485
C6    C     C_R   0.421888 0.926989 0.544596 0.014954
C7    C     C_R   0.420543 0.057234 0.532121 0.016393
C8    C     C_R   0.495922 0.128465 0.495419 0.036747
C9    C     C_R   0.568479 0.070070 0.454207 0.080358
C10   C     C_R   0.567118 0.941816 0.455341 -0.108490
C11   C     C_R   0.495485 0.870315 0.501717 -0.000385
C12   C     C_3   0.943759 0.428804 0.641290 -0.097215
C13   C     C_R   0.592641 0.702225 0.130566 0.008587
C14   C     C_R   0.612354 0.808332 0.050579 -0.123164
C15   C     C_R   0.619521 0.797236 0.910026 0.058308
C16   C     C_R   0.498924 0.736782 0.500431 0.525796
C17   C     C_R   0.596300 0.684585 0.849261 -0.049897
C18   C     C_R   0.548649 0.590283 0.922621 0.094341
C19   C     C_R   0.548207 0.593646 0.071522 0.105777
C20   C     C_R   0.449690 0.416596 0.075714 0.221653
C21   C     C_R   0.448545 0.418660 0.928539 0.222833
C22   C     C_R   0.659103 0.496466 0.498948 0.579308
C23   C     C_3   0.916022 0.486314 0.503349 0.026415
C24   C     C_3   0.042874 0.425721 0.641394 -0.096425
C25   C     C_3   0.046929 0.410483 0.382516 -0.234046
C26   C     C_3   0.949087 0.407946 0.382283 -0.231648
C27   C     C_1   0.748510 0.491367 0.497057 0.051520
C28   C     C_3   0.082157 0.486885 0.506678 0.031626
C29   C     C_1   0.082668 0.479972 0.766667 0.222366
C30   C     C_1   0.908199 0.492842 0.762390 0.212007
C31   C     C_1   0.208818 0.851083 0.711603 0.194555
C32   C     C_1   0.650811 0.704038 0.241588 0.262306
C33   C     C_3   0.956941 0.620607 0.488403 -0.218202
C34   C     C_3   0.054227 0.621025 0.493279 -0.224015
C35   C     C_1   0.823837 0.487808 0.498104 -0.026155
C36   C     C_1   0.174822 0.489571 0.504597 -0.043856
C37   C     C_1   0.250607 0.493617 0.503603 0.004215
C38   C     C_R   0.343669 0.112489 0.555170 -0.079935
Cu1   Cu    Cu3+1 0.499990 0.499990 0.640660 0.999292
Cu2   Cu    Cu3+1 0.500010 0.500010 0.359340 1.024809
H1    H     H_    0.916078 0.331055 0.646759 0.118505
H2    H     H_    0.073255 0.451932 0.284469 0.157107
H3    H     H_    0.066697 0.313712 0.387183 0.132654
H4    H     H_    0.921803 0.310199 0.390830 0.148939
H5    H     H_    0.928635 0.444951 0.282525 0.155489
H6    H     H_    0.077029 0.678215 0.581491 0.164701
H7    H     H_    0.082746 0.665517 0.398282 0.134941
H8    H     H_    0.933536 0.681077 0.571714 0.153308
H9    H     H_    0.938814 0.661102 0.389001 0.146226
H10   H     H_    0.338326 0.210219 0.535361 0.137655
H11   H     H_    0.216121 0.089416 0.633753 0.130508
H12   H     H_    0.350172 0.758980 0.617074 0.137834
H13   H     H_    0.623583 0.898100 0.424358 0.162180
H14   H     H_    0.057707 0.326409 0.640901 0.101306
H15   H     H_    0.639043 0.893734 0.096895 0.164459
H16   H     H_    0.614885 0.676450 0.744070 0.197583
I1    I     I_    0.683051 0.168728 0.389225 -0.330037
I2    I     I_    0.363654 0.283942 0.182038 -0.271217
I3    I     I_    0.676497 0.945712 0.791735 -0.330506
I4    I     I_    0.355434 0.299063 0.830906 -0.278695
N1    N     N_R   0.500800 0.501210 0.147910 -0.250970
N2    N     N_R   0.500820 0.501290 0.852040 -0.252366
N3    N     N_1   0.113835 0.521655 0.864598 -0.234616
N4    N     N_1   0.880313 0.542751 0.856684 -0.259943
N5    N     N_1   0.154115 0.799051 0.773504 -0.272122
N6    N     N_1   0.701377 0.714383 0.325724 -0.319885
O1    O     O_R   0.499990 0.319640 0.618810 -0.467156
O2    O     O_R   0.500000 0.319660 0.381240 -0.467906
O3    O     O_R   0.379430 0.499990 0.618840 -0.482231
O4    O     O_R   0.379440 0.500020 0.381260 -0.476660
O5    O     O_R   0.500000 0.680340 0.618760 -0.524589
O6    O     O_R   0.500010 0.680360 0.381190 -0.505040
O7    O     O_R   0.620560 0.499980 0.618740 -0.517111
O8    O     O_R   0.620570 0.500010 0.381160 -0.474923

loop_
_geom_bond_atom_site_label_1
_geom_bond_atom_site_label_2
_ccdc_geom_bond_type
C29   N3    T    
C30   N4    T    
C1    C8    S    
C13   C32   S    
C16   O6    A    
C25   H3    S    
C4    O4    A    
C26   H4    S    
C7    C8    A    
C25   C28   S    
C12   C23   S    
Cu2   O4    S    
C36   C37   T    
C5    C6    A    
C33   H9    S    
C1    O2    A    
C31   N5    T    
C18   C19   A    
C23   C26   S    
C20   N1    A    
C10   H13   S    
C24   C29   S    
C26   H5    S    
C8    C9    A    
C23   C33   S    
C5    H12   S    
C34   H6    S    
C9    C10   A    
C14   H15   S    
C28   C34   S    
C13   C14   A    
C16   O5    A    
Cu1   O1    S    
C4    O3    A    
C17   C18   A    
C13   C19   A    
C21   I4    S    
C10   C11   A    
C6    C11   A    
C18   N2    A    
C27   C35   T    
C25   C26   S    
Cu2   N1    S    
C12   H1    S    
C11   C16   S    
C2    C38   A    
C33   C34   S    
Cu1   O3    S    
C4    C37   S    
C3    C31   S    
C17   H16   S    
C21   N2    A    
C23   C35   S    
C22   C27   S    
C22   O8    A    
C20   I2    S    
Cu1   Cu2   S    
C32   N6    T    
C15   C17   A    
Cu1   N2    S    
Cu2   O6    S    
C12   C30   S    
C15   I3    S    
C24   C28   S    
C3    C5    A    
C25   H2    S    
C6    C7    A    
C38   H10   S    
C12   C24   S    
C2    C3    A    
C19   N1    A    
C1    O1    A    
C7    C38   A    
Cu2   O8    S    
C9    I1    S    
Cu1   O7    S    
C2    H11   S    
C20   C21   A    
C28   C36   S    
Cu2   O2    S    
C33   H8    S    
Cu1   O5    S    
C14   C15   A    
C34   H7    S    
C22   O7    A    
C24   H14   S    
