data_mof_unit_62191.cif
_audit_creation_date              2013-03-05T15:43:53-0500
_audit_creation_method            fapswitch 2.2
_symmetry_space_group_name_H-M    P1
_symmetry_Int_Tables_number       1
_space_group_crystal_system       triclinic
_cell_length_a                    13.11725
_cell_length_b                    13.214854
_cell_length_c                    15.128882
_cell_angle_alpha                 86.674814
_cell_angle_beta                  100.449801
_cell_angle_gamma                 91.455991
_cell_volume                      2574.34493506

loop_
_atom_site_label
_atom_site_type_symbol
_atom_site_description
_atom_site_fract_x
_atom_site_fract_y
_atom_site_fract_z
_atom_type_partial_charge
Zn1   Zn    Zn3+2 0.592480 0.421540 0.443840 0.999065
Zn2   Zn    Zn3+2 0.578450 0.600910 0.572270 1.053374
Zn3   Zn    Zn3+2 0.430000 0.409940 0.576840 0.976415
Zn4   Zn    Zn3+2 0.399070 0.567610 0.407050 1.029895
O1    O     O_3   0.500000 0.500000 0.500000 -0.513107
O2    O     O_R   0.407210 0.713280 0.414580 -0.623382
O3    O     O_R   0.586880 0.279120 0.481060 -0.629115
O4    O     O_R   0.723250 0.592730 0.566440 -0.625228
O5    O     O_R   0.282660 0.414860 0.537920 -0.629601
O6    O     O_R   0.563230 0.581310 0.697440 -0.628229
O7    O     O_R   0.421030 0.536630 0.288090 -0.612514
O8    O     O_R   0.459330 0.447650 0.700640 -0.645254
O9    O     O_R   0.556410 0.434400 0.313840 -0.635696
O10   O     O_R   0.733070 0.467190 0.476550 -0.636932
O11   O     O_R   0.261010 0.525210 0.419080 -0.633904
O12   O     O_R   0.532760 0.736590 0.530220 -0.585135
O13   O     O_R   0.473150 0.271000 0.574150 -0.638364
C1    C     C_R   0.464217 0.773058 0.467186 0.918292
C2    C     C_R   0.535871 0.228378 0.533625 0.825747
C3    C     C_R   0.776962 0.536510 0.526681 0.875709
C4    C     C_R   0.223726 0.463222 0.473405 0.835072
C5    C     C_R   0.513308 0.518400 0.741130 0.807713
C6    C     C_R   0.485838 0.482024 0.259389 0.877321
C7    C     C_R   0.513959 0.529887 0.836712 -0.029457
C8    C     C_R   0.482733 0.476664 0.163405 -0.114859
C9    C     C_R   0.462619 0.373369 0.034639 -0.180425
C10   C     C_R   0.463559 0.382440 0.125672 -0.244727
C11   C     C_R   0.502443 0.563566 0.110319 0.244054
C12   C     C_R   0.506033 0.553711 0.018637 0.051850
C13   C     C_R   0.484526 0.457931 0.980950 0.129820
C14   C     C_R   0.486997 0.447284 0.890209 -0.230518
C15   C     C_R   0.538709 0.623802 0.874313 -0.183934
C16   C     C_R   0.534261 0.635912 0.964321 -0.137948
H1    H     H_    0.469335 0.374177 0.861464 0.162546
H2    H     H_    0.559888 0.688450 0.833689 0.199527
H3    H     H_    0.448585 0.315831 0.166920 0.160431
C17   C     C_2   0.549749 0.120718 0.550878 -0.202386
C18   C     C_2   0.517695 0.056404 0.486389 -0.270539
H4    H     H_    0.411171 0.914490 0.390376 0.154007
C19   C     C_2   0.458432 0.883837 0.452188 -0.431699
C20   C     C_2   0.515760 0.946836 0.509619 0.367040
H5    H     H_    0.571538 0.093989 0.620837 0.185286
H6    H     H_    0.099828 0.552716 0.561758 0.158165
C21   C     C_2   0.112170 0.450184 0.462996 -0.263293
C22   C     C_2   0.059464 0.501860 0.512500 -0.142117
C23   C     C_2   0.889857 0.549685 0.540342 -0.309958
C24   C     C_2   0.946424 0.491656 0.498807 -0.132290
H7    H     H_    0.908855 0.435618 0.453266 0.192562
H8    H     H_    0.926988 0.606487 0.585184 0.167247
H9    H     H_    0.072603 0.401836 0.411397 0.137322
H10   H     H_    0.446752 0.299781 0.006564 0.159849
H11   H     H_    0.554397 0.709458 0.990915 0.201492
N1    N     N_R   0.521262 0.660036 0.150018 0.193887
O14   O     O_R   0.594415 0.670536 0.219647 -0.400734
O15   O     O_R   0.460892 0.735840 0.120127 -0.377669
N2    N     N_R   0.573383 0.909725 0.595125 0.234947
O16   O     O_R   0.673275 0.924222 0.613901 -0.369109
O17   O     O_R   0.524404 0.874222 0.658053 -0.391279
H12   H     H_    0.486828 0.085072 0.418155 0.150766

loop_
_geom_bond_atom_site_label_1
_geom_bond_atom_site_label_2
_geom_bond_distance
_ccdc_geom_bond_type
C11   N1    1.437324 S    
C7    C15   1.401312 A    
C20   N2    1.440773 S    
C9    C13   1.397906 A    
C17   C18   1.334244 D    
Zn3   O5    1.917128 S    
C12   C16   1.406676 A    
C10   H3    1.083868 S    
C8    C10   1.397858 A    
C4    C21   1.450008 S    
Zn2   O12   1.939769 S    
C24   H7    1.087859 S    
Zn3   O1    1.944763 S    
Zn4   O7    1.941427 S    
C15   C16   1.392078 A    
Zn4   O11   1.919072 S    
N1    O15   1.301127 A    
C7    C14   1.397654 A    
Zn1   O3    1.936403 S    
N1    O14   1.301236 A    
C21   C22   1.332801 D    
C16   H11   1.081655 S    
H6    C22   1.088222 S    
C23   H8    1.086984 S    
O5    C4    1.279750 A    
C9    C10   1.387149 A    
O4    C3    1.281544 A    
C18   C20   1.470702 S    
Zn1   O1    1.951534 S    
O7    C6    1.278028 A    
C19   C20   1.352252 D    
O13   C2    1.271461 A    
N2    O17   1.301536 A    
Zn3   O13   1.939850 S    
O3    C2    1.279883 A    
C6    C8    1.451095 S    
C13   C14   1.394354 A    
O2    C1    1.282050 A    
C5    C7    1.461192 S    
C14   H1    1.084875 S    
Zn2   O1    1.929740 S    
Zn1   O9    1.936135 S    
H4    C19   1.086929 S    
C12   C13   1.419135 A    
C18   H12   1.088080 S    
Zn2   O6    1.941799 S    
C15   H2    1.083390 S    
O8    C5    1.275208 A    
Zn1   O10   1.912266 S    
O11   C4    1.277894 A    
N2    O16   1.301093 A    
O9    C6    1.274551 A    
O10   C3    1.281107 A    
O12   C1    1.267957 A    
Zn4   O2    1.934067 S    
C22   C24   1.463337 S    
C21   H9    1.086745 S    
C17   H5    1.085680 S    
C1    C19   1.470108 S    
C23   C24   1.336944 D    
C11   C12   1.409973 A    
Zn3   O8    1.934283 S    
C2    C17   1.441604 S    
Zn2   O4    1.923387 S    
C9    H10   1.083951 S    
O6    C5    1.273761 A    
C3    C23   1.464946 S    
Zn4   O1    1.941016 S    
C8    C11   1.408518 A    
