data_mof_unit_21956.cif
_audit_creation_date              2012-12-11T15:08:34-0500
_audit_creation_method            fapswitch 2.2
_symmetry_space_group_name_H-M    P1
_symmetry_Int_Tables_number       1
_space_group_crystal_system       triclinic
_cell_length_a                    25.957903
_cell_length_b                    27.607747
_cell_length_c                    8.392146
_cell_angle_alpha                 90.0
_cell_angle_beta                  96.077075
_cell_angle_gamma                 89.999944
_cell_volume                      5980.34378113

loop_
_atom_site_label
_atom_site_type_symbol
_atom_type_description
_atom_site_fract_x
_atom_site_fract_y
_atom_site_fract_z
_atom_type_partial_charge
Ba1   Ba    Ba6+2 0.999910 0.465960 0.844870 1.637671
Ba2   Ba    Ba6+2 0.999910 0.534040 0.344870 1.637701
Ba3   Ba    Ba6+2 0.499910 0.965960 0.844870 1.637681
Ba4   Ba    Ba6+2 0.499910 0.034040 0.344870 1.637682
C1    C     C_3   0.041823 0.240598 0.651874 -0.350798
C2    C     C_3   0.041795 0.759418 0.151778 -0.350888
C3    C     C_3   0.541822 0.740597 0.651870 -0.350794
C4    C     C_3   0.541821 0.259403 0.151865 -0.350800
C5    C     C_R   0.884779 0.391012 0.150875 0.055881
C6    C     C_R   0.884775 0.608985 0.650874 0.055779
C7    C     C_R   0.384779 0.891012 0.150876 0.055882
C8    C     C_R   0.384778 0.108987 0.650876 0.055878
C9    C     C_R   0.844670 0.358377 0.099808 -0.108711
C10   C     C_R   0.844665 0.641619 0.599806 -0.108363
C11   C     C_R   0.344672 0.858377 0.099807 -0.108706
C12   C     C_R   0.344669 0.141622 0.599809 -0.108701
C13   C     C_R   0.833918 0.318111 0.195668 0.017505
C14   C     C_R   0.833915 0.681887 0.695663 0.017567
C15   C     C_R   0.333920 0.818110 0.195667 0.017508
C16   C     C_R   0.333917 0.181889 0.695669 0.017506
C17   C     C_R   0.863430 0.312421 0.346164 -0.116799
C18   C     C_R   0.863428 0.687577 0.846155 -0.116909
C19   C     C_R   0.363431 0.812421 0.346164 -0.116801
C20   C     C_R   0.363429 0.187578 0.846165 -0.116803
C21   C     C_R   0.902877 0.345464 0.397542 0.004640
C22   C     C_R   0.902875 0.654534 0.897531 0.004657
C23   C     C_R   0.402877 0.845465 0.397542 0.004641
C24   C     C_R   0.402876 0.154535 0.897543 0.004641
C25   C     C_R   0.795648 0.233549 0.178002 -0.057582
C26   C     C_R   0.795647 0.766449 0.677992 -0.057613
C27   C     C_R   0.295652 0.733547 0.178003 -0.057582
C28   C     C_R   0.295647 0.266450 0.678002 -0.057582
C29   C     C_R   0.255217 0.701052 0.130818 -0.077366
C30   C     C_R   0.255211 0.298944 0.630817 -0.077367
C31   C     C_R   0.755212 0.201055 0.130816 -0.077368
C32   C     C_R   0.755211 0.798944 0.630809 -0.077360
C33   C     C_R   0.208530 0.717254 0.046846 0.060076
C34   C     C_R   0.208524 0.282742 0.546850 0.060070
C35   C     C_R   0.708525 0.217257 0.046849 0.060070
C36   C     C_R   0.708523 0.782742 0.546848 0.060070
C37   C     C_R   0.203648 0.767057 0.011755 -0.075603
C38   C     C_R   0.203642 0.232938 0.511764 -0.075607
C39   C     C_R   0.703644 0.267061 0.011761 -0.075606
C40   C     C_R   0.703640 0.732938 0.511765 -0.075597
C41   C     C_R   0.744069 0.299574 0.059099 -0.080021
C42   C     C_R   0.744065 0.700424 0.559101 -0.080016
C43   C     C_R   0.244072 0.799571 0.059093 -0.080021
C44   C     C_R   0.244067 0.200425 0.559102 -0.080022
C45   C     C_3   0.992448 0.281610 0.128326 0.776919
C46   C     C_3   0.992398 0.718344 0.628205 0.777023
C47   C     C_3   0.492448 0.781610 0.128324 0.776910
C48   C     C_3   0.492448 0.218389 0.628323 0.776922
C49   C     C_R   0.790784 0.283367 0.143013 0.062985
C50   C     C_R   0.790781 0.716631 0.643009 0.062972
C51   C     C_R   0.290787 0.783365 0.143011 0.062987
C52   C     C_R   0.290782 0.216632 0.643015 0.062985
C53   C     C_R   0.136644 0.687585 0.842265 -0.138187
C54   C     C_R   0.136635 0.312408 0.342274 -0.138193
C55   C     C_R   0.636636 0.187591 0.842273 -0.138194
C56   C     C_R   0.636635 0.812408 0.342272 -0.138196
C57   C     C_R   0.097602 0.654185 0.790470 -0.007753
C58   C     C_R   0.097593 0.345808 0.290478 -0.007875
C59   C     C_R   0.597594 0.154191 0.790477 -0.007871
C60   C     C_R   0.597593 0.845809 0.290477 -0.007871
C61   C     C_R   0.114784 0.609496 0.038820 0.063561
C62   C     C_R   0.114781 0.390502 0.538821 0.063558
C63   C     C_R   0.614782 0.109497 0.038821 0.063554
C64   C     C_R   0.614781 0.890502 0.538820 0.063555
C65   C     C_R   0.154485 0.642459 0.090619 -0.128927
C66   C     C_R   0.154480 0.357538 0.590620 -0.128941
C67   C     C_R   0.654481 0.142461 0.090619 -0.128941
C68   C     C_R   0.654481 0.857538 0.590619 -0.128942
C69   C     C_R   0.165536 0.682430 0.993938 -0.009989
C70   C     C_R   0.165529 0.317565 0.493943 -0.009962
C71   C     C_R   0.665531 0.182435 0.993941 -0.009962
C72   C     C_R   0.665529 0.817565 0.493941 -0.009966
C73   C     C_R   0.085549 0.616717 0.891594 -0.275680
C74   C     C_R   0.085543 0.383279 0.391598 -0.275636
C75   C     C_R   0.585544 0.116721 0.891597 -0.275636
C76   C     C_R   0.585543 0.883279 0.391597 -0.275635
C77   C     C_3   0.998471 0.232049 0.207356 -0.242774
C78   C     C_3   0.998234 0.767963 0.706893 -0.242581
C79   C     C_3   0.498468 0.732048 0.207347 -0.242774
C80   C     C_3   0.498465 0.267953 0.707339 -0.242771
C81   C     C_3   0.147740 0.469594 0.222409 0.312980
C82   C     C_3   0.147744 0.530404 0.722414 0.312980
C83   C     C_3   0.647740 0.969594 0.222409 0.312990
C84   C     C_3   0.647741 0.030405 0.722409 0.312984
C85   C     C_3   0.196757 0.439037 0.243762 -0.390968
C86   C     C_3   0.196764 0.560958 0.743763 -0.390972
C87   C     C_3   0.696758 0.939038 0.243759 -0.390981
C88   C     C_3   0.696759 0.060962 0.743760 -0.390973
C89   C     C_3   0.852399 0.531188 0.968497 0.314601
C90   C     C_3   0.852401 0.468811 0.468495 0.314611
C91   C     C_3   0.352400 0.031189 0.968496 0.314602
C92   C     C_3   0.352400 0.968811 0.468495 0.314602
C93   C     C_3   0.803686 0.562206 0.950975 -0.390797
C94   C     C_3   0.803688 0.437793 0.450965 -0.390813
C95   C     C_3   0.303687 0.062206 0.950968 -0.390809
C96   C     C_3   0.303687 0.937794 0.450964 -0.390809
C97   C     C_3   0.017135 0.290205 0.623222 0.381388
C98   C     C_3   0.017120 0.709804 0.123183 0.381301
C99   C     C_3   0.517135 0.790205 0.623220 0.381385
C100  C     C_3   0.517134 0.209795 0.123218 0.381382
C101  C     C_R   0.914617 0.383232 0.296950 -0.268043
C102  C     C_R   0.914614 0.616766 0.796943 -0.268042
C103  C     C_R   0.414617 0.883232 0.296951 -0.268041
C104  C     C_R   0.414616 0.116767 0.796951 -0.268043
H1    H     H_    0.039413 0.316532 0.703549 0.091323
H2    H     H_    0.039409 0.683487 0.203524 0.091298
H3    H     H_    0.539414 0.816532 0.703547 0.091321
H4    H     H_    0.539413 0.183469 0.203548 0.091321
H5    H     H_    0.225524 0.455932 0.334409 0.125376
H6    H     H_    0.225532 0.544059 0.834400 0.125379
H7    H     H_    0.725526 0.955933 0.334403 0.125368
H8    H     H_    0.725526 0.044066 0.834404 0.125371
H9    H     H_    0.187988 0.402135 0.284563 0.067329
H10   H     H_    0.187997 0.597860 0.784577 0.067321
H11   H     H_    0.687989 0.902135 0.284562 0.067328
H12   H     H_    0.687990 0.097864 0.784564 0.067331
H13   H     H_    0.213702 0.436150 0.128013 0.126467
H14   H     H_    0.213706 0.563847 0.628011 0.126465
H15   H     H_    0.713703 0.936150 0.128009 0.126464
H16   H     H_    0.713703 0.063850 0.628010 0.126466
H17   H     H_    0.867360 0.527990 0.850422 0.008991
H18   H     H_    0.867365 0.472010 0.350424 0.008995
H19   H     H_    0.367362 0.027990 0.850423 0.008990
H20   H     H_    0.367364 0.972010 0.350423 0.008991
H21   H     H_    0.881659 0.548923 0.055642 0.064215
H22   H     H_    0.881660 0.451076 0.555645 0.064219
H23   H     H_    0.381658 0.048923 0.055643 0.064215
H24   H     H_    0.381659 0.951076 0.555643 0.064217
H25   H     H_    0.774201 0.545742 0.861588 0.122459
H26   H     H_    0.774204 0.454258 0.361574 0.122468
H27   H     H_    0.274202 0.045741 0.861579 0.122465
H28   H     H_    0.274203 0.954259 0.361575 0.122466
H29   H     H_    0.812545 0.599106 0.910453 0.059898
H30   H     H_    0.812547 0.400894 0.410444 0.059910
H31   H     H_    0.312545 0.099106 0.910445 0.059909
H32   H     H_    0.312546 0.900894 0.410442 0.059909
H33   H     H_    0.787589 0.565012 0.068111 0.126855
H34   H     H_    0.787588 0.434987 0.568097 0.126849
H35   H     H_    0.287587 0.065012 0.068101 0.126848
H36   H     H_    0.287587 0.934988 0.568097 0.126848
H37   H     H_    0.019827 0.300440 0.496425 -0.085847
H38   H     H_    0.019810 0.699562 0.996392 -0.085768
H39   H     H_    0.519827 0.800440 0.496423 -0.085847
H40   H     H_    0.519826 0.199559 0.996422 -0.085842
H41   H     H_    0.082594 0.241673 0.623037 0.062320
H42   H     H_    0.082565 0.758349 0.122939 0.062350
H43   H     H_    0.582593 0.741672 0.623028 0.062319
H44   H     H_    0.582591 0.258328 0.123020 0.062320
H45   H     H_    0.041352 0.229895 0.779211 0.156784
H46   H     H_    0.041321 0.770133 0.279104 0.156708
H47   H     H_    0.541352 0.729895 0.779209 0.156783
H48   H     H_    0.541352 0.270105 0.279204 0.156780
H49   H     H_    0.966428 0.225719 0.282789 0.067670
H50   H     H_    0.966138 0.774250 0.782153 0.067577
H51   H     H_    0.466424 0.725717 0.282775 0.067673
H52   H     H_    0.466421 0.274283 0.782767 0.067670
H53   H     H_    0.176891 0.636549 0.205216 0.084793
H54   H     H_    0.176888 0.363448 0.705214 0.084793
H55   H     H_    0.676889 0.136551 0.205213 0.084792
H56   H     H_    0.676888 0.863448 0.705212 0.084792
H57   H     H_    0.261022 0.662963 0.157555 0.062420
H58   H     H_    0.261016 0.337034 0.657550 0.062420
H59   H     H_    0.761017 0.162965 0.157550 0.062418
H60   H     H_    0.761017 0.837033 0.657539 0.062404
H61   H     H_    0.831189 0.219426 0.239993 0.072720
H62   H     H_    0.831189 0.780572 0.739978 0.072615
H63   H     H_    0.331193 0.719425 0.239997 0.072720
H64   H     H_    0.331188 0.280573 0.739993 0.072719
H65   H     H_    0.821914 0.364643 0.986026 0.080229
H66   H     H_    0.821908 0.635353 0.486026 0.080184
H67   H     H_    0.321916 0.864641 0.986024 0.080229
H68   H     H_    0.321913 0.135357 0.486027 0.080227
H69   H     H_    0.168120 0.781124 0.949484 0.060326
H70   H     H_    0.168115 0.218870 0.449497 0.060327
H71   H     H_    0.668116 0.281129 0.949493 0.060328
H72   H     H_    0.668112 0.718870 0.449501 0.060326
H73   H     H_    0.738246 0.337658 0.032354 0.058535
H74   H     H_    0.738241 0.662340 0.532360 0.058517
H75   H     H_    0.238249 0.837655 0.032346 0.058533
H76   H     H_    0.238245 0.162341 0.532358 0.058534
H77   H     H_    0.145701 0.716278 0.761840 0.074278
H78   H     H_    0.145692 0.283715 0.261850 0.074251
H79   H     H_    0.645693 0.216284 0.761848 0.074252
H80   H     H_    0.645691 0.783715 0.261848 0.074252
H81   H     H_    0.854447 0.283654 0.426400 0.073040
H82   H     H_    0.854445 0.716345 0.926391 0.073048
H83   H     H_    0.354448 0.783653 0.426400 0.073040
H84   H     H_    0.354445 0.216346 0.926401 0.073041
H85   H     H_    0.055685 0.590932 0.850264 0.064931
H86   H     H_    0.055680 0.409066 0.350267 0.064923
H87   H     H_    0.555681 0.090934 0.850266 0.064923
H88   H     H_    0.555681 0.909066 0.350265 0.064924
H89   H     H_    0.020186 0.213165 0.574619 0.107095
H90   H     H_    0.020149 0.786838 0.074487 0.107084
H91   H     H_    0.520184 0.713165 0.574616 0.107098
H92   H     H_    0.520182 0.286835 0.074612 0.107100
H93   H     H_    0.944698 0.408827 0.338044 0.062585
H94   H     H_    0.944696 0.591172 0.838036 0.062581
H95   H     H_    0.444697 0.908828 0.338046 0.062586
H96   H     H_    0.444697 0.091173 0.838045 0.062586
H97   H     H_    0.990215 0.308604 0.226228 -0.150614
H98   H     H_    0.990222 0.691402 0.726291 -0.150805
H99   H     H_    0.490217 0.808603 0.226231 -0.150609
H100  H     H_    0.490218 0.191397 0.726234 -0.150625
H101  H     H_    0.997727 0.203220 0.114781 0.112920
H102  H     H_    0.997435 0.796738 0.614123 0.112903
H103  H     H_    0.497725 0.703220 0.114768 0.112923
H104  H     H_    0.497720 0.296779 0.614755 0.112923
H105  H     H_    0.035971 0.230217 0.284245 0.024623
H106  H     H_    0.035700 0.769935 0.783901 0.024696
H107  H     H_    0.535967 0.730214 0.284242 0.024626
H108  H     H_    0.535964 0.269789 0.784232 0.024628
H109  H     H_    0.131919 0.472816 0.339221 0.011471
H110  H     H_    0.131926 0.527180 0.839229 0.011475
H111  H     H_    0.631921 0.972817 0.339222 0.011468
H112  H     H_    0.631921 0.027183 0.839223 0.011468
H113  H     H_    0.119200 0.451444 0.134002 0.063574
H114  H     H_    0.119204 0.548556 0.634014 0.063554
H115  H     H_    0.619200 0.951444 0.134005 0.063571
H116  H     H_    0.619201 0.048556 0.634005 0.063571
O1    O     O_2   0.898940 0.431940 0.867860 -0.460254
O2    O     O_2   0.898940 0.568060 0.367860 -0.460290
O3    O     O_2   0.398940 0.931940 0.867860 -0.460254
O4    O     O_2   0.398940 0.068060 0.367860 -0.460254
O5    O     O_3   0.160667 0.484587 0.668018 -0.634846
O6    O     O_3   0.160666 0.515411 0.168023 -0.634846
O7    O     O_3   0.660667 0.984588 0.668021 -0.634847
O8    O     O_3   0.660667 0.015411 0.168021 -0.634846
O9    O     O_3   0.034145 0.288865 0.035616 -0.614543
O10   O     O_3   0.034157 0.711146 0.535709 -0.614615
O11   O     O_3   0.534146 0.788864 0.035617 -0.614544
O12   O     O_3   0.534146 0.211136 0.535618 -0.614544
O13   O     O_3   0.058810 0.523750 0.066650 -0.495411
O14   O     O_3   0.058810 0.476250 0.566650 -0.495407
O15   O     O_3   0.558810 0.023750 0.066650 -0.495413
O16   O     O_3   0.558810 0.976250 0.566650 -0.495412
O17   O     O_3   0.941140 0.476130 0.123050 -0.494359
O18   O     O_3   0.941140 0.523870 0.623050 -0.494352
O19   O     O_3   0.441140 0.976130 0.123050 -0.494360
O20   O     O_3   0.441140 0.023870 0.623050 -0.494359
O21   O     O_3   0.982430 0.389880 0.635700 -0.497303
O22   O     O_3   0.982430 0.610120 0.135700 -0.497330
O23   O     O_3   0.482430 0.889880 0.635700 -0.497303
O24   O     O_3   0.482430 0.110120 0.135700 -0.497303
O25   O     O_2   0.895960 0.351363 0.724981 -0.474100
O26   O     O_2   0.895949 0.648631 0.224946 -0.473972
O27   O     O_2   0.395959 0.851363 0.724980 -0.474100
O28   O     O_2   0.395959 0.148637 0.224982 -0.474095
O29   O     O_3   0.839322 0.485396 0.022548 -0.635829
O30   O     O_3   0.839323 0.514603 0.522545 -0.635824
O31   O     O_3   0.339322 0.985396 0.022548 -0.635829
O32   O     O_3   0.339322 0.014604 0.522547 -0.635829
O33   O     O_3   0.965251 0.288360 0.656976 -0.566107
O34   O     O_3   0.965238 0.711639 0.156964 -0.566031
O35   O     O_3   0.465251 0.788360 0.656977 -0.566106
O36   O     O_3   0.465250 0.211640 0.156975 -0.566103
O37   O     O_2   0.100770 0.431440 0.821660 -0.458117
O38   O     O_2   0.100770 0.568560 0.321660 -0.458116
O39   O     O_2   0.600770 0.931440 0.821660 -0.458114
O40   O     O_2   0.600770 0.068560 0.321660 -0.458113
O41   O     O_3   0.017130 0.389790 0.053700 -0.484655
O42   O     O_3   0.017130 0.610210 0.553700 -0.484813
O43   O     O_3   0.517130 0.889790 0.053700 -0.484657
O44   O     O_3   0.517130 0.110210 0.553700 -0.484658
O45   O     O_2   0.103255 0.350778 0.960229 -0.488415
O46   O     O_2   0.103251 0.649230 0.460212 -0.488401
O47   O     O_2   0.603255 0.850778 0.960228 -0.488415
O48   O     O_2   0.603255 0.149222 0.460228 -0.488414
P1    P     P_3+3 0.893960 0.447890 0.040050 0.981887
P2    P     P_3+3 0.893960 0.552110 0.540050 0.981823
P3    P     P_3+3 0.393960 0.947890 0.040050 0.981886
P4    P     P_3+3 0.393960 0.052110 0.540050 0.981885
P5    P     P_3+3 0.105800 0.447360 0.649510 0.982445
P6    P     P_3+3 0.105800 0.552640 0.149510 0.982447
P7    P     P_3+3 0.605800 0.947360 0.649510 0.982442
P8    P     P_3+3 0.605800 0.052640 0.149510 0.982443
P9    P     P_3+3 0.064205 0.344332 0.085581 0.935110
P10   P     P_3+3 0.064208 0.655667 0.585586 0.935114
P11   P     P_3+3 0.564206 0.844332 0.085580 0.935112
P12   P     P_3+3 0.564206 0.155667 0.585580 0.935113
P13   P     P_3+3 0.935947 0.656042 0.103027 0.964477
P14   P     P_3+3 0.935952 0.343954 0.603041 0.964402
P15   P     P_3+3 0.435951 0.156046 0.103041 0.964408
P16   P     P_3+3 0.435952 0.843954 0.603041 0.964403
O49   O     O_3   0.945863 0.282499 0.027818 -0.706290
H117  H     H_    0.941113 0.316494 0.991266 0.321497
O50   O     O_3   0.945847 0.717277 0.527562 -0.706216
H118  H     H_    0.941220 0.683253 0.491224 0.321532
O51   O     O_3   0.445863 0.782502 0.027814 -0.706297
H119  H     H_    0.441115 0.816496 0.991260 0.321506
O52   O     O_3   0.445863 0.217494 0.527812 -0.706292
H120  H     H_    0.441116 0.183499 0.491269 0.321502

loop_
_geom_bond_atom_site_label_1
_geom_bond_atom_site_label_2
_ccdc_geom_bond_type
C54   C58   A    
O9    P9    S    
C46   O10   S    
O48   P12   D    
Ba3   P7    S    
C83   C87   S    
C79   H107  S    
C54   H78   S    
C60   C76   A    
C100  H40   S    
C98   O34   S    
C45   O49   S    
O50   H118  S    
O12   P12   S    
C58   P9    S    
C93   H25   S    
C68   C72   A    
O14   P5    S    
O45   P9    D    
C40   H72   S    
C81   H113  S    
C19   H83   S    
O30   P2    S    
O42   P10   S    
C99   H39   S    
C64   P7    S    
C59   C75   A    
C87   H11   S    
C11   C15   A    
C87   H15   S    
C26   C50   A    
C97   H37   S    
C90   H22   S    
C53   C57   A    
C67   H55   S    
O6    P6    S    
O34   P13   S    
C80   H52   S    
C86   H10   S    
C5    P1    S    
C12   C16   A    
C4    H44   S    
C65   H53   S    
O44   P12   S    
C34   C38   A    
C90   O30   S    
C100  O36   S    
C31   C35   A    
C78   H50   S    
C5    C9    A    
C89   O29   S    
C7    P3    S    
Ba2   P2    S    
C4    C100  S    
C90   C94   S    
C91   C95   S    
O17   P1    S    
C83   O8    S    
Ba2   O42   S    
C95   H35   S    
C32   H60   S    
C75   H87   S    
C92   H20   S    
C62   P5    S    
C47   O11   S    
Ba1   Ba2   S    
C74   H86   S    
C53   C69   A    
C21   P14   S    
C48   C80   S    
C10   C14   A    
O36   P15   S    
C26   H62   S    
O3    P3    D    
C96   H32   S    
C79   H51   S    
C28   C30   A    
C23   P16   S    
C78   H106  S    
C1    H41   S    
C101  H93   S    
O26   P13   D    
C24   P15   S    
Ba4   O24   S    
C99   O35   S    
C8    C12   A    
C57   C73   A    
O10   P10   S    
C97   O33   S    
C66   C70   A    
C31   H59   S    
C84   H116  S    
C65   C69   A    
C24   C104  A    
C35   C71   S    
C18   H82   S    
C14   C18   A    
Ba4   O19   S    
C53   H77   S    
C44   C52   A    
C16   C52   S    
Ba3   O16   S    
C92   H24   S    
O7    P7    S    
C3    H47   S    
Ba4   O4    S    
C28   H64   S    
C47   H99   S    
C41   C49   A    
C56   H80   S    
C96   H36   S    
C3    C99   S    
C94   H34   S    
C2    C98   S    
O47   P11   D    
C86   H14   S    
C95   H31   S    
C91   O31   S    
C7    C11   A    
C6    P2    S    
Ba2   O2    S    
C89   H21   S    
C66   H54   S    
C93   H29   S    
C37   C43   A    
C40   C42   A    
C59   P12   S    
O39   P7    D    
C1    C97   S    
C19   C23   A    
C90   H18   S    
Ba4   O16   S    
C76   H88   S    
C81   H109  S    
C77   H49   S    
C5    C101  A    
O41   P9    S    
Ba4   P4    S    
C46   C78   S    
C84   C88   S    
C32   C36   A    
Ba3   O43   S    
C92   O32   S    
C22   P13   S    
C43   H75   S    
C17   C21   A    
C82   C86   S    
Ba3   O3    S    
O52   H120  S    
C44   H76   S    
C81   C85   S    
C15   C19   A    
Ba2   O14   S    
C26   C32   A    
C35   C39   A    
O46   P10   D    
C46   O50   S    
Ba1   O13   S    
C56   C72   A    
C82   H110  S    
C84   H112  S    
O31   P3    S    
C100  H4    S    
C2    H90   S    
C83   H115  S    
C37   H69   S    
C47   C79   S    
C9    H65   S    
C13   C17   A    
C48   H100  S    
C103  H95   S    
O51   H119  S    
C22   C102  A    
C102  H94   S    
C61   C73   A    
C88   H8    S    
C89   C93   S    
C17   H81   S    
C85   H5    S    
C23   C103  A    
C64   C68   A    
C73   H85   S    
C8    P4    S    
C42   C50   A    
C27   C29   A    
O49   H117  S    
C68   H56   S    
O16   P7    S    
C95   H27   S    
C20   H84   S    
C38   C44   A    
C39   H71   S    
C55   H79   S    
C93   H33   S    
O1    P1    D    
O18   P2    S    
C2    H46   S    
C3    H43   S    
C46   H98   S    
C62   C74   A    
C48   O12   S    
C89   H17   S    
C45   H97   S    
C27   H63   S    
C83   H111  S    
O25   P14   D    
Ba1   P5    S    
C7    C103  A    
Ba4   P8    S    
Ba1   O37   S    
Ba4   O40   S    
C4    H92   S    
O27   P16   D    
O19   P3    S    
Ba3   Ba4   S    
O8    P8    S    
O28   P15   D    
C13   C49   S    
O2    P2    D    
Ba3   O39   S    
C54   C70   A    
C43   C51   A    
C34   C70   S    
Ba1   O1    S    
C61   C65   A    
C33   C69   S    
C45   O9    S    
C3    H91   S    
C85   H13   S    
O21   P14   S    
C30   C34   A    
C82   O5    S    
Ba1   P1    S    
C58   C74   A    
C29   H57   S    
C81   O6    S    
C20   C24   A    
C85   H9    S    
O23   P16   S    
C104  H96   S    
C41   H73   S    
O24   P15   S    
C1    H89   S    
C80   H104  S    
Ba2   O13   S    
Ba3   P3    S    
C80   H108  S    
C99   H3    S    
C15   C51   S    
Ba1   O14   S    
Ba4   O44   S    
O43   P11   S    
C82   H114  S    
C25   C31   A    
C94   H26   S    
O4    P4    D    
C55   C59   A    
O15   P8    S    
C11   H67   S    
C56   C60   A    
C25   H61   S    
C57   P10   S    
C42   H74   S    
C88   H16   S    
O13   P6    S    
Ba2   O22   S    
C39   C41   A    
O29   P1    S    
C94   H30   S    
C98   H38   S    
C64   C76   A    
C67   C71   A    
Ba3   O23   S    
C60   P11   S    
C8    C104  A    
Ba2   O38   S    
C91   H23   S    
C25   C49   A    
C38   H70   S    
C1    H45   S    
C92   C96   S    
O5    P5    S    
O33   P14   S    
O40   P8    D    
Ba4   O15   S    
C87   H7    S    
C29   C33   A    
C88   H12   S    
C63   C67   A    
Ba3   O20   S    
C86   H6    S    
C48   O52   S    
C33   C37   A    
O35   P16   S    
C4    H48   S    
Ba2   O17   S    
O11   P11   S    
C21   C101  A    
C47   O51   S    
C55   C71   A    
C98   H2    S    
Ba1   O18   S    
C14   C50   S    
C77   H105  S    
C9    C13   A    
C2    H42   S    
C91   H19   S    
C36   C40   A    
C84   O7    S    
O37   P5    D    
C62   C66   A    
C10   H66   S    
C77   H101  S    
C18   C22   A    
C36   C72   S    
Ba3   O15   S    
C61   P6    S    
O20   P4    S    
C6    C102  A    
C28   C52   A    
O32   P4    S    
O22   P13   S    
Ba1   O21   S    
C12   H68   S    
Ba2   P6    S    
Ba1   O41   S    
C27   C51   A    
C63   P8    S    
C30   H58   S    
C97   H1    S    
C45   C77   S    
C16   C20   A    
C63   C75   A    
C79   H103  S    
C96   H28   S    
C6    C10   A    
C78   H102  S    
O38   P6    D    
