data_mof_unit_28705.cif
_audit_creation_date              2012-12-10T17:02:16-0500
_audit_creation_method            fapswitch 2.2
_symmetry_space_group_name_H-M    P1
_symmetry_Int_Tables_number       1
_space_group_crystal_system       triclinic
_cell_length_a                    10.659215
_cell_length_b                    10.754467
_cell_length_c                    10.0829
_cell_angle_alpha                 90.971352
_cell_angle_beta                  92.40492
_cell_angle_gamma                 90.299464
_cell_volume                      1154.64054889

loop_
_atom_site_label
_atom_site_type_symbol
_atom_type_description
_atom_site_fract_x
_atom_site_fract_y
_atom_site_fract_z
_atom_type_partial_charge
C1    C     C_R   0.509247 0.263586 0.499690 1.030108
C2    C     C_R   0.067847 0.408588 0.585021 0.017196
C3    C     C_R   0.128050 0.478785 0.489570 -0.063218
C4    C     C_R   0.061395 0.554170 0.400998 -0.250461
C5    C     C_R   0.934083 0.563631 0.409710 -0.198756
C6    C     C_R   0.875282 0.508822 0.515309 -0.096471
C7    C     C_2   0.566089 0.932133 0.418958 -0.031728
C8    C     C_2   0.487318 0.868375 0.496565 -0.098752
C9    C     C_2   0.540746 0.062248 0.396303 0.457831
C10   C     C_2   0.546153 0.136430 0.502848 -0.414038
C11   C     C_2   0.435373 0.574413 0.923991 -0.142460
C12   C     C_R   0.260643 0.492788 0.496864 0.952887
C13   C     C_2   0.461383 0.590233 0.071300 -0.100858
C14   C     C_R   0.499708 0.736816 0.500456 0.892462
C15   C     C_R   0.740637 0.503226 0.504251 0.852896
C16   C     C_R   0.125974 0.307604 0.652151 0.469911
C17   C     C_R   0.066148 0.253786 0.758731 -0.373443
C18   C     C_R   0.957959 0.306845 0.805969 -0.192963
C19   C     C_R   0.901510 0.406509 0.740367 0.463864
C20   C     C_R   0.945787 0.443101 0.614939 -0.118842
H1    H     H_    0.107946 0.606614 0.326205 0.161173
H2    H     H_    0.578088 0.100458 0.598759 0.109890
H3    H     H_    0.362305 0.629799 0.876256 0.155379
H4    H     H_    0.588383 0.479624 0.893274 0.221047
H5    H     H_    0.440756 0.679722 0.116262 0.136100
H6    H     H_    0.106909 0.174951 0.809604 0.156503
H7    H     H_    0.921544 0.274686 0.898103 0.175350
H8    H     H_    0.881472 0.615748 0.335229 0.168699
N1    N     N_2   0.501340 0.501330 0.852150 -0.190288
N2    N     N_2   0.501380 0.501360 0.147810 -0.106769
O1    O     O_R   0.499980 0.319060 0.613040 -0.603917
O2    O     O_R   0.500020 0.319100 0.386900 -0.591533
O3    O     O_R   0.316750 0.499980 0.613090 -0.591700
O4    O     O_R   0.316790 0.500020 0.386950 -0.647852
O5    O     O_R   0.499980 0.680900 0.613100 -0.625077
O6    O     O_R   0.500020 0.680940 0.386960 -0.634031
O7    O     O_R   0.683210 0.499980 0.613050 -0.593270
O8    O     O_R   0.683250 0.500020 0.386910 -0.617540
Zn1   Zn    Zn3+2 0.499970 0.499970 0.650990 0.966517
Zn2   Zn    Zn3+2 0.500030 0.500030 0.349010 0.932010
C21   C     C_3   0.477904 0.371799 0.104424 -0.146909
C22   C     C_3   0.338205 0.336008 0.112548 -0.252425
C23   C     C_3   0.304360 0.221974 0.026023 -0.934601
H9    H     H_    0.316826 0.243011 0.919914 0.265459
H10   H     H_    0.364482 0.142016 0.053816 0.280552
H11   H     H_    0.204804 0.195891 0.039241 0.251553
H12   H     H_    0.316357 0.315958 0.216612 0.258939
H13   H     H_    0.277276 0.413828 0.078856 0.208728
H14   H     H_    0.512239 0.345691 0.007246 0.139742
H15   H     H_    0.536958 0.310458 0.166492 0.232971
O9    O     O_3   0.236040 0.258354 0.607253 -0.786413
H16   H     H_    0.267271 0.194405 0.669919 0.323794
O10   O     O_3   0.822294 0.478488 0.813440 -0.773670
H17   H     H_    0.831413 0.565807 0.784786 0.336828
C24   C     C_3   0.678414 0.872208 0.353004 -0.414784
C25   C     C_3   0.778953 0.965393 0.311568 -0.343948
C26   C     C_3   0.889297 0.898515 0.250820 -0.915322
H18   H     H_    0.936670 0.837848 0.325221 0.264977
H19   H     H_    0.856447 0.841120 0.163394 0.267360
H20   H     H_    0.958372 0.967981 0.217965 0.255397
H21   H     H_    0.738399 0.029805 0.236459 0.243168
H22   H     H_    0.813970 0.020851 0.399696 0.226165
H23   H     H_    0.724827 0.806665 0.423502 0.196465
H24   H     H_    0.643715 0.818754 0.263424 0.221831
C27   C     C_3   0.370093 0.920135 0.560195 -0.455961
C28   C     C_3   0.267389 0.955802 0.456217 -0.302779
C29   C     C_3   0.138243 0.960263 0.516330 -0.878081
H25   H     H_    0.104870 0.864504 0.535838 0.253006
H26   H     H_    0.141807 0.014551 0.610896 0.268385
H27   H     H_    0.070252 0.005193 0.446283 0.264479
H28   H     H_    0.288434 0.048713 0.416004 0.262214
H29   H     H_    0.263645 0.887027 0.372472 0.216388
H30   H     H_    0.330497 0.848016 0.624732 0.213892
H31   H     H_    0.392721 0.999490 0.628517 0.195851
O11   O     O_3   0.502404 0.103303 0.272254 -0.798565
H32   H     H_    0.499682 0.030671 0.210214 0.319460

loop_
_geom_bond_atom_site_label_1
_geom_bond_atom_site_label_2
_ccdc_geom_bond_type
O5    Zn1   S    
C24   C25   S    
C15   O8    A    
C5    H8    S    
C2    C16   A    
C9    C10   D    
C21   H15   S    
C19   O10   S    
C28   H28   S    
C16   O9    S    
C7    C24   S    
C23   H9    S    
C29   H27   S    
C24   H24   S    
N1    Zn1   S    
C19   C20   A    
C28   C29   S    
C6    C15   S    
N2    Zn2   S    
C8    C27   S    
O7    Zn1   S    
C22   H13   S    
O10   H17   S    
C10   H2    S    
O8    Zn2   S    
C4    H1    S    
C11   C13   S    
C13   H5    S    
C26   H18   S    
O3    Zn1   S    
C29   H25   S    
O4    Zn2   S    
C17   H6    S    
C11   H3    S    
O11   H32   S    
O1    Zn1   S    
C17   C18   A    
C2    C3    A    
C22   H12   S    
O2    Zn2   S    
C1    O1    A    
C14   O6    A    
C5    C6    A    
C23   H11   S    
C25   H22   S    
C26   H19   S    
N2    C21   S    
C22   C23   S    
C18   H7    S    
C2    C20   A    
C3    C4    A    
C13   N2    D    
C7    C8    D    
C6    C20   A    
C25   C26   S    
C11   N1    D    
C27   C28   S    
C21   C22   S    
C27   H30   S    
C21   H14   S    
C14   O5    A    
C7    C9    S    
C18   C19   A    
H4    N1    S    
C15   O7    A    
O6    Zn2   S    
C8    C14   S    
C3    C12   S    
C9    O11   S    
C29   H26   S    
C12   O3    A    
C25   H21   S    
C4    C5    A    
C12   O4    A    
C23   H10   S    
C1    O2    A    
C28   H29   S    
C27   H31   S    
O9    H16   S    
C1    C10   S    
C16   C17   A    
C26   H20   S    
C24   H23   S    
