data_mof_unit_18130.cif
_audit_creation_date              2013-03-05T15:57:25-0500
_audit_creation_method            fapswitch 2.2
_symmetry_space_group_name_H-M    P1
_symmetry_Int_Tables_number       1
_space_group_crystal_system       triclinic
_cell_length_a                    13.165588
_cell_length_b                    13.061348
_cell_length_c                    15.299186
_cell_angle_alpha                 116.381812
_cell_angle_beta                  62.819233
_cell_angle_gamma                 97.391007
_cell_volume                      2087.44705682

loop_
_atom_site_label
_atom_site_type_symbol
_atom_site_description
_atom_site_fract_x
_atom_site_fract_y
_atom_site_fract_z
_atom_type_partial_charge
C1    C     C_R   0.002049 0.832713 0.053926 -0.032406
H1    H     H_    0.033795 0.894823 0.108759 0.121186
N1    N     N_R   0.037320 0.720000 0.995830 -0.065377
C2    C     C_R   0.679296 0.473929 0.222423 -0.131042
H2    H     H_    0.610170 0.443864 0.200526 0.086999
N2    N     N_R   0.790770 0.446140 0.151990 -0.038411
C3    C     C_R   0.755261 0.519040 0.894339 -0.166190
H3    H     H_    0.774816 0.546865 0.832592 0.141164
N3    N     N_R   0.824900 0.517970 0.936430 -0.045967
C4    C     C_R   0.020261 0.697321 0.299850 -0.033480
N4    N     N_R   0.003190 0.648180 0.211390 -0.071909
C5    C     C_R   0.678778 0.420165 0.991467 -0.140660
H4    H     H_    0.633891 0.356106 0.018020 0.093046
N5    N     N_R   0.774330 0.457010 0.995830 -0.045160
C6    C     C_R   0.097602 0.798254 0.205328 -0.082973
H5    H     H_    0.148028 0.857935 0.175031 0.119839
N6    N     N_R   0.053760 0.709130 0.151980 -0.039418
C7    C     C_R   0.781029 0.562865 0.315152 -0.104327
H6    H     H_    0.805001 0.621185 0.377067 0.106921
N7    N     N_R   0.853840 0.498830 0.211390 -0.046588
C8    C     C_R   0.908662 0.751088 0.952529 0.002798
N8    N     N_R   0.974250 0.667320 0.936430 -0.048418
C9    C     C_R   0.917228 0.854082 0.032215 0.074920
C10   C     C_R   0.670950 0.548204 0.325822 0.052939
C11   C     C_R   0.663050 0.460005 0.930032 0.160176
C12   C     C_R   0.079728 0.790683 0.297019 0.010150
C13   C     C_R   0.336372 0.544013 0.977546 0.196408
N9    N     N_R   0.225670 0.542990 0.004170 -0.063104
C14   C     C_R   0.961322 0.179883 0.781644 -0.147959
H7    H     H_    0.923330 0.112034 0.804546 0.104110
N10   N     N_R   0.946240 0.290870 0.848020 -0.043546
C15   C     C_R   0.195067 0.514229 0.696640 -0.094543
H8    H     H_    0.153529 0.497337 0.646959 0.118677
N11   N     N_R   0.146160 0.501170 0.788610 -0.052958
C16   C     C_R   0.064441 0.251570 0.075112 -0.089712
H9    H     H_    0.109937 0.266695 0.122325 0.123966
N12   N     N_R   0.025750 0.332680 0.063570 -0.043464
C17   C     C_R   0.962579 0.168908 0.983771 -0.115490
H10   H     H_    0.912113 0.108683 0.949051 0.085731
N13   N     N_R   0.962680 0.280000 0.004170 -0.042224
C18   C     C_R   0.292980 0.600887 0.790207 -0.104902
H11   H     H_    0.340114 0.665022 0.825131 0.136521
N14   N     N_R   0.209230 0.553860 0.848010 -0.044375
C19   C     C_R   0.255966 0.435126 0.067218 -0.212935
H12   H     H_    0.242648 0.387660 0.113446 0.118124
N15   N     N_R   0.175100 0.482030 0.063570 -0.055765
C20   C     C_R   0.037893 0.279568 0.683244 -0.036214
N16   N     N_R   0.996810 0.351820 0.788610 -0.076785
Ni1   Ni    Ni4+2 0.130310 0.630310 0.000000 0.234506
Ni2   Ni    Ni4+2 0.869690 0.369690 0.000000 0.213194
Ni3   Ni    Ni4+2 0.985660 0.509480 0.863750 0.239159
Ni4   Ni    Ni4+2 0.014340 0.490520 0.136250 0.218927
C21   C     C_R   0.357977 0.467763 0.008239 0.108996
C22   C     C_R   0.022651 0.171097 0.678237 0.024109
C23   C     C_R   0.286458 0.578609 0.694721 0.036472
C24   C     C_R   0.027513 0.146794 0.025212 0.062005
H13   H     H_    0.594441 0.712141 0.142737 0.119435
C25   C     C_R   0.417825 0.692717 0.235443 -0.098324
H14   H     H_    0.434137 0.603209 0.212676 0.102097
C26   C     C_R   0.306394 0.746772 0.304609 -0.126328
H15   H     H_    0.237905 0.698070 0.335403 0.147519
C27   C     C_R   0.284527 0.863507 0.335607 0.107776
C28   C     C_R   0.376141 0.925050 0.296514 -0.137455
H16   H     H_    0.361271 0.015176 0.319783 0.133481
C29   C     C_R   0.487431 0.870386 0.226834 -0.071573
H17   H     H_    0.557588 0.918099 0.196660 0.118516
C30   C     C_R   0.508273 0.754301 0.196405 -0.024743
C31   C     C_R   0.148431 0.017355 0.510055 -0.159155
H18   H     H_    0.219489 0.049765 0.529136 0.131171
C32   C     C_R   0.037176 0.070148 0.583840 0.114316
C33   C     C_R   0.942879 0.032424 0.562708 -0.004212
C34   C     C_R   0.961914 0.941070 0.465301 -0.148663
H19   H     H_    0.890150 0.910903 0.446532 0.150277
C35   C     C_R   0.072170 0.886666 0.392078 0.130332
C36   C     C_R   0.167341 0.922739 0.412492 0.018038
C37   C     C_R   0.752526 0.049650 0.718113 -0.162642
H20   H     H_    0.785435 0.986540 0.728949 0.110494
C38   C     C_R   0.637021 0.092081 0.782427 -0.126691
H21   H     H_    0.581597 0.063168 0.843643 0.115932
C39   C     C_R   0.592540 0.170022 0.766171 -0.063048
H22   H     H_    0.502680 0.201464 0.814902 0.117604
C40   C     C_R   0.663916 0.207173 0.686840 -0.100236
H23   H     H_    0.629089 0.267186 0.674183 0.130688
C41   C     C_R   0.779786 0.165903 0.623145 -0.145270
H24   H     H_    0.833960 0.193556 0.560535 0.146532
C42   C     C_R   0.824492 0.086676 0.638407 0.126287
H25   H     H_    0.829202 0.542597 0.666923 0.158818
C43   C     C_R   0.726579 0.473476 0.583029 -0.078304
H26   H     H_    0.735331 0.389372 0.577756 0.154450
C44   C     C_R   0.662045 0.493994 0.539626 0.009941
C45   C     C_R   0.651685 0.606414 0.549922 -0.017292
C46   C     C_R   0.707007 0.693826 0.601761 -0.157309
H27   H     H_    0.696933 0.780527 0.613022 0.129479
C47   C     C_R   0.771144 0.671070 0.643709 0.001281
H28   H     H_    0.813067 0.738952 0.684073 0.147741
C48   C     C_R   0.779533 0.561358 0.635248 -0.160052
C49   C     C_R   0.456343 0.673330 0.623804 -0.207695
H29   H     H_    0.457495 0.710400 0.701930 0.141537
C50   C     C_R   0.361031 0.620896 0.611770 0.035252
C51   C     C_R   0.361433 0.585879 0.508852 0.050016
C52   C     C_R   0.461626 0.591362 0.422777 -0.219946
H30   H     H_    0.461431 0.567142 0.345417 0.122392
C53   C     C_R   0.565304 0.599595 0.428454 0.046849
C54   C     C_R   0.561951 0.639356 0.532204 0.018325
C55   C     C_R   0.301137 0.411673 0.393351 -0.205237
H31   H     H_    0.385486 0.368420 0.356079 0.127656
C56   C     C_R   0.221530 0.354378 0.356305 -0.060861
H32   H     H_    0.244084 0.267421 0.292133 0.142361
C57   C     C_R   0.111607 0.407624 0.405263 0.217986
C58   C     C_R   0.083380 0.519859 0.488202 -0.128269
H33   H     H_    0.998752 0.560662 0.526514 0.193501
C59   C     C_R   0.164286 0.579799 0.522291 -0.142084
H34   H     H_    0.141715 0.667463 0.585253 0.169028
C60   C     C_R   0.272617 0.524485 0.477489 0.062489
C61   C     C_2   0.465873 0.437867 0.993888 -0.207936
H35   H     H_    0.464343 0.417044 0.055647 0.122882
C62   C     C_2   0.561962 0.448694 0.915674 -0.171034
H36   H     H_    0.562337 0.466630 0.852734 0.157204
C63   C     C_2   0.851369 0.964873 0.080013 -0.267930
H37   H     H_    0.830528 0.982996 0.027256 0.117445
C64   C     C_2   0.811381 0.043774 0.184876 -0.028411
C65   C     C_2   0.054536 0.310765 0.596933 0.473312
H38   H     H_    0.017696 0.393076 0.618430 0.024537
O1    O     O_2   0.105122 0.242607 0.501078 -0.578790
C66   C     C_2   0.601725 0.399018 0.489484 0.490270
H39   H     H_    0.546239 0.412883 0.460272 0.023463
O2    O     O_2   0.613221 0.302825 0.480168 -0.609306
I1    I     I_    0.986738 0.314926 0.359763 -0.550171
C67   C     C_2   0.001559 0.645595 0.373231 0.404949
H40   H     H_    0.980781 0.557436 0.352377 0.059103
O3    O     O_2   0.007885 0.702113 0.458695 -0.614314
C68   C     C_2   0.814595 0.033521 0.276083 0.554083
H41   H     H_    0.801330 0.110845 0.349792 0.074602
O4    O     O_2   0.825173 0.940372 0.273037 -0.603826
C69   C     C_2   0.865099 0.742324 0.877184 0.412626
H42   H     H_    0.790523 0.796922 0.905562 0.024748
O5    O     O_2   0.917668 0.678280 0.780281 -0.642021
I2    I     I_    0.430891 0.685782 0.964165 -0.544432

loop_
_geom_bond_atom_site_label_1
_geom_bond_atom_site_label_2
_geom_bond_distance
_ccdc_geom_bond_type
C43   C48   1.389201 A    
C52   H30   1.081989 S    
C39   H22   1.082231 S    
C56   C57   1.394554 A    
C18   H11   1.069435 S    
C43   C44   1.402421 A    
C16   H9    1.075908 S    
N3    Ni3   1.878564 S    
C45   C54   1.476912 S    
C28   C29   1.399550 A    
C49   H29   1.078743 S    
N1    Ni1   1.839027 S    
C69   H42   1.084716 S    
C31   C36   1.384750 A    
C5    H4    1.081588 S    
C55   C56   1.394172 A    
N9    N15   1.362714 A    
N11   Ni3   1.878100 S    
C27   C28   1.406211 A    
C7    C10   1.379810 A    
C16   N12   1.341749 A    
C37   C38   1.397499 A    
C7    H6    1.071057 S    
N12   N13   1.405523 A    
C9    C63   1.477744 S    
C17   H10   1.076575 S    
C2    C10   1.400159 A    
C38   C39   1.397349 A    
C14   C22   1.365086 A    
C25   C26   1.398119 A    
C6    H5    1.081702 S    
N15   Ni4   1.878563 S    
C26   C27   1.406454 A    
C1    H1    1.079272 S    
C58   H33   1.071226 S    
C18   C23   1.398778 A    
N4    Ni4   1.844831 S    
C19   C21   1.373692 A    
C44   C66   1.488436 S    
N16   Ni3   1.844831 S    
C20   N16   1.328354 A    
C68   H41   1.084195 S    
C29   C30   1.397848 A    
C56   H32   1.082354 S    
C32   C33   1.398687 A    
C15   C23   1.372968 A    
C4    C12   1.368273 A    
C52   C53   1.394459 A    
C8    N8    1.346360 A    
C18   N14   1.338932 A    
H13   C30   1.082729 S    
C59   C60   1.399227 A    
C59   H34   1.083076 S    
C49   C50   1.398379 A    
C19   N15   1.328305 A    
C63   C64   1.345982 D    
C13   I2    2.128502 S    
C35   C36   1.401554 A    
C55   C60   1.408634 A    
C3    H3    1.072204 S    
C51   C60   1.473078 S    
C37   H20   1.083344 S    
C34   C35   1.392589 A    
N6    Ni1   1.865664 S    
C45   C46   1.404325 A    
N12   Ni4   1.843642 S    
C38   H21   1.082255 S    
C31   H18   1.085086 S    
C20   C65   1.465809 S    
C61   C62   1.331776 D    
C25   H14   1.081019 S    
C40   H23   1.081953 S    
N2    Ni2   1.865448 S    
C26   H15   1.081814 S    
C1    N1    1.344954 A    
C15   N11   1.334481 A    
N3    N5    1.362715 A    
C14   H7    1.077082 S    
C33   C42   1.475941 S    
N9    Ni1   1.840459 S    
C57   I1    2.106556 S    
C50   C51   1.428795 A    
C22   C32   1.407501 S    
C14   N10   1.324273 A    
H25   C48   1.076462 S    
C46   C47   1.393706 A    
C41   H24   1.083387 S    
C47   C48   1.394701 A    
C20   C22   1.377621 A    
C2    N2    1.338455 A    
C5    N5    1.308054 A    
C1    C9    1.391665 A    
C40   C41   1.397829 A    
N10   N16   1.362716 A    
C8    C9    1.392039 A    
C66   H39   1.081845 S    
C27   C36   1.484197 S    
C64   C68   1.479306 S    
C65   O1    1.219310 D    
C37   C42   1.403312 A    
C13   N9    1.322023 A    
C19   H12   1.078759 S    
C67   H40   1.083855 S    
C69   O5    1.219044 D    
N4    N6    1.362715 A    
C16   C24   1.389767 A    
N14   Ni1   1.865449 S    
N11   N14   1.405541 A    
C41   C42   1.403131 A    
C34   H19   1.087161 S    
C6    C12   1.359668 A    
C11   C62   1.424435 S    
C21   C61   1.414256 S    
C63   H37   1.082406 S    
C13   C21   1.379785 A    
C6    N6    1.329503 A    
N2    N7    1.405540 A    
C55   H31   1.083568 S    
C3    C11   1.376331 A    
C5    C11   1.355459 A    
C10   C53   1.469327 S    
C15   H8    1.060725 S    
C4    C67   1.468398 S    
C33   C34   1.364865 A    
N7    Ni4   1.878101 S    
C62   H36   1.085353 S    
C17   N13   1.341738 A    
C44   C45   1.423326 A    
N5    Ni2   1.840459 S    
N13   Ni2   1.839027 S    
C46   H27   1.083537 S    
C12   C35   1.405777 S    
C39   C40   1.398464 A    
C7    N7    1.332128 A    
C47   H28   1.082120 S    
C58   C59   1.396293 A    
C49   C54   1.385627 A    
C4    N4    1.327730 A    
C28   H16   1.083502 S    
C3    N3    1.343935 A    
C25   C30   1.397315 A    
C2    H2    1.079056 S    
C17   C24   1.392022 A    
C43   H26   1.082513 S    
C68   O4    1.220281 D    
C29   H17   1.082884 S    
C23   C50   1.491520 S    
C53   C54   1.414382 A    
C66   O2    1.221410 D    
C31   C32   1.397394 A    
N1    N8    1.405524 A    
C51   C52   1.397076 A    
N10   Ni2   1.865666 S    
C65   H38   1.083242 S    
C57   C58   1.397649 A    
C8    C69   1.463089 S    
C61   H35   1.084760 S    
N8    Ni3   1.843642 S    
C67   O3    1.219590 D    
