data_mof_unit_64813.cif
_audit_creation_date              2012-12-10T19:31:50-0500
_audit_creation_method            fapswitch 2.2
_symmetry_space_group_name_H-M    P1
_symmetry_Int_Tables_number       1
_space_group_crystal_system       triclinic
_cell_length_a                    18.7052
_cell_length_b                    18.636374
_cell_length_c                    18.717686
_cell_angle_alpha                 109.203191
_cell_angle_beta                  109.560017
_cell_angle_gamma                 109.26928
_cell_volume                      5046.34304582

loop_
_atom_site_label
_atom_site_type_symbol
_atom_type_description
_atom_site_fract_x
_atom_site_fract_y
_atom_site_fract_z
_atom_type_partial_charge
C1    C     C_R   0.380965 0.379958 0.501205 0.970584
C2    C     C_R   0.175153 0.185513 0.423641 -0.027582
C3    C     C_3   0.158497 0.112537 0.344405 -0.484005
C4    C     C_R   0.619179 0.498343 0.620669 0.876734
C5    C     C_3   0.231258 0.180447 0.344807 0.571627
C6    C     C_R   0.236644 0.426197 0.250854 0.010334
C7    C     C_R   0.314805 0.501561 0.314407 -0.092261
C8    C     C_R   0.328378 0.580279 0.314087 -0.143153
C9    C     C_R   0.263525 0.580218 0.248903 -0.173861
C10   C     C_R   0.184246 0.501851 0.185759 -0.036441
C11   C     C_R   0.173305 0.426529 0.190086 -0.059305
C12   C     C_3   0.808939 0.501209 0.809722 -0.089498
C13   C     C_3   0.111888 0.331163 0.147801 -0.496367
C14   C     C_3   0.184171 0.331220 0.218254 1.111832
C15   C     C_R   0.768240 0.696575 0.530144 -0.168834
C16   C     C_R   0.619405 0.620094 0.499491 0.947054
C17   C     C_R   0.685155 0.687111 0.500864 -0.140141
C18   C     C_R   0.670009 0.750825 0.485329 0.631952
C19   C     C_R   0.734875 0.815910 0.486537 -0.232811
C20   C     C_R   0.815056 0.818151 0.505689 -0.204318
C21   C     C_R   0.832972 0.762183 0.533503 0.041438
C22   C     C_3   0.869235 0.705353 0.503763 0.426266
C23   C     C_3   0.848292 0.580593 0.796750 -0.504816
C24   C     C_3   0.797514 0.632692 0.499770 0.410428
C25   C     C_R   0.997693 0.380007 0.877628 0.916193
C26   C     C_R   0.876760 0.501437 0.877723 0.892024
C27   C     C_R   0.997620 0.620355 0.117637 0.926129
C28   C     C_R   0.379353 0.499943 0.379576 0.892333
C29   C     C_R   0.117944 0.500219 0.118361 0.866324
C30   C     C_R   0.999488 0.120023 0.619139 0.938915
C31   C     C_R   0.119783 0.120282 0.500009 0.989512
C32   C     C_R   0.000329 0.879797 0.380533 0.919712
C33   C     C_R   0.880030 0.880162 0.500591 0.876635
C34   C     C_3   0.739470 0.506575 0.835584 -0.316926
C35   C     C_R   0.983124 0.236079 0.808023 -0.043288
C36   C     C_R   0.997202 0.314893 0.810926 -0.145505
C37   C     C_R   0.012744 0.329910 0.747136 -0.255454
C38   C     C_R   0.013050 0.265265 0.682552 0.665349
C39   C     C_R   0.000167 0.186875 0.683627 -0.180549
C40   C     C_3   0.694648 0.415280 0.650503 -0.505851
C41   C     C_R   0.986280 0.175426 0.747956 -0.148168
C42   C     C_3   0.968362 0.113473 0.781810 0.443671
C43   C     C_3   0.965871 0.183564 0.851596 0.443797
C44   C     C_R   0.921036 0.683641 0.176122 -0.035288
C45   C     C_R   0.240413 0.247208 0.423645 -0.012893
C46   C     C_R   0.998912 0.687660 0.183484 -0.234430
C47   C     C_R   0.078885 0.762130 0.251040 -0.248233
C48   C     C_R   0.080297 0.826076 0.317105 0.649581
C49   C     C_R   0.001325 0.815935 0.313693 -0.288542
C50   C     C_R   0.922294 0.747873 0.240161 -0.059439
C51   C     C_3   0.844327 0.683836 0.234639 0.483866
C52   C     C_3   0.765076 0.415646 0.722699 0.496880
C53   C     C_3   0.843127 0.612833 0.163992 0.477265
C54   C     C_3   0.775932 0.580315 0.726514 0.495523
C55   C     C_3   0.665734 0.501528 0.762287 -0.314149
C56   C     C_R   0.314559 0.315282 0.502039 -0.284631
C57   C     C_3   0.687322 0.498789 0.688548 -0.077696
C58   C     C_R   0.318764 0.326194 0.581596 0.540838
C59   C     C_R   0.253849 0.262325 0.581538 0.578252
C60   C     C_R   0.184253 0.189268 0.501885 -0.280715
F1    F     F_    0.772825 0.656552 0.762386 -0.621013
F2    F     F_    0.727596 0.342908 0.730635 -0.609516
F3    F     F_    0.027451 0.279728 0.620863 -0.628919
F4    F     F_    0.039500 0.102706 0.816413 -0.607307
F5    F     F_    0.883364 0.157234 0.842193 -0.618018
F6    F     F_    0.157910 0.896270 0.384404 -0.633512
F7    F     F_    0.773537 0.696135 0.203509 -0.547443
F8    F     F_    0.771451 0.574416 0.082439 -0.569049
F9    F     F_    0.388019 0.395201 0.658836 -0.598125
F10   F     F_    0.259996 0.270441 0.658486 -0.577167
F11   F     F_    0.303483 0.168898 0.363473 -0.602453
F12   F     F_    0.162594 0.314496 0.277124 -0.693907
F13   F     F_    0.219685 0.283261 0.185771 -0.638286
F14   F     F_    0.591249 0.746637 0.463716 -0.656671
F15   F     F_    0.951296 0.733517 0.569047 -0.624302
F16   F     F_    0.737418 0.565273 0.415126 -0.630043
H1    H     H_    0.139949 0.768583 0.254769 0.192710
H2    H     H_    0.274798 0.640901 0.248449 0.175194
H3    H     H_    0.052571 0.318168 0.154231 0.221200
H4    H     H_    0.099787 0.294438 0.080849 0.199168
H5    H     H_    0.721668 0.862439 0.470087 0.199811
H6    H     H_    0.865088 0.693386 0.439884 0.092037
H7    H     H_    0.820845 0.610823 0.547046 0.114997
H8    H     H_    0.023616 0.390571 0.746760 0.190934
H9    H     H_    0.905304 0.051478 0.735161 0.113335
H10   H     H_    0.019274 0.214071 0.919404 0.102174
H11   H     H_    0.858236 0.679383 0.295144 -0.011806
H12   H     H_    0.712191 0.412499 0.598742 0.166984
H13   H     H_    0.814985 0.411305 0.704434 0.074138
H14   H     H_    0.856381 0.565456 0.181862 0.041594
H15   H     H_    0.791260 0.578790 0.673613 0.066465
H16   H     H_    0.897184 0.577522 0.776327 0.164036
H17   H     H_    0.657658 0.559162 0.789975 0.249847
H18   H     H_    0.603084 0.441997 0.735688 0.210058
H19   H     H_    0.711163 0.452223 0.847817 0.253797
H20   H     H_    0.770263 0.568946 0.896996 0.206920
H21   H     H_    0.882739 0.642783 0.859360 0.252319
H22   H     H_    0.173789 0.063951 0.357874 0.249842
H23   H     H_    0.093167 0.084198 0.287712 0.196354
H24   H     H_    0.209598 0.190003 0.287353 0.159820
H25   H     H_    0.388838 0.640762 0.362962 0.204584
H26   H     H_    0.630607 0.355733 0.619946 0.255248
O1    O     O_R   0.408690 0.356690 0.448570 -0.578101
O2    O     O_R   0.947510 0.091650 0.539220 -0.604188
O3    O     O_R   0.143610 0.091630 0.552030 -0.566689
O4    O     O_R   0.408080 0.460090 0.551420 -0.585270
O5    O     O_R   0.039620 0.091690 0.448080 -0.610474
O6    O     O_R   0.052490 0.908450 0.460880 -0.580817
O7    O     O_R   0.948500 0.908500 0.356930 -0.597295
O8    O     O_R   0.960380 0.908410 0.552020 -0.584339
O9    O     O_R   0.856390 0.908470 0.448070 -0.616648
O10   O     O_R   0.592400 0.448300 0.540680 -0.640057
O11   O     O_R   0.591790 0.551700 0.643540 -0.570535
O12   O     O_R   0.049530 0.460080 0.906210 -0.625960
O13   O     O_R   0.591920 0.539910 0.448580 -0.576001
O14   O     O_R   0.591310 0.643310 0.551430 -0.588399
O15   O     O_R   0.408210 0.448300 0.356460 -0.586477
O16   O     O_R   0.407600 0.551700 0.459320 -0.615813
O17   O     O_R   0.946090 0.356720 0.906270 -0.562661
O18   O     O_R   0.853510 0.448360 0.905260 -0.555075
O19   O     O_R   0.956950 0.551730 0.905200 -0.640438
O20   O     O_R   0.945130 0.540000 0.088470 -0.620610
O21   O     O_R   0.048570 0.643360 0.088400 -0.615265
O22   O     O_R   0.037700 0.448350 0.089480 -0.618383
O23   O     O_R   0.141150 0.551720 0.089410 -0.622458
O24   O     O_R   0.051500 0.091600 0.643170 -0.566774
Zn1   Zn    Zn3+2 0.500410 0.430960 0.431320 1.130777
Zn2   Zn    Zn3+2 0.499590 0.569040 0.568680 1.119850
Zn3   Zn    Zn3+2 0.928260 0.431020 0.997380 1.104098
Zn4   Zn    Zn3+2 0.066400 0.569060 0.997290 1.023848
Zn5   Zn    Zn3+2 0.069430 0.000010 0.569450 1.171150
Zn6   Zn    Zn3+2 0.930570 0.000090 0.430650 1.087075

loop_
_geom_bond_atom_site_label_1
_geom_bond_atom_site_label_2
_ccdc_geom_bond_type
C59   C60   A    
C30   O24   A    
C29   O23   A    
C31   O3    A    
C41   C42   S    
C35   C36   A    
C3    H22   S    
O19   Zn4   S    
C55   H17   S    
C13   H3    S    
C7    C8    A    
C39   C41   A    
O11   Zn2   S    
C12   C23   S    
C22   H6    S    
C36   C37   A    
C24   H7    S    
C34   H20   S    
C28   O15   A    
C38   C39   A    
C2    C60   A    
C29   O22   A    
O4    Zn2   S    
O13   Zn1   S    
C18   C19   A    
C53   F8    S    
O10   Zn1   S    
O23   Zn4   S    
C19   C20   A    
C45   C56   A    
C8    C9    A    
O6    Zn5   S    
C4    C57   S    
C30   C39   S    
C37   H8    S    
C33   O9    A    
C26   O19   A    
C13   C14   S    
C35   C43   S    
C9    C10   A    
C1    O1    A    
O20   Zn3   S    
C1    O4    A    
C4    O10   A    
C13   H4    S    
C34   C55   S    
C18   F14   S    
C21   C22   S    
O12   Zn4   S    
C52   H13   S    
O16   Zn2   S    
C22   F15   S    
C55   H18   S    
C44   C53   S    
C12   C52   S    
C27   O20   A    
C44   C46   A    
C50   C51   S    
C2    C45   A    
C32   O7    A    
O18   Zn3   S    
C14   F13   S    
C4    O11   A    
C34   H19   S    
O3    Zn5   S    
C51   H11   S    
C6    C11   A    
C27   O21   A    
C16   C17   S    
C59   F10   S    
C58   C59   A    
C40   C52   S    
C5    C45   S    
C7    C28   S    
C12   C26   S    
C51   C53   S    
C31   C60   S    
C37   C38   A    
C6    C14   S    
C47   C48   A    
C5    H24   S    
C43   F5    S    
O7    Zn6   S    
C17   C18   A    
C32   O6    A    
O8    Zn5   S    
C42   H9    S    
C51   F7    S    
O15   Zn1   S    
C20   C33   S    
C27   C46   S    
C48   C49   A    
C23   H21   S    
C55   C57   S    
O21   Zn4   S    
O14   Zn2   S    
C22   C24   S    
C42   C43   S    
C47   H1    S    
C12   C34   S    
C16   O13   A    
C42   F4    S    
O1    Zn1   S    
C23   C54   S    
C38   F3    S    
C8    H25   S    
C44   C50   A    
C15   C17   A    
C46   C47   A    
C15   C24   S    
C40   C57   S    
C43   H10   S    
C31   O5    A    
C1    C56   S    
C24   F16   S    
C26   O18   A    
O5    Zn6   S    
C3    C5    S    
C58   F9    S    
C6    C7    A    
C54   F1    S    
C25   O17   A    
C16   O14   A    
C14   F12   S    
C40   H12   S    
C2    C3    S    
C54   H15   S    
C5    F11   S    
C52   F2    S    
C25   O12   A    
C11   C13   S    
C10   C29   S    
O24   Zn5   S    
O17   Zn3   S    
C56   C58   A    
O22   Zn3   S    
C9    H2    S    
C35   C41   A    
C32   C49   S    
C10   C11   A    
C25   C36   S    
C40   H26   S    
C3    H23   S    
O9    Zn6   S    
C15   C21   A    
C20   C21   A    
C49   C50   A    
O2    Zn6   S    
C30   O2    A    
C53   H14   S    
C23   H16   S    
C28   O16   A    
C33   O8    A    
C48   F6    S    
C19   H5    S    
C54   C57   S    
