data_mof_unit_6213.cif
_audit_creation_date              2013-03-05T15:53:44-0500
_audit_creation_method            fapswitch 2.2
_symmetry_space_group_name_H-M    P1
_symmetry_Int_Tables_number       1
_space_group_crystal_system       triclinic
_cell_length_a                    14.951139
_cell_length_b                    14.761535
_cell_length_c                    17.164324
_cell_angle_alpha                 109.143518
_cell_angle_beta                  106.6783
_cell_angle_gamma                 107.915343
_cell_volume                      3071.85841366

loop_
_atom_site_label
_atom_site_type_symbol
_atom_site_description
_atom_site_fract_x
_atom_site_fract_y
_atom_site_fract_z
_atom_type_partial_charge
C1    C     C_R   0.088802 0.271774 0.037077 -0.133060
H1    H     H_    0.167376 0.285207 0.072444 0.097720
N1    N     N_R   0.055640 0.348550 0.045600 -0.038768
C2    C     C_R   0.934715 0.491284 0.737704 -0.131304
H2    H     H_    0.855649 0.455941 0.686319 0.098437
N2    N     N_R   0.960830 0.507850 0.823710 -0.045698
C3    C     C_R   0.718668 0.215895 0.822662 -0.146330
H3    H     H_    0.686726 0.163202 0.849150 0.086869
N3    N     N_R   0.811290 0.303400 0.871650 -0.039096
C4    C     C_R   0.266941 0.542589 0.957155 -0.125305
H4    H     H_    0.282830 0.579955 0.915767 0.101477
N4    N     N_R   0.205180 0.552990 0.997660 -0.040329
C5    C     C_R   0.728423 0.312252 0.746977 -0.128960
H5    H     H_    0.708286 0.351433 0.706367 0.088619
N5    N     N_R   0.814810 0.361830 0.823710 -0.039516
C6    C     C_R   0.266530 0.450128 0.036933 -0.141791
H6    H     H_    0.287968 0.406325 0.072046 0.093028
N6    N     N_R   0.201660 0.494570 0.045600 -0.041958
C7    C     C_R   0.108415 0.579190 0.815565 -0.109324
H7    H     H_    0.189358 0.627053 0.836451 0.124376
N7    N     N_R   0.068420 0.560530 0.871650 -0.045942
C8    C     C_R   0.916135 0.190163 0.956403 -0.120167
H8    H     H_    0.835987 0.132013 0.912698 0.094818
N8    N     N_R   0.948050 0.295860 0.997660 -0.041036
C9    C     C_R   0.003279 0.171352 0.977277 0.057282
C10   C     C_R   0.026789 0.532403 0.729881 0.063828
C11   C     C_R   0.664075 0.220332 0.744406 0.062848
C12   C     C_R   0.304047 0.475012 0.977584 0.101677
C13   C     C_R   0.225167 0.703904 0.265362 0.197317
N9    N     N_R   0.185190 0.638170 0.176290 -0.065156
C14   C     C_R   0.703342 0.495734 0.914860 -0.066504
H9    H     H_    0.679095 0.513461 0.858318 0.154122
N10   N     N_R   0.798340 0.505430 0.954400 -0.043241
C15   C     C_R   0.893145 0.392717 0.174193 -0.121603
H10   H     H_    0.812221 0.338302 0.148813 0.093610
N11   N     N_R   0.931580 0.439470 0.128350 -0.042837
C16   C     C_R   0.081468 0.804649 0.012154 0.447715
N12   N     N_R   0.051950 0.704140 0.002340 -0.098782
C17   C     C_R   0.910366 0.722178 0.942346 0.485073
N13   N     N_R   0.944360 0.651450 0.954400 -0.102995
C18   C     C_R   0.065651 0.471637 0.246653 -0.154105
H11   H     H_    0.143205 0.482093 0.282235 0.115458
N14   N     N_R   0.039170 0.492150 0.176290 -0.046374
C19   C     C_R   0.226684 0.799436 0.188337 -0.167767
H12   H     H_    0.237145 0.864214 0.171233 0.175427
N15   N     N_R   0.188710 0.696600 0.128350 -0.046491
C20   C     C_R   0.698961 0.407161 0.997029 -0.137460
H13   H     H_    0.673250 0.351251 0.022738 0.139538
N16   N     N_R   0.794820 0.447010 0.002340 -0.050632
Ni1   Ni    Ni4+2 0.119330 0.493420 0.109950 0.214458
Ni2   Ni    Ni4+2 0.880670 0.506580 0.890050 0.230152
Ni3   Ni    Ni4+2 0.872590 0.372590 0.000000 0.199878
Ni4   Ni    Ni4+2 0.127410 0.627410 0.000000 0.251773
C21   C     C_R   0.248464 0.807526 0.275453 -0.027934
C22   C     C_R   0.638592 0.434094 0.939466 0.053874
C23   C     C_R   0.976537 0.410745 0.248495 0.061235
C24   C     C_R   0.994533 0.821320 0.978010 -0.250594
C25   C     C_R   0.405130 0.475546 0.885922 0.168366
C26   C     C_R   0.365619 0.434055 0.937859 -0.054503
C27   C     C_R   0.387686 0.352813 0.950620 -0.258122
H14   H     H_    0.352171 0.312306 0.983515 0.155344
C28   C     C_R   0.464022 0.330423 0.928594 0.523213
C29   C     C_R   0.526662 0.400358 0.904910 -0.159939
C30   C     C_R   0.485799 0.460075 0.870517 0.110978
C31   C     C_3   0.536249 0.571488 0.881731 -0.447262
C32   C     C_3   0.447110 0.587445 0.897392 -0.521846
H15   H     H_    0.611562 0.624669 0.943696 0.213313
H16   H     H_    0.537192 0.571899 0.817308 0.194910
H17   H     H_    0.471939 0.648941 0.967797 0.203527
H18   H     H_    0.396257 0.596016 0.841400 0.188249
C33   C     C_R   0.975381 0.380057 0.320715 0.121192
C34   C     C_R   0.036709 0.514088 0.644900 0.080123
C35   C     C_R   0.142308 0.541242 0.563873 -0.325262
C36   C     C_R   0.129325 0.575883 0.643517 0.183688
C37   C     C_R   0.955370 0.425239 0.564492 -0.317067
C38   C     C_R   0.964198 0.399135 0.482940 0.186532
C39   C     C_R   0.059477 0.455754 0.483659 0.176884
C40   C     C_R   0.066521 0.437273 0.402377 -0.258199
C41   C     C_R   0.881842 0.316796 0.318285 -0.174557
C42   C     C_R   0.877446 0.323353 0.399848 -0.206419
H19   H     H_    0.140468 0.483807 0.405795 0.116068
H20   H     H_    0.811146 0.269037 0.255181 0.121235
H21   H     H_    0.213566 0.587615 0.562659 0.130514
H22   H     H_    0.803899 0.278411 0.398389 0.128637
H23   H     H_    0.883910 0.377408 0.564297 0.134333
C43   C     C_R   0.554885 0.151458 0.677198 0.121619
C44   C     C_R   0.292971 0.907952 0.359666 0.143148
C45   C     C_R   0.406983 0.097918 0.442688 -0.227566
C46   C     C_R   0.341915 0.006418 0.360393 -0.165548
C47   C     C_R   0.296399 0.906604 0.441840 -0.277862
C48   C     C_R   0.370998 0.994453 0.524523 0.177085
C49   C     C_R   0.428781 0.089641 0.524114 0.189892
C50   C     C_R   0.516571 0.169662 0.601925 -0.275207
C51   C     C_R   0.492195 0.061466 0.681041 -0.176042
C52   C     C_R   0.398551 0.984269 0.605403 -0.212647
H24   H     H_    0.560777 0.239644 0.597814 0.115104
H25   H     H_    0.517866 0.047262 0.739649 0.117809
H26   H     H_    0.449560 0.171529 0.441881 0.128344
H27   H     H_    0.354095 0.911993 0.607028 0.129306
H28   H     H_    0.337157 0.012606 0.298509 0.124619
H29   H     H_    0.249973 0.835189 0.442508 0.123517
C53   C     C_R   0.097453 0.059129 0.941619 0.117171
C54   C     C_R   0.004359 0.066603 0.933863 0.057052
C55   C     C_R   0.910568 0.971906 0.872898 -0.208814
H30   H     H_    0.835871 0.969897 0.866595 0.124280
C56   C     C_R   0.911497 0.880897 0.812308 -0.177451
H31   H     H_    0.838758 0.812048 0.761541 0.139096
C57   C     C_R   0.005611 0.882105 0.812342 0.031086
C58   C     C_R   0.097767 0.968762 0.882374 0.159868
C59   C     C_3   0.193461 0.032007 0.878035 -0.426881
C60   C     C_3   0.193036 0.131175 0.942230 -0.516182
H32   H     H_    0.260362 0.017811 0.910050 0.206570
H33   H     H_    0.178981 0.025898 0.808813 0.196684
H34   H     H_    0.259913 0.173994 0.010932 0.193364
H35   H     H_    0.177302 0.182123 0.909876 0.204132
O1    O     O_3   0.181577 0.870776 0.032726 -0.776155
H36   H     H_    0.182618 0.938837 0.034334 0.315575
O2    O     O_3   0.808328 0.694536 0.890538 -0.791637
H37   H     H_    0.804529 0.760723 0.891400 0.317653
O3    O     O_3   0.480967 0.247649 0.938989 -0.769848
H38   H     H_    0.516459 0.225708 0.900720 0.303699
N17   N     N_2   0.207574 0.674773 0.719681 -0.125766
H39   H     H_    0.281149 0.695867 0.721948 0.162972
C61   C     C_3   0.179580 0.762473 0.734945 -0.916541
H40   H     H_    0.242597 0.834437 0.798007 0.252262
H41   H     H_    0.106578 0.742333 0.744065 0.262221
H42   H     H_    0.169148 0.781357 0.676312 0.248666
N18   N     N_2   0.264272 0.673944 0.333548 -0.121972
H43   H     H_    0.231351 0.677727 0.378818 0.148604
C62   C     C_3   0.375710 0.709892 0.373034 -0.922856
H44   H     H_    0.396408 0.673837 0.418811 0.243689
H45   H     H_    0.417383 0.798342 0.413587 0.260877
H46   H     H_    0.401270 0.684210 0.318264 0.259531

loop_
_geom_bond_atom_site_label_1
_geom_bond_atom_site_label_2
_geom_bond_distance
_ccdc_geom_bond_type
N8    Ni3   1.827493 S    
N12   N13   1.385772 A    
C15   C23   1.382895 A    
C10   C34   1.453596 S    
C35   C36   1.386676 A    
C7    H7    1.072876 S    
C42   H22   1.083691 S    
N18   H43   1.028174 S    
C55   C56   1.410660 A    
N1    N8    1.385770 A    
C3    H3    1.080656 S    
C20   N16   1.334005 A    
C16   O1    1.374586 S    
C39   C40   1.372713 A    
O1    H36   0.991145 S    
C25   C32   1.496364 S    
C13   N9    1.334879 A    
C47   H29   1.074972 S    
C61   H41   1.110475 S    
C7    N7    1.327836 A    
C16   N12   1.347210 A    
C15   H10   1.081157 S    
C21   C44   1.471529 S    
C52   H27   1.083848 S    
C32   H17   1.112613 S    
C56   H31   1.081736 S    
N10   N16   1.373277 A    
C17   C24   1.391872 A    
C3    C11   1.391416 A    
C57   C58   1.391472 A    
C27   C28   1.397345 A    
C1    H1    1.075312 S    
C18   H11   1.078371 S    
C7    C10   1.383603 A    
O2    H37   0.991550 S    
C43   C51   1.405163 A    
C59   C60   1.519506 S    
C37   H23   1.082729 S    
C45   C49   1.396254 A    
C6    H6    1.075308 S    
C31   H15   1.111997 S    
C8    C9    1.386698 A    
C22   C29   1.457441 S    
C14   N10   1.325268 A    
N5    Ni2   1.816049 S    
N2    Ni2   1.875315 S    
C28   O3    1.377126 S    
C6    C12   1.390653 A    
N11   Ni3   1.878419 S    
C31   H16   1.111880 S    
N9    Ni1   1.816048 S    
C26   C27   1.403307 A    
C5    H5    1.078019 S    
C1    C9    1.403056 A    
C18   N14   1.321437 A    
C53   C60   1.490787 S    
C53   C54   1.401755 A    
N3    Ni3   1.877745 S    
C34   C37   1.404278 A    
C33   C41   1.402548 A    
C55   H30   1.080736 S    
N1    Ni1   1.814997 S    
C19   N15   1.340132 A    
C25   C30   1.374644 A    
C46   H28   1.079777 S    
C38   C42   1.402472 A    
C38   C39   1.406638 A    
C2    N2    1.328590 A    
C48   C49   1.408506 A    
C9    C54   1.487616 S    
C51   H25   1.081427 S    
C25   C26   1.398790 A    
N2    N7    1.385769 A    
C41   C42   1.393358 A    
C27   H14   1.075392 S    
C1    N1    1.352875 A    
C11   C43   1.469073 S    
C62   H45   1.109939 S    
C37   C38   1.381626 A    
C18   C23   1.374831 A    
C28   C29   1.416711 A    
C43   C50   1.402586 A    
C20   H13   1.079208 S    
C45   H26   1.084220 S    
N16   Ni3   1.828697 S    
C59   H33   1.112091 S    
C4    N4    1.321107 A    
C61   H42   1.111534 S    
C34   C36   1.416353 A    
C36   N17   1.424234 S    
C50   H24   1.078657 S    
C44   C46   1.405994 A    
C8    N8    1.336744 A    
C44   C47   1.403563 A    
C62   H46   1.111363 S    
N17   C61   1.446946 S    
N13   Ni2   1.814996 S    
C17   N13   1.341258 A    
O3    H38   0.992093 S    
N6    Ni1   1.874908 S    
C20   C22   1.383993 A    
C12   C26   1.452660 S    
C4    C12   1.372598 A    
C3    N3    1.346099 A    
N9    N15   1.373396 A    
C14   H9    1.079242 S    
C19   H12   1.069342 S    
N4    Ni4   1.828699 S    
C2    H2    1.080662 S    
C53   C58   1.389397 A    
N18   C62   1.445310 S    
C41   H20   1.082123 S    
C2    C10   1.388166 A    
N14   Ni1   1.875318 S    
N10   Ni2   1.874910 S    
C17   O2    1.372954 S    
C30   C31   1.502208 S    
C5    N5    1.322232 A    
C62   H44   1.110158 S    
N3    N5    1.373397 A    
C58   C59   1.486316 S    
N7    Ni4   1.878422 S    
C40   H19   1.080166 S    
C47   C48   1.390788 A    
C32   H18   1.112296 S    
N12   Ni4   1.827493 S    
C56   C57   1.401552 A    
N15   Ni4   1.877742 S    
C49   C50   1.380965 A    
C60   H34   1.111473 S    
C15   N11   1.340679 A    
C51   C52   1.396093 A    
C59   H32   1.111471 S    
C4    H4    1.067041 S    
C48   C52   1.402243 A    
C29   C30   1.401591 A    
C19   C21   1.391270 A    
C45   C46   1.384740 A    
C6    N6    1.342918 A    
C31   C32   1.503702 S    
C13   C21   1.398176 A    
C13   N18   1.418783 S    
N4    N6    1.373279 A    
C54   C55   1.416980 A    
C35   C39   1.393585 A    
C8    H8    1.079062 S    
C5    C11   1.379092 A    
N11   N14   1.385769 A    
C60   H35   1.112272 S    
C14   C22   1.374155 A    
N17   H39   1.032130 S    
C35   H21   1.085113 S    
C33   C40   1.397862 A    
C16   C24   1.395560 A    
C23   C33   1.455304 S    
C61   H40   1.110180 S    
