data_mof_unit_13447.cif
_audit_creation_date              2013-03-05T16:07:50-0500
_audit_creation_method            fapswitch 2.2
_symmetry_space_group_name_H-M    P1
_symmetry_Int_Tables_number       1
_space_group_crystal_system       triclinic
_cell_length_a                    8.193595
_cell_length_b                    15.09194
_cell_length_c                    18.759293
_cell_angle_alpha                 101.924322
_cell_angle_beta                  91.666319
_cell_angle_gamma                 98.672697
_cell_volume                      2239.35930969

loop_
_atom_site_label
_atom_site_type_symbol
_atom_site_description
_atom_site_fract_x
_atom_site_fract_y
_atom_site_fract_z
_atom_type_partial_charge
P1    P     P_3+3 0.039440 0.410950 0.333260 0.473030
O1    O     O_2   0.871970 0.437290 0.322980 -0.414827
O2    O     O_3   0.121420 0.444460 0.412460 -0.362213
O3    O     O_3   0.661430 0.607560 0.372520 -0.375776
O4    O     O_2   0.778719 0.544053 0.246342 -0.372614
O5    O     O_3   0.027799 0.291027 0.309424 -0.602031
O6    O     O_3   0.709515 0.709506 0.263037 -0.510188
H1    H     H_    0.707556 0.776948 0.371063 0.153705
C1    C     C_3   0.683516 0.867674 0.298838 -0.845342
H2    H     H_    0.818808 0.892286 0.304408 0.290366
H3    H     H_    0.637253 0.865227 0.242210 0.247554
P2    P     P_3+3 0.676740 0.714970 0.563520 0.450705
P3    P     P_3+3 0.123584 0.773786 0.412698 0.453900
O7    O     O_2   0.852280 0.726960 0.542370 -0.385729
O8    O     O_3   0.083990 0.657360 0.410240 -0.343212
O9    O     O_2   0.997687 0.817180 0.462720 -0.394529
O10   O     O_3   0.693540 0.747171 0.658950 -0.578158
O11   O     O_3   0.058012 0.789149 0.327082 -0.501151
C2    C     C_3   0.188790 0.789680 0.280566 0.313869
H4    H     H_    0.217999 0.719054 0.263308 0.078268
H5    H     H_    0.300401 0.836967 0.307427 0.048029
C3    C     C_3   0.132974 0.823805 0.213715 -0.353108
H6    H     H_    0.040127 0.769708 0.178782 0.205188
H7    H     H_    0.071169 0.884456 0.232730 0.208244
C4    C     C_3   0.202777 0.756840 0.640161 0.330871
H8    H     H_    0.333569 0.772416 0.627263 0.083426
H9    H     H_    0.130791 0.718669 0.589395 0.124823
C5    C     C_3   0.133961 0.845876 0.669652 -0.456656
H10   H     H_    0.169061 0.870520 0.729023 0.219506
H11   H     H_    0.997083 0.830620 0.664560 0.206891
Ba1   Ba    Ba6+2 0.853510 0.540900 0.466480 1.569919
C6    C     C_3   0.872587 0.241178 0.316084 0.868416
H12   H     H_    0.789574 0.284921 0.345587 -0.004633
C7    C     C_3   0.797243 0.194626 0.239252 -0.968816
H13   H     H_    0.774752 0.245902 0.207587 0.191739
H14   H     H_    0.677172 0.151093 0.241679 0.299604
H15   H     H_    0.882317 0.151148 0.209621 0.261949
C8    C     C_3   0.732574 0.674413 0.688308 0.453759
H16   H     H_    0.847943 0.653429 0.666552 0.078232
H17   H     H_    0.630578 0.615090 0.675636 0.135845
C9    C     C_3   0.758030 0.706479 0.770813 -1.052425
H18   H     H_    0.865003 0.762997 0.784986 0.264759
H19   H     H_    0.782320 0.649227 0.796148 0.225145
H20   H     H_    0.645367 0.731463 0.793253 0.266492
P4    P     P_3+3 0.150270 0.589130 0.666750 0.464375
O12   O     O_2   0.317740 0.562750 0.677070 -0.353024
O13   O     O_3   0.068290 0.555610 0.587550 -0.406773
O14   O     O_3   0.528280 0.392520 0.627490 -0.367731
O15   O     O_3   0.198117 0.708566 0.696453 -0.594738
P5    P     P_3+3 0.066051 0.224726 0.586907 0.515405
O16   O     O_3   0.609300 0.386850 0.459730 -0.417682
O17   O     O_3   0.105720 0.342720 0.589770 -0.345903
O18   O     O_2   0.194597 0.180635 0.538727 -0.333810
O19   O     O_3   0.122905 0.208718 0.673216 -0.516617
Ba2   Ba    Ba6+2 0.336320 0.459170 0.533530 1.600132
P6    P     P_3+3 0.645662 0.599761 0.279120 0.463306
C10   C     C_3   0.646870 0.773090 0.316524 0.445303
H21   H     H_    0.511066 0.754028 0.318273 -0.028235
H22   H     H_    0.622257 0.916763 0.337097 0.241683
O20   O     O_3   0.580410 0.613230 0.540280 -0.398274
C11   C     C_3   0.452761 0.320852 0.309464 0.462731
H23   H     H_    0.352874 0.350446 0.339743 0.117803
H24   H     H_    0.564198 0.374121 0.315042 0.085937
C12   C     C_3   0.395534 0.288999 0.228936 -0.983322
H25   H     H_    0.274894 0.242556 0.222739 0.296815
H26   H     H_    0.382197 0.348272 0.204288 0.202974
H27   H     H_    0.486926 0.251502 0.198430 0.253489
P7    P     P_3+3 0.516866 0.271798 0.430482 0.493215
O21   O     O_2   0.337420 0.273080 0.457680 -0.280814
O22   O     O_3   0.490382 0.245123 0.335104 -0.528569
C13   C     C_3   0.001820 0.234392 0.720941 0.338787
H28   H     H_    0.981049 0.305561 0.720755 0.044164
H29   H     H_    0.885015 0.186243 0.704273 0.042136
C14   C     C_3   0.058499 0.231506 0.798864 -0.377823
H30   H     H_    0.172744 0.282685 0.815605 0.201271
H31   H     H_    0.963506 0.252872 0.836983 0.148663
P8    P     P_3+3 0.548344 0.404870 0.721576 0.458185
C15   C     C_3   0.543246 0.230372 0.707411 0.533702
H32   H     H_    0.660120 0.253946 0.683257 -0.028659
O23   O     O_2   0.431984 0.471029 0.754872 -0.382236
O24   O     O_3   0.461162 0.301082 0.742267 -0.504427
H33   H     H_    0.459339 0.185885 0.662410 0.114860
H34   H     H_    0.630999 0.112741 0.735228 0.246711
C16   C     C_3   0.582056 0.174703 0.762818 -1.143594
H35   H     H_    0.469325 0.153278 0.790151 0.273500
H36   H     H_    0.675054 0.216986 0.805199 0.266957
C17   C     C_R   0.996980 0.454701 0.045576 0.005964
C18   C     C_R   0.892173 0.414200 0.092162 0.121838
C19   C     C_R   0.727905 0.376426 0.067757 -0.187691
C20   C     C_R   0.668336 0.378558 0.997676 -0.186363
C21   C     C_R   0.772210 0.417911 0.950466 0.124946
C22   C     C_R   0.937070 0.456307 0.974282 0.012765
C23   C     C_R   0.713376 0.418758 0.879835 -0.252651
C24   C     C_R   0.817516 0.455725 0.830989 -0.026266
C25   C     C_R   0.981798 0.497657 0.855438 -0.003751
C26   C     C_R   0.040938 0.497316 0.927340 -0.019937
C27   C     C_R   0.762788 0.451304 0.758144 0.164118
C28   C     C_R   0.871060 0.486236 0.710561 -0.528443
C29   C     C_R   0.029404 0.533969 0.734476 0.286928
C30   C     C_R   0.086066 0.540966 0.808696 -0.037561
C31   C     C_R   0.160989 0.493673 0.070285 -0.015506
C32   C     C_R   0.218449 0.495828 0.143034 0.009905
C33   C     C_R   0.110655 0.457650 0.191261 -0.032604
C34   C     C_R   0.950954 0.413690 0.163025 -0.155853
H37   H     H_    0.644873 0.345878 0.103152 0.129919
H38   H     H_    0.540803 0.349253 0.980351 0.134417
H39   H     H_    0.827545 0.480848 0.654587 0.174000
H40   H     H_    0.585948 0.389421 0.863631 0.189382
H41   H     H_    0.866552 0.382757 0.196635 0.154401
C35   C     C_R   0.243728 0.588193 0.837803 -0.138261
C36   C     C_R   0.306563 0.581808 0.906903 0.119659
C37   C     C_R   0.204628 0.536839 0.952130 0.001451
C38   C     C_R   0.265811 0.533085 0.022818 0.002480
C39   C     C_R   0.471312 0.618667 0.931170 -0.180151
C40   C     C_R   0.533777 0.611668 0.999672 -0.190284
C41   C     C_R   0.431202 0.570416 0.046390 0.135284
C42   C     C_R   0.383193 0.536672 0.167236 -0.032295
C43   C     C_R   0.489720 0.569881 0.117329 -0.239609
C44   C     C_R   0.435138 0.545267 0.241147 0.163231
C45   C     C_R   0.324376 0.513411 0.289648 -0.513498
C46   C     C_R   0.164964 0.466451 0.266121 0.282517
H42   H     H_    0.322415 0.627277 0.806249 0.172065
H43   H     H_    0.552586 0.652218 0.896859 0.135497
H44   H     H_    0.661472 0.640671 0.016872 0.136803
H45   H     H_    0.617170 0.599365 0.133825 0.183573
H46   H     H_    0.365893 0.521168 0.346179 0.174191
C47   C     C_R   0.336270 0.820469 0.453425 0.140675
H47   H     H_    0.367411 0.689984 0.476476 0.177632
H48   H     H_    0.207807 0.946621 0.399821 0.205588
C48   C     C_R   0.576561 0.792440 0.518689 0.318772
C49   C     C_R   0.762980 0.228806 0.515963 -0.369929
C50   C     C_R   0.854208 0.174159 0.547190 0.247215
C51   C     C_R   0.791619 0.081434 0.541469 -0.263097
C52   C     C_R   0.638223 0.041003 0.502241 0.063865
C53   C     C_R   0.554426 0.096107 0.464218 -0.109238
C54   C     C_R   0.567907 0.946633 0.496975 0.059046
C55   C     C_R   0.408083 0.913162 0.461121 -0.056943
C56   C     C_R   0.326577 0.970892 0.429193 -0.318851
C57   C     C_R   0.407766 0.054553 0.420954 0.391078
C58   C     C_R   0.648773 0.884466 0.526701 -0.296459
C59   C     C_R   0.422903 0.760834 0.481210 -0.493024
C60   C     C_R   0.617903 0.191082 0.472459 0.184790
H49   H     H_    0.767401 0.905043 0.556493 0.152600
H50   H     H_    0.811733 0.300805 0.521466 0.157842
H51   H     H_    0.866223 0.043043 0.567727 0.122116
C61   C     C_3   0.190748 0.923343 0.630313 -0.299105
C62   C     C_3   0.365872 0.971289 0.656304 -0.882779
H52   H     H_    0.371031 0.001496 0.715583 0.260141
H53   H     H_    0.455743 0.922813 0.646483 0.259277
H54   H     H_    0.401696 0.026503 0.626278 0.253166
H55   H     H_    0.183740 0.896675 0.570854 0.233069
H56   H     H_    0.106106 0.974984 0.641526 0.212864
N1    N     N_R   0.897753 0.172222 0.357907 0.220937
O25   O     O_R   0.008963 0.193845 0.411936 -0.341609
O26   O     O_R   0.821082 0.088021 0.339181 -0.403811
C63   C     C_3   0.276186 0.853886 0.168722 -0.342025
C64   C     C_3   0.354908 0.773443 0.130165 -0.887999
H57   H     H_    0.413018 0.742049 0.170805 0.261897
H58   H     H_    0.259802 0.721416 0.094920 0.267685
H59   H     H_    0.452177 0.797781 0.095536 0.260211
H60   H     H_    0.227710 0.887153 0.126739 0.219131
H61   H     H_    0.371537 0.905489 0.204186 0.251689
C65   C     C_3   0.095797 0.136793 0.806388 -0.218910
C66   C     C_3   0.941292 0.063767 0.796752 -0.901917
H62   H     H_    0.846395 0.087585 0.833970 0.270205
H63   H     H_    0.889440 0.046805 0.739356 0.252269
H64   H     H_    0.974645 0.000070 0.809933 0.247314
H65   H     H_    0.184504 0.113088 0.765958 0.226949
H66   H     H_    0.155206 0.143665 0.861705 0.178938
N2    N     N_R   0.364053 0.080753 0.354979 0.254099
O27   O     O_R   0.210694 0.086621 0.340043 -0.324764
O28   O     O_R   0.458301 0.063926 0.300862 -0.417914

loop_
_geom_bond_atom_site_label_1
_geom_bond_atom_site_label_2
_geom_bond_distance
_ccdc_geom_bond_type
C11   O22   1.399060 S    
O14   P8    1.736352 S    
O14   Ba2   2.764240 S    
O5    C6    1.399454 S    
C17   C18   1.407444 A    
C30   C35   1.412600 A    
C64   H57   1.108424 S    
C7    H15   1.111389 S    
C31   C38   1.411956 A    
C9    H18   1.110744 S    
O4    P6    1.541197 D    
C2    H4    1.112210 S    
C58   H49   1.076653 S    
C22   C26   1.411644 A    
O7    Ba1   2.875616 S    
C54   C58   1.418608 A    
C48   C58   1.400827 A    
C39   C40   1.399502 A    
C20   C21   1.403640 A    
C3    C63   1.533199 S    
P4    O12   1.503336 D    
C4    C5    1.539169 S    
C53   C57   1.414821 A    
C26   C37   1.406674 A    
C23   C24   1.411435 A    
P2    C48   1.844878 S    
P3    O11   1.750206 S    
C66   H62   1.110586 S    
C2    H5    1.107834 S    
C16   H36   1.108321 S    
C7    H13   1.101038 S    
C42   C44   1.412490 A    
C23   H40   1.079385 S    
C34   H41   1.069283 S    
C45   H46   1.081554 S    
N2    O27   1.299478 A    
C40   C41   1.404469 A    
P1    Ba1   3.392609 S    
O11   C2    1.401577 S    
C57   N2    1.426722 S    
P1    O1    1.502960 D    
C47   C59   1.396624 A    
C11   H24   1.108715 S    
C48   C59   1.391325 A    
C35   C36   1.407990 A    
C62   H52   1.108239 S    
C17   C31   1.406915 A    
O2    Ba2   2.783737 S    
C53   C60   1.424026 A    
O19   C13   1.400081 S    
C65   C66   1.527588 S    
P7    O21   1.571822 D    
O12   Ba2   2.841423 S    
P5    O17   1.750574 S    
P8    C27   1.846307 S    
C43   H45   1.080941 S    
P4    O15   1.752828 S    
N1    O26   1.301857 A    
H47   C59   1.081550 S    
C7    H14   1.105280 S    
C11   H23   1.106521 S    
O17   Ba2   2.766304 S    
O10   C8    1.398891 S    
C38   C41   1.407592 A    
C63   H61   1.109817 S    
C64   H58   1.109909 S    
Ba1   O13   2.783147 S    
Ba2   O20   2.807685 S    
O3    P6    1.731318 S    
C9    H19   1.108192 S    
C24   C25   1.417734 A    
O6    P6    1.749953 S    
C37   C38   1.419128 A    
C18   C34   1.402588 A    
C27   C28   1.400423 A    
C4    O15   1.399721 S    
P4    O13   1.563143 S    
P5    O18   1.545065 D    
C14   H30   1.111783 S    
H48   C56   1.078297 S    
P1    O5    1.759462 S    
C31   C32   1.422966 A    
C2    C3    1.533517 S    
C16   H35   1.107520 S    
C20   H38   1.083803 S    
C8    C9    1.521327 S    
P4    C29   1.884012 S    
C21   C22   1.407797 A    
C13   H29   1.104862 S    
C15   H32   1.112664 S    
C50   C51   1.396825 A    
C52   C54   1.435695 A    
C24   C27   1.410878 A    
C4    H8    1.106740 S    
C28   H39   1.081898 S    
C61   H55   1.101454 S    
O1    Ba1   2.840801 S    
P1    O2    1.563131 S    
C12   H26   1.106074 S    
Ba1   O20   2.899610 S    
P2    O10   1.750969 S    
C11   C12   1.524391 S    
O2    Ba1   2.906439 S    
C12   H27   1.107874 S    
H1    C10   1.111062 S    
C21   C23   1.399933 A    
C15   H33   1.108563 S    
H34   C16   1.108297 S    
P8    O24   1.744808 S    
C62   H54   1.107975 S    
P5    O19   1.746018 S    
P7    C60   1.857938 S    
C1    H3    1.108901 S    
Ba2   O21   2.875618 S    
C49   C60   1.396661 A    
P5    C50   1.854917 S    
C61   H56   1.111916 S    
C39   H43   1.082623 S    
P2    O20   1.583836 S    
C32   C42   1.416319 A    
P2    O7    1.497746 D    
C63   H60   1.111498 S    
C64   H59   1.110193 S    
P3    O8    1.728728 S    
P2    Ba1   3.411407 S    
C51   C52   1.422302 A    
C9    H20   1.110630 S    
C3    H7    1.112155 S    
C51   H51   1.076678 S    
C14   H31   1.110809 S    
C49   C50   1.393609 A    
C33   C46   1.434051 A    
C33   C34   1.409128 A    
C45   C46   1.400420 A    
O13   Ba2   2.907265 S    
C61   C62   1.523368 S    
C1    H2    1.109397 S    
P8    O23   1.536247 D    
C5    H10   1.113284 S    
C40   H44   1.083650 S    
C36   C37   1.409326 A    
C62   H53   1.107277 S    
C25   C30   1.427568 A    
C66   H64   1.110628 S    
Ba1   O16   2.808155 S    
C54   C55   1.425241 A    
C1    C10   1.519907 S    
C13   C14   1.532099 S    
C44   C45   1.407047 A    
O8    Ba1   2.765806 S    
C52   C53   1.435485 A    
C4    H9    1.106734 S    
C55   C56   1.389844 A    
C5    C61   1.529843 S    
C29   C30   1.432513 A    
Ba1   Ba2   4.536118 S    
C12   H25   1.110220 S    
C5    H11   1.107591 S    
C65   H65   1.108982 S    
C19   C20   1.397322 A    
C13   H28   1.113227 S    
C14   C65   1.539188 S    
C42   C43   1.413875 A    
C6    H12   1.100494 S    
C8    H17   1.109661 S    
C15   O24   1.404408 S    
C10   H21   1.109715 S    
C8    H16   1.104424 S    
N2    O28   1.299869 A    
C66   H63   1.109968 S    
P6    C44   1.848747 S    
C41   C43   1.403344 A    
C36   C39   1.404293 A    
O16   Ba2   2.898721 S    
O16   P7    1.753606 S    
C32   C33   1.427926 A    
C65   H66   1.111518 S    
P1    C46   1.896622 S    
O3    Ba1   2.764923 S    
C56   C57   1.376190 A    
C6    N1    1.460749 S    
P3    C47   1.856562 S    
C15   C16   1.519721 S    
C63   C64   1.521024 S    
C18   C19   1.403951 A    
P4    Ba2   3.393231 S    
P7    O22   1.750408 S    
C28   C29   1.397937 A    
P3    O9    1.542607 D    
C19   H37   1.083722 S    
C25   C26   1.421196 A    
C3    H6    1.112360 S    
C47   C55   1.409752 A    
C1    H22   1.108727 S    
N1    O25   1.297699 A    
C17   C22   1.417414 A    
O6    C10   1.404164 S    
C35   H42   1.079704 S    
C49   H50   1.082263 S    
C6    C7    1.533318 S    
