data_mof_unit_63932.cif
_audit_creation_date              2012-12-10T19:58:44-0500
_audit_creation_method            fapswitch 2.2
_symmetry_space_group_name_H-M    P1
_symmetry_Int_Tables_number       1
_space_group_crystal_system       triclinic
_cell_length_a                    15.003234
_cell_length_b                    14.154112
_cell_length_c                    19.11849
_cell_angle_alpha                 90.065872
_cell_angle_beta                  90.095232
_cell_angle_gamma                 89.960735
_cell_volume                      4059.94462908

loop_
_atom_site_label
_atom_site_type_symbol
_atom_type_description
_atom_site_fract_x
_atom_site_fract_y
_atom_site_fract_z
_atom_type_partial_charge
Br1   Br    Br    0.324563 0.389320 0.682130 -0.509275
Br2   Br    Br    0.647525 0.616588 0.284908 -0.515661
Br3   Br    Br    0.327152 0.385037 0.316213 -0.563110
Br4   Br    Br    0.649602 0.612783 0.716123 -0.535272
C1    C     C_R   0.327696 0.500010 0.500422 0.919352
C2    C     C_R   0.951746 0.500590 0.507975 0.108658
C3    C     C_R   0.428681 0.105186 0.471025 -0.263947
C4    C     C_R   0.540980 0.894846 0.554206 -0.262941
C5    C     C_R   0.571269 0.105172 0.529036 -0.262175
C6    C     C_R   0.459060 0.894742 0.445775 -0.262308
C7    C     C_R   0.430148 0.204491 0.471392 0.068336
C8    C     C_R   0.540440 0.795541 0.553068 0.036277
C9    C     C_R   0.569797 0.204480 0.528684 0.037787
C10   C     C_R   0.459611 0.795431 0.446903 0.044902
C11   C     C_R   0.499987 0.053343 0.500014 0.134034
C12   C     C_R   0.672231 0.499980 0.500334 0.901411
C13   C     C_R   0.500004 0.946630 0.500000 0.131206
C14   C     C_R   0.498772 0.499993 0.365629 0.965924
C15   C     C_R   0.498777 0.500087 0.634343 0.963019
C16   C     C_R   0.410392 0.456532 0.737955 0.227708
C17   C     C_R   0.543570 0.554354 0.248315 0.225762
C18   C     C_R   0.411836 0.454577 0.261292 0.228056
C19   C     C_R   0.544133 0.553153 0.751988 0.219210
C20   C     C_R   0.394065 0.464127 0.809146 -0.189248
C21   C     C_R   0.526553 0.561104 0.177109 -0.181769
C22   C     C_R   0.395570 0.462186 0.190077 -0.183650
C23   C     C_R   0.186775 0.580561 0.526206 -0.175498
C24   C     C_R   0.526924 0.560129 0.823110 -0.177587
C25   C     C_R   0.451941 0.515919 0.851775 -0.002773
C26   C     C_R   0.452540 0.515390 0.147890 -0.003637
C27   C     C_R   0.485821 0.501128 0.709194 -0.168935
C28   C     C_R   0.486170 0.500838 0.290657 -0.170386
C29   C     C_R   0.447794 0.603986 0.963666 -0.172425
C30   C     C_R   0.422863 0.434272 0.035862 -0.166861
C31   C     C_R   0.447990 0.603843 0.036230 -0.172757
C32   C     C_R   0.422556 0.434443 0.963383 -0.166932
C33   C     C_R   0.438343 0.518487 0.072488 0.137988
C34   C     C_R   0.812883 0.422104 0.530602 -0.172357
C35   C     C_R   0.437828 0.518799 0.927111 0.137307
C36   C     C_R   0.094842 0.580163 0.529221 -0.158975
C37   C     C_R   0.904826 0.422663 0.533699 -0.155788
C38   C     C_R   0.906645 0.578507 0.480021 -0.160879
C39   C     C_R   0.093170 0.418723 0.485325 -0.157944
C40   C     C_R   0.814681 0.578471 0.477740 -0.141684
C41   C     C_R   0.185111 0.418675 0.483152 -0.115702
C42   C     C_R   0.231898 0.499900 0.502964 -0.010327
C43   C     C_R   0.767913 0.500014 0.502614 -0.019344
C44   C     C_R   0.047999 0.499532 0.508212 0.107338
H1    H     H_    0.060310 0.642508 0.547894 0.142177
H2    H     H_    0.572153 0.600473 0.144340 0.175917
H3    H     H_    0.337887 0.427351 0.167693 0.176046
H4    H     H_    0.573141 0.598357 0.856276 0.176078
H5    H     H_    0.458370 0.669823 0.936060 0.147224
H6    H     H_    0.416164 0.367632 0.063158 0.147325
H7    H     H_    0.458595 0.669615 0.064047 0.146781
H8    H     H_    0.415621 0.367962 0.935777 0.147571
H9    H     H_    0.371311 0.069595 0.449020 0.143389
H10   H     H_    0.572260 0.930482 0.597900 0.149321
H11   H     H_    0.628624 0.069566 0.551064 0.141310
H12   H     H_    0.939291 0.362632 0.556194 0.141885
H13   H     H_    0.427794 0.930302 0.402081 0.145138
H14   H     H_    0.374990 0.243233 0.448900 0.154716
H15   H     H_    0.572257 0.756779 0.594945 0.170262
H16   H     H_    0.624891 0.243230 0.551279 0.124468
H17   H     H_    0.427839 0.756568 0.404993 0.138817
H18   H     H_    0.942541 0.638425 0.458947 0.142652
H19   H     H_    0.057344 0.356497 0.468000 0.140796
H20   H     H_    0.222437 0.643339 0.542627 0.161455
H21   H     H_    0.777031 0.361587 0.550792 0.148735
H22   H     H_    0.780285 0.638795 0.455587 0.177750
H23   H     H_    0.219396 0.355906 0.464992 0.172213
H24   H     H_    0.335723 0.430381 0.831183 0.175511
N1    N     N_R   0.500000 0.252470 0.500000 -0.095199
N2    N     N_R   0.500000 0.747530 0.500000 -0.101938
O1    O     O_R   0.369060 0.579480 0.500010 -0.638813
O2    O     O_R   0.630940 0.420520 0.499990 -0.642486
O3    O     O_R   0.630940 0.579480 0.499990 -0.602648
O4    O     O_R   0.369060 0.420520 0.500010 -0.602789
O5    O     O_R   0.500020 0.579510 0.398180 -0.604497
O6    O     O_R   0.499980 0.420490 0.601820 -0.590558
O7    O     O_R   0.499980 0.579510 0.601820 -0.608054
O8    O     O_R   0.500020 0.420490 0.398180 -0.588955
Zn1   Zn    Zn3+2 0.500000 0.606140 0.500000 0.991340
Zn2   Zn    Zn3+2 0.500000 0.393860 0.500000 1.002932

loop_
_geom_bond_atom_site_label_1
_geom_bond_atom_site_label_2
_ccdc_geom_bond_type
C8    N2    A    
C41   H23   S    
C30   C33   A    
N2    Zn1   S    
O6    Zn2   S    
C7    H14   S    
C15   C27   S    
O2    Zn2   S    
C41   C42   A    
C3    C7    A    
C29   C35   A    
C18   C28   A    
C10   N2    A    
C24   C25   A    
C31   C33   A    
C29   C31   A    
O3    Zn1   S    
C6    C13   A    
C36   H1    S    
C36   C44   A    
C12   O3    A    
C5    C9    A    
C20   C25   A    
C23   H20   S    
C4    H10   S    
C21   H2    S    
C16   C20   A    
C14   O5    A    
C2    C37   A    
C40   H22   S    
C39   C44   A    
N1    Zn2   S    
C40   C43   A    
C3    C11   A    
C34   H21   S    
C38   C40   A    
C12   C43   S    
O7    Zn1   S    
C29   H5    S    
C17   C28   A    
C31   H7    S    
C34   C37   A    
C7    N1    A    
Br4   C19   S    
C26   C33   S    
C5    H11   S    
C19   C27   A    
C1    O1    A    
C32   H8    S    
C23   C36   A    
C4    C8    A    
C25   C35   S    
Br2   C17   S    
C19   C24   A    
C39   C41   A    
C34   C43   A    
C2    C44   S    
C23   C42   A    
C9    N1    A    
C30   H6    S    
O8    Zn2   S    
C6    C10   A    
C6    H13   S    
C14   C28   S    
C20   H24   S    
C21   C26   A    
C11   C13   S    
C17   C21   A    
Br1   C16   S    
C12   O2    A    
C32   C35   A    
C37   H12   S    
C22   C26   A    
C1    C42   S    
C4    C13   A    
C5    C11   A    
C15   O7    A    
C22   H3    S    
O5    Zn1   S    
C24   H4    S    
O1    Zn1   S    
C9    H16   S    
C14   O8    A    
C10   H17   S    
C30   C32   A    
C15   O6    A    
C18   C22   A    
O4    Zn2   S    
C39   H19   S    
C2    C38   A    
C38   H18   S    
Br3   C18   S    
C1    O4    A    
C8    H15   S    
C3    H9    S    
C16   C27   A    
