data_mof_unit_52526.cif
_audit_creation_date              2012-12-11T14:19:27-0500
_audit_creation_method            fapswitch 2.2
_symmetry_space_group_name_H-M    P1
_symmetry_Int_Tables_number       1
_space_group_crystal_system       triclinic
_cell_length_a                    19.508773
_cell_length_b                    7.228187
_cell_length_c                    17.776123
_cell_angle_alpha                 90.26069
_cell_angle_beta                  107.585667
_cell_angle_gamma                 89.604563
_cell_volume                      2389.45478372

loop_
_atom_site_label
_atom_site_type_symbol
_atom_type_description
_atom_site_fract_x
_atom_site_fract_y
_atom_site_fract_z
_atom_type_partial_charge
O1    O     O_R   0.414820 0.494320 0.416790 -0.543273
O2    O     O_R   0.585180 0.994320 0.583210 -0.548725
O3    O     O_R   0.560270 0.819500 0.430140 -0.526445
O4    O     O_R   0.439730 0.319500 0.569860 -0.518072
C1    C     C_R   0.581224 0.654655 0.414964 0.818962
C2    C     C_R   0.418287 0.156125 0.584470 0.826775
O5    O     O_R   0.413840 0.823740 0.407440 -0.526305
O6    O     O_R   0.586160 0.323740 0.592560 -0.520349
O7    O     O_R   0.437710 0.998590 0.560350 -0.527083
O8    O     O_R   0.562290 0.498590 0.439650 -0.519030
C3    C     C_R   0.388911 0.655016 0.384219 0.746605
C4    C     C_R   0.611062 0.154625 0.616024 0.754384
O9    O     O_3   0.508000 0.662290 0.550200 -0.372554
O10   O     O_3   0.492000 0.162290 0.449800 -0.377619
V1    V     V_3+5 0.498520 0.935380 0.490690 1.647241
V2    V     V_3+5 0.501480 0.435380 0.509310 1.667801
C5    C     C_2   0.777461 0.253968 0.794774 0.288967
C6    C     C_2   0.219835 0.757184 0.209413 0.297281
C7    C     C_2   0.828546 0.118803 0.810075 0.171187
C8    C     C_2   0.171359 0.617040 0.190589 0.166723
C9    C     C_2   0.721579 0.270087 0.716644 0.225487
C10   C     C_2   0.275823 0.767841 0.287670 0.224143
C11   C     C_2   0.670404 0.138980 0.691409 0.068118
C12   C     C_2   0.329618 0.641145 0.309056 0.089288
C13   C     C_R   0.307992 0.267701 0.616746 0.369964
C14   C     C_R   0.689062 0.521585 0.383319 0.366985
C15   C     C_R   0.368269 0.148855 0.633120 -0.240342
C16   C     C_R   0.630003 0.644824 0.364865 -0.247622
C17   C     C_R   0.380838 0.021695 0.695449 0.385904
C18   C     C_R   0.617746 0.761643 0.299007 0.381401
C19   C     C_R   0.328611 0.996135 0.735317 -0.064390
C20   C     C_R   0.670363 0.777159 0.259111 -0.069806
C21   C     C_R   0.273118 0.130324 0.725737 -0.145257
C22   C     C_R   0.724874 0.639568 0.271737 -0.137771
C23   C     C_R   0.264341 0.272447 0.668156 0.033741
C24   C     C_R   0.731965 0.503997 0.331593 0.034232
C25   C     C_R   0.329859 0.840994 0.784079 0.408678
C26   C     C_R   0.670711 0.926160 0.207824 0.405440
C27   C     C_R   0.284027 0.832831 0.831799 0.093871
C28   C     C_R   0.717631 0.925061 0.161194 0.094489
C29   C     C_R   0.232902 0.976047 0.829064 0.030388
C30   C     C_R   0.767591 0.777426 0.166908 0.030169
C31   C     C_R   0.226472 0.122504 0.773755 -0.007779
C32   C     C_R   0.772168 0.637185 0.224475 -0.002886
C33   C     C_R   0.173724 0.262749 0.766910 0.054723
C34   C     C_R   0.823750 0.492978 0.234456 0.049465
C35   C     C_R   0.167656 0.408627 0.712657 0.104920
C36   C     C_R   0.827333 0.351744 0.290191 0.109870
C37   C     C_R   0.212505 0.414141 0.664071 0.268322
C38   C     C_R   0.781690 0.356246 0.337863 0.275714
C39   C     C_R   0.186544 0.976659 0.878207 0.188051
C40   C     C_R   0.814388 0.766045 0.118390 0.190379
C41   C     C_R   0.133367 0.115121 0.869224 -0.073295
C42   C     C_R   0.866729 0.624282 0.130797 -0.071493
C43   C     C_R   0.128117 0.256511 0.814778 -0.254656
C44   C     C_R   0.870412 0.490008 0.187899 -0.251870
H1    H     H_    0.086928 0.360779 0.809653 0.141402
H2    H     H_    0.910883 0.382778 0.195775 0.148332
O11   O     O_R   0.937810 0.773680 0.060480 -0.529794
O12   O     O_R   0.062190 0.273680 0.939520 -0.551697
O13   O     O_R   0.086190 0.439740 0.092580 -0.510860
O14   O     O_R   0.913810 0.939740 0.907420 -0.509342
C45   C     C_R   0.111514 0.608634 0.115649 0.724468
C46   C     C_R   0.888421 0.108916 0.884622 0.732285
O15   O     O_R   0.939760 0.444210 0.069890 -0.547290
O16   O     O_R   0.060240 0.944210 0.930110 -0.526130
O17   O     O_R   0.914790 0.269640 0.916760 -0.529508
O18   O     O_R   0.085210 0.769640 0.083240 -0.522705
C47   C     C_R   0.917972 0.613240 0.083490 0.758966
C48   C     C_R   0.081989 0.111392 0.916430 0.759860
O19   O     O_3   0.992050 0.601530 0.949880 -0.378891
O20   O     O_3   0.007950 0.101530 0.050120 -0.374982
V3    V     V_3+5 0.001480 0.328340 0.009300 1.578916
V4    V     V_3+5 0.998520 0.828340 0.990700 1.603410
Cl1   Cl    Cl    0.772408 0.419482 0.866472 -0.608503
Cl2   Cl    Cl    0.221478 0.936973 0.142946 -0.600653
N1    N     N_3   0.116784 0.556934 0.706390 -0.677158
H3    H     H_    0.064836 0.502510 0.689738 0.254614
H4    H     H_    0.127311 0.622784 0.761168 0.239342
N2    N     N_3   0.876344 0.198267 0.298906 -0.681180
H5    H     H_    0.865851 0.129047 0.244862 0.239079
H6    H     H_    0.929013 0.247973 0.316113 0.255174
N3    N     N_3   0.207770 0.572174 0.614134 -0.547063
H7    H     H_    0.217499 0.691542 0.649104 0.248801
H8    H     H_    0.155567 0.580259 0.575176 0.271399
N4    N     N_3   0.783043 0.201966 0.388855 -0.548228
H9    H     H_    0.834804 0.189578 0.428495 0.272655
H10   H     H_    0.771569 0.081386 0.354752 0.250420
Cl3   Cl    Cl    0.831422 0.955422 0.736537 -0.624917
Cl4   Cl    Cl    0.172234 0.441964 0.260338 -0.605676
N5    N     N_3   0.722198 0.429983 0.669354 -0.597472
H11   H     H_    0.772615 0.435891 0.660224 0.283113
H12   H     H_    0.716939 0.547156 0.701803 0.271320
N6    N     N_3   0.272665 0.918263 0.339567 -0.629737
H13   H     H_    0.222580 0.914126 0.349571 0.265679
H14   H     H_    0.275359 0.042173 0.310551 0.287351
N7    N     N_3   0.671002 0.981913 0.740965 -0.608629
H15   H     H_    0.622403 0.981003 0.754283 0.281784
H16   H     H_    0.673589 0.861731 0.709059 0.272906
N8    N     N_3   0.332058 0.492579 0.255829 -0.607839
H17   H     H_    0.381006 0.500256 0.243342 0.257273
H18   H     H_    0.331282 0.367180 0.284610 0.278122
Cl5   Cl    Cl    0.285074 0.393646 0.526786 -0.574530
Cl6   Cl    Cl    0.712671 0.408065 0.476123 -0.595529
Cl7   Cl    Cl    0.468481 0.924742 0.731506 -0.554459
Cl8   Cl    Cl    0.530022 0.856335 0.258947 -0.526944
Cl9   Cl    Cl    0.379474 0.637398 0.777948 -0.559371
Cl10  Cl    Cl    0.621806 0.133621 0.209428 -0.562855
N9    N     N_3   0.289019 0.674762 0.881776 -0.667391
H19   H     H_    0.341642 0.663656 0.919504 0.300097
H20   H     H_    0.276459 0.555485 0.847049 0.271263
N10   N     N_3   0.715318 0.078749 0.109642 -0.661880
H21   H     H_    0.728687 0.199716 0.143135 0.272815
H22   H     H_    0.663215 0.091830 0.070844 0.301779
N11   N     N_3   0.194006 0.845007 0.940490 -0.607208
H23   H     H_    0.246369 0.847904 0.979155 0.302276
H24   H     H_    0.179459 0.713340 0.916762 0.252383
N12   N     N_3   0.807733 0.888748 0.053201 -0.620939
H25   H     H_    0.823465 0.022115 0.073954 0.258571
H26   H     H_    0.755262 0.885623 0.014777 0.290457

loop_
_geom_bond_atom_site_label_1
_geom_bond_atom_site_label_2
_ccdc_geom_bond_type
C18   C20   A    
C15   C17   A    
C10   N6    S    
O12   V3    S    
C41   C43   A    
O1    C3    A    
O2    C4    A    
C2    O7    A    
N10   H22   S    
N7    H15   S    
O3    V1    S    
C35   C37   A    
N1    H3    S    
C36   C38   A    
O5    C3    A    
C4    C11   S    
C25   Cl9   S    
N9    H20   S    
N4    H10   S    
O18   V4    S    
N11   H23   S    
O16   V4    S    
C3    C12   S    
O15   V3    S    
C33   C35   A    
O13   C45   A    
N12   H25   S    
O14   C46   A    
C14   Cl6   S    
N3    H7    S    
C40   C42   A    
N11   H24   S    
C23   C37   A    
C19   C21   A    
O17   V3    S    
C20   C26   A    
C22   C24   A    
O20   V3    S    
C28   C30   A    
O6    V2    S    
C12   N8    S    
C18   Cl8   S    
C29   C31   A    
C17   Cl7   S    
C30   C32   A    
C41   C48   S    
N10   H21   S    
N7    H16   S    
C32   C34   A    
C27   N9    S    
C34   C36   A    
N1    H4    S    
C42   C44   A    
C21   C31   A    
C46   O17   A    
C22   C32   A    
C27   C29   A    
N5    H11   S    
N4    H9    S    
C13   Cl5   S    
O13   V3    S    
C8    Cl4   S    
C5    C9    S    
C19   C25   A    
C39   C41   A    
C20   C22   A    
O4    V2    S    
C7    Cl3   S    
N5    H12   S    
C1    C16   S    
C2    C15   S    
O12   C48   A    
C7    C46   S    
O6    C4    A    
N8    H18   S    
O1    V2    S    
N6    H14   S    
O2    V1    S    
C31   C33   A    
O11   V4    S    
O11   C47   A    
N12   H26   S    
N2    H6    S    
N3    H8    S    
C13   C23   A    
C43   H1    S    
C10   C12   D    
O4    C2    A    
C35   N1    S    
C5    C7    D    
C24   C38   A    
C9    N5    S    
C14   C24   A    
C45   O18   A    
C6    Cl2   S    
C11   N7    S    
C6    C10   S    
N2    H5    S    
O3    C1    A    
O19   V4    S    
C13   C15   A    
C14   C16   A    
C36   N2    S    
C8    C45   S    
C9    C11   D    
O7    V1    S    
C16   C18   A    
C17   C19   A    
O8    V2    S    
N9    H19   S    
C26   C28   A    
C28   N10   S    
C37   N3    S    
O16   C48   A    
C42   C47   S    
O15   C47   A    
O5    V1    S    
N8    H17   S    
C21   C23   A    
C44   H2    S    
C6    C8    D    
C26   Cl10  S    
N6    H13   S    
C39   N11   S    
C38   N4    S    
C1    O8    A    
C33   C43   A    
C25   C27   A    
O9    V2    S    
C34   C44   A    
C5    Cl1   S    
O10   V1    S    
O14   V4    S    
C29   C39   A    
C30   C40   A    
C40   N12   S    
