data_mof_unit_65083.cif
_audit_creation_date              2012-12-10T19:53:24-0500
_audit_creation_method            fapswitch 2.2
_symmetry_space_group_name_H-M    P1
_symmetry_Int_Tables_number       1
_space_group_crystal_system       triclinic
_cell_length_a                    18.392481
_cell_length_b                    18.392678
_cell_length_c                    42.954183
_cell_angle_alpha                 90.000199
_cell_angle_beta                  90.000195
_cell_angle_gamma                 89.997102
_cell_volume                      14530.8408548

loop_
_atom_site_label
_atom_site_type_symbol
_atom_type_description
_atom_site_fract_x
_atom_site_fract_y
_atom_site_fract_z
_atom_type_partial_charge
C1    C     C_R   1.000000 0.500000 0.915817 0.818011
C2    C     C_R   0.500000 1.000000 0.915817 0.817973
C3    C     C_R   0.500000 1.000000 0.415816 0.818590
C4    C     C_R   1.000000 0.500000 0.415816 0.818478
C5    C     C_R   0.000000 0.500000 0.184156 -0.064220
C6    C     C_R   0.500000 0.000001 0.184161 -0.064219
C7    C     C_R   0.500000 0.000000 0.684157 -0.063009
C8    C     C_R   0.000000 0.500000 0.684156 -0.062980
C9    C     C_R   0.000000 0.500000 0.118488 -0.203101
C10   C     C_R   0.500000 0.000000 0.118494 -0.203360
C11   C     C_R   0.500000 0.000000 0.618485 -0.200135
C12   C     C_R   0.000000 0.500000 0.618487 -0.200285
C13   C     C_R   0.500000 1.000000 0.781687 0.301545
C14   C     C_R   1.000000 0.500000 0.781681 0.301592
C15   C     C_R   0.999999 0.500000 0.281677 0.301183
C16   C     C_R   0.500000 1.000000 0.281676 0.301217
C17   C     C_R   0.000000 0.500000 0.218495 0.349080
C18   C     C_R   0.500000 0.000000 0.218495 0.348998
C19   C     C_R   0.500000 0.000000 0.718502 0.350056
C20   C     C_R   1.000000 0.500000 0.718497 0.349950
C21   C     C_R   0.486992 0.064577 0.832568 -0.127785
C22   C     C_R   0.935347 0.487372 0.832566 -0.127813
C23   C     C_R   0.513008 0.935422 0.832568 -0.127785
C24   C     C_R   0.064652 0.512629 0.832566 -0.127813
C25   C     C_R   0.987643 0.564704 0.332564 -0.127908
C26   C     C_R   0.435219 0.011959 0.332565 -0.127945
C27   C     C_R   0.012355 0.435295 0.332564 -0.127908
C28   C     C_R   0.564780 0.988040 0.332565 -0.127945
C29   C     C_R   0.487364 0.064651 0.865033 -0.118537
C30   C     C_R   0.935277 0.487734 0.865030 -0.118531
C31   C     C_R   0.512636 0.935348 0.865033 -0.118538
C32   C     C_R   0.064722 0.512266 0.865031 -0.118530
C33   C     C_R   0.987998 0.564771 0.365028 -0.118239
C34   C     C_R   0.435157 0.011617 0.365028 -0.118206
C35   C     C_R   0.012002 0.435229 0.365028 -0.118240
C36   C     C_R   0.564842 0.988382 0.365029 -0.118204
C37   C     C_R   0.500000 1.000000 0.881547 -0.043038
C38   C     C_R   1.000000 0.500000 0.881545 -0.042898
C39   C     C_R   1.000000 0.500000 0.381543 -0.043192
C40   C     C_R   0.500000 1.000000 0.381544 -0.043301
C41   C     C_R   0.500000 1.000000 0.816018 0.055771
C42   C     C_R   1.000000 0.500000 0.816014 0.055847
C43   C     C_R   0.999999 0.499999 0.316012 0.055809
C44   C     C_R   0.500000 1.000000 0.316012 0.055786
C45   C     C_R   0.000000 0.500000 0.084154 0.896324
C46   C     C_R   0.500000 0.000000 0.084156 0.895891
C47   C     C_R   0.500000 0.000000 0.584153 0.897794
C48   C     C_R   0.000000 0.500000 0.584154 0.897651
C49   C     C_R   0.860145 0.640030 0.999957 0.830457
C50   C     C_R   0.359936 0.860176 0.999934 0.817074
C51   C     C_R   0.139855 0.359970 0.999957 0.830455
C52   C     C_R   0.640064 0.139824 0.999934 0.817073
C53   C     C_R   0.139821 0.640065 0.999933 0.816812
C54   C     C_R   0.640031 0.860148 0.999957 0.830059
C55   C     C_R   0.860178 0.359935 0.999933 0.816812
C56   C     C_R   0.359969 0.139852 0.999957 0.830057
C57   C     C_R   0.360157 0.140039 0.499951 0.829086
C58   C     C_R   0.859959 0.360156 0.499950 0.828936
C59   C     C_R   0.639843 0.859961 0.499951 0.829084
C60   C     C_R   0.140041 0.639844 0.499950 0.828935
C61   C     C_R   0.639837 0.140051 0.499944 0.819095
C62   C     C_R   0.140050 0.360164 0.499945 0.819210
C63   C     C_R   0.360163 0.859948 0.499943 0.819095
C64   C     C_R   0.859950 0.639836 0.499945 0.819207
C65   C     C_R   0.254928 0.693140 0.980470 -0.011599
C66   C     C_R   0.306633 0.254701 0.980357 -0.014347
C67   C     C_R   0.745071 0.306859 0.980470 -0.011600
C68   C     C_R   0.693366 0.745298 0.980357 -0.014347
C69   C     C_R   0.745286 0.693369 0.980358 -0.015038
C70   C     C_R   0.693142 0.254939 0.980471 -0.012202
C71   C     C_R   0.254713 0.306630 0.980358 -0.015040
C72   C     C_R   0.306858 0.745060 0.980471 -0.012204
C73   C     C_R   0.754920 0.193161 0.480471 -0.011447
C74   C     C_R   0.806482 0.754561 0.480264 -0.012399
C75   C     C_R   0.245079 0.806838 0.480471 -0.011449
C76   C     C_R   0.193517 0.245439 0.480264 -0.012397
C77   C     C_R   0.245438 0.193508 0.480267 -0.015039
C78   C     C_R   0.193151 0.754919 0.480474 -0.014070
C79   C     C_R   0.754562 0.806491 0.480267 -0.015040
C80   C     C_R   0.806848 0.245080 0.480474 -0.014072
C81   C     C_R   0.194191 0.696847 0.999610 -0.051289
C82   C     C_R   0.303341 0.194377 0.999746 -0.055934
C83   C     C_R   0.805809 0.303153 0.999610 -0.051288
C84   C     C_R   0.696659 0.805622 0.999746 -0.055935
C85   C     C_R   0.805616 0.696658 0.999747 -0.056138
C86   C     C_R   0.696845 0.194198 0.999611 -0.051509
C87   C     C_R   0.194385 0.303343 0.999747 -0.056136
C88   C     C_R   0.303155 0.805802 0.999610 -0.051508
C89   C     C_R   0.694279 0.196767 0.499671 -0.053075
C90   C     C_R   0.803296 0.694341 0.499718 -0.052338
C91   C     C_R   0.305721 0.803234 0.499671 -0.053075
C92   C     C_R   0.196704 0.305659 0.499717 -0.052340
C93   C     C_R   0.305651 0.196687 0.499726 -0.054144
C94   C     C_R   0.196750 0.694287 0.499680 -0.054742
C95   C     C_R   0.694349 0.803313 0.499726 -0.054143
C96   C     C_R   0.803250 0.305713 0.499680 -0.054742
C97   C     C_R   0.187315 0.758669 0.018892 -0.187282
C98   C     C_R   0.242092 0.188076 0.019397 -0.165829
C99   C     C_R   0.812685 0.241332 0.018892 -0.187281
C100  C     C_R   0.757909 0.811925 0.019397 -0.165830
C101  C     C_R   0.811923 0.757907 0.019397 -0.165721
C102  C     C_R   0.758669 0.187319 0.018892 -0.187194
C103  C     C_R   0.188078 0.242094 0.019397 -0.165720
C104  C     C_R   0.241332 0.812681 0.018892 -0.187192
C105  C     C_R   0.687578 0.258413 0.519069 -0.184927
C106  C     C_R   0.742132 0.688125 0.519421 -0.185298
C107  C     C_R   0.312422 0.741587 0.519069 -0.184925
C108  C     C_R   0.257869 0.311876 0.519421 -0.185298
C109  C     C_R   0.311872 0.257848 0.519429 -0.167274
C110  C     C_R   0.258396 0.687583 0.519077 -0.167093
C111  C     C_R   0.688129 0.742152 0.519429 -0.167274
C112  C     C_R   0.741605 0.312417 0.519077 -0.167091
C113  C     C_3   0.354278 0.705333 0.958036 0.215452
C114  C     C_3   0.293609 0.353224 0.957349 0.217098
C115  C     C_3   0.645721 0.294666 0.958036 0.215452
C116  C     C_3   0.706390 0.646775 0.957349 0.217098
C117  C     C_3   0.646758 0.706425 0.957348 0.216736
C118  C     C_3   0.705368 0.354293 0.958035 0.215109
C119  C     C_3   0.353241 0.293573 0.957348 0.216737
C120  C     C_3   0.294631 0.645706 0.958035 0.215111
C121  C     C_3   0.854028 0.205614 0.457867 0.214600
C122  C     C_3   0.793267 0.852914 0.457140 0.217367
C123  C     C_3   0.145971 0.794385 0.457867 0.214599
C124  C     C_3   0.206732 0.147085 0.457140 0.217367
C125  C     C_3   0.147093 0.206732 0.457137 0.217424
C126  C     C_3   0.205613 0.854018 0.457864 0.214630
C127  C     C_3   0.852905 0.793266 0.457136 0.217424
C128  C     C_3   0.794385 0.145982 0.457864 0.214629
C129  C     C_R   0.957418 0.550768 0.135165 0.346695
C130  C     C_R   0.448999 0.042305 0.135175 0.346895
C131  C     C_R   0.042582 0.449233 0.135165 0.346696
C132  C     C_R   0.551002 0.957696 0.135175 0.346895
C133  C     C_R   0.457270 0.050638 0.635161 0.348033
C134  C     C_R   0.949307 0.457339 0.635164 0.348070
C135  C     C_R   0.542731 0.949362 0.635161 0.348033
C136  C     C_R   0.050694 0.542660 0.635164 0.348070
C137  C     C_R   0.958070 0.550640 0.167656 -0.179333
C138  C     C_R   0.449123 0.041639 0.167666 -0.179413
C139  C     C_R   0.041931 0.449360 0.167656 -0.179334
C140  C     C_R   0.550878 0.958363 0.167666 -0.179413
C141  C     C_R   0.457896 0.050496 0.667653 -0.178358
C142  C     C_R   0.949447 0.457971 0.667656 -0.178391
C143  C     C_R   0.542105 0.949505 0.667653 -0.178358
C144  C     C_R   0.050553 0.542028 0.667656 -0.178390
H1    H     H_    0.140895 0.765177 0.034150 0.184128
H2    H     H_    0.236003 0.142072 0.034916 0.193272
H3    H     H_    0.859106 0.234824 0.034149 0.184129
H4    H     H_    0.763998 0.857929 0.034915 0.193272
H5    H     H_    0.857928 0.763994 0.034915 0.193215
H6    H     H_    0.765175 0.140898 0.034149 0.184154
H7    H     H_    0.142073 0.236006 0.034915 0.193215
H8    H     H_    0.234826 0.859103 0.034149 0.184154
H9    H     H_    0.641272 0.264807 0.534399 0.185695
H10   H     H_    0.736105 0.642187 0.534979 0.185810
H11   H     H_    0.358729 0.735194 0.534399 0.185696
H12   H     H_    0.263896 0.357814 0.534979 0.185810
H13   H     H_    0.357798 0.263859 0.534996 0.192113
H14   H     H_    0.264773 0.641289 0.534415 0.191706
H15   H     H_    0.642203 0.736142 0.534997 0.192114
H16   H     H_    0.735228 0.358711 0.534416 0.191707
H17   H     H_    0.406237 0.687513 0.968829 0.072251
H18   H     H_    0.311793 0.405569 0.967674 0.075285
H19   H     H_    0.593762 0.312486 0.968829 0.072251
H20   H     H_    0.688206 0.594430 0.967674 0.075285
H21   H     H_    0.594406 0.688260 0.967673 0.076037
H22   H     H_    0.687566 0.406258 0.968828 0.073032
H23   H     H_    0.405593 0.311739 0.967673 0.076037
H24   H     H_    0.312433 0.593741 0.968827 0.073032
H25   H     H_    0.906104 0.187689 0.468518 0.073837
H26   H     H_    0.811523 0.905339 0.467364 0.075505
H27   H     H_    0.093894 0.812310 0.468518 0.073836
H28   H     H_    0.188476 0.094660 0.467365 0.075504
H29   H     H_    0.094662 0.188489 0.467360 0.075013
H30   H     H_    0.187699 0.906099 0.468514 0.073333
H31   H     H_    0.905336 0.811510 0.467359 0.075015
H32   H     H_    0.812299 0.093900 0.468514 0.073334
H33   H     H_    0.924651 0.589655 0.179995 0.202182
H34   H     H_    0.409931 0.074835 0.180009 0.202151
H35   H     H_    0.075350 0.410346 0.179994 0.202181
H36   H     H_    0.590070 0.925166 0.180009 0.202151
H37   H     H_    0.424358 0.089411 0.679984 0.201221
H38   H     H_    0.910502 0.424482 0.679992 0.201158
H39   H     H_    0.575642 0.910589 0.679984 0.201221
H40   H     H_    0.089499 0.575517 0.679992 0.201158
H41   H     H_    0.477061 0.115252 0.820460 0.176478
H42   H     H_    0.884612 0.477732 0.820460 0.176459
H43   H     H_    0.522939 0.884747 0.820460 0.176478
H44   H     H_    0.115387 0.522269 0.820461 0.176459
H45   H     H_    0.978216 0.615480 0.320460 0.176460
H46   H     H_    0.384383 0.021083 0.320463 0.176508
H47   H     H_    0.021782 0.384519 0.320459 0.176459
H48   H     H_    0.615616 0.978916 0.320464 0.176509
H49   H     H_    0.477316 0.115268 0.877185 0.211190
H50   H     H_    0.884600 0.477979 0.877180 0.211031
H51   H     H_    0.522684 0.884731 0.877184 0.211190
H52   H     H_    0.115399 0.522021 0.877180 0.211032
H53   H     H_    0.978453 0.615488 0.377177 0.211237
H54   H     H_    0.384380 0.020858 0.377176 0.211299
H55   H     H_    0.021546 0.384512 0.377177 0.211237
H56   H     H_    0.615619 0.979141 0.377176 0.211299
N1    N     N_R   0.026225 0.442170 0.234599 -0.151067
N2    N     N_R   0.558181 0.974554 0.234599 -0.150982
N3    N     N_R   0.973774 0.557829 0.234600 -0.151067
N4    N     N_R   0.441819 0.025447 0.234598 -0.150981
N5    N     N_R   0.527377 0.942702 0.734610 -0.151287
N6    N     N_R   0.057610 0.526710 0.734604 -0.151179
N7    N     N_R   0.472623 0.057298 0.734610 -0.151287
N8    N     N_R   0.942390 0.473290 0.734604 -0.151179
N9    N     N_R   0.527235 0.942633 0.765583 -0.153402
N10   N     N_R   0.057677 0.526566 0.765577 -0.153482
N11   N     N_R   0.472765 0.057367 0.765583 -0.153402
N12   N     N_R   0.942323 0.473435 0.765577 -0.153482
N13   N     N_R   0.026079 0.442105 0.265573 -0.153507
N14   N     N_R   0.558244 0.974700 0.265571 -0.153569
N15   N     N_R   0.973920 0.557895 0.265573 -0.153507
N16   N     N_R   0.441756 0.025299 0.265571 -0.153569
O1    O     O_3   0.000000 0.500000 0.999980 -0.521288
O2    O     O_3   0.500000 0.000000 0.999980 -0.521315
O3    O     O_3   0.500000 0.000000 0.499980 -0.521517
O4    O     O_3   0.000000 0.500000 0.499980 -0.521530
O5    O     O_R   0.060770 0.500000 0.930670 -0.608743
O6    O     O_R   0.500000 0.060770 0.930670 -0.608693
O7    O     O_R   0.939230 0.500000 0.930670 -0.608745
O8    O     O_R   0.500000 0.939230 0.930670 -0.608695
O9    O     O_R   0.560770 0.000000 0.430670 -0.608865
O10   O     O_R   0.000000 0.560770 0.430670 -0.608807
O11   O     O_R   0.439230 0.000000 0.430670 -0.608866
O12   O     O_R   0.000000 0.439230 0.430670 -0.608808
O13   O     O_R   0.000000 0.560690 0.069300 -0.600457
O14   O     O_R   0.439310 0.000000 0.069300 -0.600306
O15   O     O_R   0.000000 0.439310 0.069300 -0.600456
O16   O     O_R   0.560690 0.000000 0.069300 -0.600306
O17   O     O_R   0.500000 0.060690 0.569300 -0.599962
O18   O     O_R   0.939310 0.500000 0.569300 -0.599932
O19   O     O_R   0.500000 0.939310 0.569300 -0.599961
O20   O     O_R   0.060690 0.500000 0.569300 -0.599933
O21   O     O_R   0.853850 0.585430 0.981810 -0.615993
O22   O     O_R   0.414570 0.853850 0.981810 -0.612698
O23   O     O_R   0.146150 0.414570 0.981810 -0.615993
O24   O     O_R   0.585430 0.146150 0.981810 -0.612697
O25   O     O_R   0.146150 0.585430 0.981810 -0.613573
O26   O     O_R   0.585430 0.853850 0.981810 -0.616866
O27   O     O_R   0.853850 0.414570 0.981810 -0.613574
O28   O     O_R   0.414570 0.146150 0.981810 -0.616867
O29   O     O_R   0.353850 0.085430 0.481810 -0.616952
O30   O     O_R   0.914570 0.353850 0.481810 -0.615741
O31   O     O_R   0.646150 0.914570 0.481810 -0.616953
O32   O     O_R   0.085430 0.646150 0.481810 -0.615741
O33   O     O_R   0.646150 0.085430 0.481810 -0.613102
O34   O     O_R   0.085430 0.353850 0.481810 -0.614341
O35   O     O_R   0.353850 0.914570 0.481810 -0.613102
O36   O     O_R   0.914570 0.646150 0.481810 -0.614341
O37   O     O_R   0.085450 0.353830 0.018160 -0.635082
O38   O     O_R   0.646170 0.085450 0.018160 -0.652013
O39   O     O_R   0.914550 0.646170 0.018160 -0.635082
O40   O     O_R   0.353830 0.914550 0.018160 -0.652013
O41   O     O_R   0.914550 0.353830 0.018160 -0.651972
O42   O     O_R   0.353830 0.085450 0.018160 -0.634961
O43   O     O_R   0.085450 0.646170 0.018160 -0.651972
O44   O     O_R   0.646170 0.914550 0.018160 -0.634961
O45   O     O_R   0.585450 0.853830 0.518160 -0.635345
O46   O     O_R   0.146170 0.585450 0.518160 -0.635310
O47   O     O_R   0.414550 0.146170 0.518160 -0.635345
O48   O     O_R   0.853830 0.414550 0.518160 -0.635310
O49   O     O_R   0.414550 0.853830 0.518160 -0.651306
O50   O     O_R   0.853830 0.585450 0.518160 -0.651278
O51   O     O_R   0.585450 0.146170 0.518160 -0.651306
O52   O     O_R   0.146170 0.414550 0.518160 -0.651278
Zn1   Zn    Zn3+2 0.000000 0.586730 0.025950 1.020601
Zn2   Zn    Zn3+2 0.413270 0.000000 0.025950 1.020606
Zn3   Zn    Zn3+2 1.000000 0.413270 0.025950 1.020601
Zn4   Zn    Zn3+2 0.586730 0.000000 0.025950 1.020606
Zn5   Zn    Zn3+2 0.500000 0.086730 0.525950 1.021637
Zn6   Zn    Zn3+2 0.913270 0.500000 0.525950 1.021639
Zn7   Zn    Zn3+2 0.500000 0.913270 0.525950 1.021637
Zn8   Zn    Zn3+2 0.086730 0.500000 0.525950 1.021639
Zn9   Zn    Zn3+2 0.913260 0.500000 0.974020 1.048780
Zn10  Zn    Zn3+2 0.500000 0.913260 0.974020 1.048754
Zn11  Zn    Zn3+2 0.086740 0.500000 0.974020 1.048780
Zn12  Zn    Zn3+2 0.500000 0.086740 0.974020 1.048753
Zn13  Zn    Zn3+2 0.413260 0.000000 0.474020 1.048708
Zn14  Zn    Zn3+2 0.000000 0.413260 0.474020 1.048695
Zn15  Zn    Zn3+2 0.586740 0.000000 0.474020 1.048706
Zn16  Zn    Zn3+2 0.000000 0.586740 0.474020 1.048695
Cl1   Cl    Cl    0.365622 0.755101 0.922557 -0.441084
Cl2   Cl    Cl    0.242555 0.363280 0.922135 -0.442863
Cl3   Cl    Cl    0.634376 0.244897 0.922557 -0.441085
Cl4   Cl    Cl    0.757443 0.636717 0.922135 -0.442862
Cl5   Cl    Cl    0.636719 0.757496 0.922135 -0.455178
Cl6   Cl    Cl    0.755155 0.365618 0.922557 -0.453140
Cl7   Cl    Cl    0.363279 0.242502 0.922135 -0.455179
Cl8   Cl    Cl    0.244842 0.634381 0.922557 -0.453142
Cl9   Cl    Cl    0.864977 0.255779 0.422470 -0.442692
Cl10  Cl    Cl    0.741920 0.862696 0.421989 -0.455528
Cl11  Cl    Cl    0.135021 0.744220 0.422470 -0.442693
Cl12  Cl    Cl    0.258077 0.137300 0.421989 -0.455527
Cl13  Cl    Cl    0.137327 0.258068 0.421982 -0.455225
Cl14  Cl    Cl    0.255769 0.864953 0.422464 -0.442440
Cl15  Cl    Cl    0.862670 0.741929 0.421982 -0.455226
Cl16  Cl    Cl    0.744228 0.135047 0.422464 -0.442442
Cl17  Cl    Cl    0.899382 0.613468 0.116501 -0.565563
Cl18  Cl    Cl    0.385993 0.100023 0.116526 -0.565306
Cl19  Cl    Cl    0.100619 0.386533 0.116501 -0.565562
Cl20  Cl    Cl    0.614008 0.899978 0.116526 -0.565306
Cl21  Cl    Cl    0.399108 0.113187 0.616489 -0.574130
Cl22  Cl    Cl    0.886692 0.399256 0.616496 -0.573784
Cl23  Cl    Cl    0.600893 0.886813 0.616489 -0.574130
Cl24  Cl    Cl    0.113309 0.600743 0.616496 -0.573783

loop_
_geom_bond_atom_site_label_1
_geom_bond_atom_site_label_2
_ccdc_geom_bond_type
C144  H40   S    
C69   C116  S    
C54   O44   A    
O25   Zn11  S    
C32   H52   S    
C59   C95   S    
C54   O26   A    
N3    N15   A    
C49   O39   A    
C24   C42   A    
C108  C109  A    
C30   C38   A    
C60   O32   A    
C1    O5    A    
C119  Cl7   S    
C61   O51   A    
C113  Cl1   S    
O13   Zn1   S    
C115  Cl3   S    
C122  H26   S    
C16   C44   S    
C126  H30   S    
C76   C125  S    
C82   C98   A    
C13   C41   S    
C128  Cl16  S    
C47   O19   A    
C80   C121  S    
C9    C131  A    
C84   C100  A    
C91   C107  A    
C121  C128  S    
C49   O21   A    
C123  C126  S    
O14   Zn2   S    
C27   C35   A    
O1    Zn3   S    
C21   C29   A    
C72   C113  S    
C28   C44   A    
O48   Zn6   S    
C31   C37   A    
O20   Zn8   S    
C23   C31   A    
O21   Zn9   S    
C24   C32   A    
C60   O46   A    
C66   C82   A    
C113  C120  S    
C124  H28   S    
C50   O22   A    
N8    N12   A    
C115  C118  S    
O8    Zn10  S    
O3    Zn7   S    
O4    Zn16  S    
N2    N14   A    
C17   N1    A    
C63   O49   A    
C87   C103  A    
C142  H38   S    
C105  C112  A    
C7    C19   S    
C74   C79   A    
C107  C110  A    
O26   Zn10  S    
C55   C83   S    
C130  C138  A    
C119  H23   S    
O32   Zn16  S    
C120  H24   S    
C99   H3    S    
O51   Zn5   S    
C112  H16   S    
C97   H1    S    
C5    C137  A    
C78   C94   A    
C70   C115  S    
C73   C128  S    
C23   C41   A    
C1    O7    A    
C75   C126  S    
C104  H8    S    
C52   C86   S    
C77   C124  S    
C31   H51   S    
C74   C90   A    
C64   O50   A    
C29   H49   S    
C140  H36   S    
C65   C120  S    
C141  H37   S    
C115  H19   S    
C67   C118  S    
C139  H35   S    
C113  H17   S    
C62   O34   A    
C129  C137  A    
C34   H54   S    
C63   C91   S    
C107  H11   S    
C47   O17   A    
C105  H9    S    
C67   C83   A    
C121  Cl9   S    
C15   N13   A    
C123  Cl11  S    
C25   C43   A    
C7    C143  A    
C26   C44   A    
C131  Cl19  S    
O37   Zn3   S    
O3    Zn5   S    
O38   Zn4   S    
C122  C127  S    
C17   N3    A    
N6    N10   A    
C111  H15   S    
C62   O52   A    
C64   O36   A    
C92   C108  A    
N5    N9    A    
C114  C119  S    
C75   C91   A    
C135  C143  A    
C56   O28   A    
C12   C134  A    
N7    N11   A    
C88   C104  A    
C5    C139  A    
C106  C111  A    
C13   N9    A    
C114  Cl2   S    
O47   Zn5   S    
O2    Zn4   S    
C22   H42   S    
O9    Zn15  S    
C136  Cl24  S    
C74   C127  S    
O52   Zn8   S    
C2    O8    A    
C16   N14   A    
C78   C123  S    
C122  Cl10  S    
C66   C119  S    
O29   Zn13  S    
C86   C102  A    
C7    C141  A    
C69   C85   A    
C22   C30   A    
C58   O48   A    
C46   O16   A    
C59   O45   A    
O22   Zn10  S    
O43   Zn1   S    
C8    C142  A    
C56   C82   S    
O7    Zn9   S    
C65   C72   A    
N4    N16   A    
C67   C70   A    
C15   C43   S    
C25   H45   S    
C134  Cl22  S    
C23   H43   S    
C100  C101  A    
C48   O18   A    
C50   O40   A    
C52   O24   A    
C127  Cl15  S    
C61   O33   A    
C12   C136  A    
C89   C105  A    
C59   O31   A    
C124  Cl12  S    
C25   C33   A    
C60   C94   S    
C63   O35   A    
C9    C45   S    
O19   Zn7   S    
O45   Zn7   S    
C13   N11   A    
C11   C47   S    
C64   C90   S    
C12   C48   S    
C54   C84   S    
C129  Cl17  S    
O2    Zn2   S    
C55   O27   A    
C114  H18   S    
C5    C17   S    
C98   C103  A    
C2    O6    A    
C53   C81   S    
O35   Zn13  S    
C16   N16   A    
C52   O38   A    
O31   Zn15  S    
O49   Zn7   S    
C117  H21   S    
C68   C69   A    
C106  H10   S    
O23   Zn11  S    
O24   Zn12  S    
O41   Zn3   S    
C4    O10   A    
C110  H14   S    
C103  H7    S    
C117  Cl5   S    
O1    Zn9   S    
C109  H13   S    
C83   C99   A    
C130  Cl18  S    
C46   O14   A    
O27   Zn9   S    
O11   Zn13  S    
C127  H31   S    
C79   C122  S    
C128  H32   S    
C35   H55   S    
C68   C84   A    
C58   O30   A    
C90   C106  A    
O4    Zn6   S    
C94   C110  A    
C71   C114  S    
C55   O41   A    
C143  H39   S    
O44   Zn4   S    
C35   C39   A    
C10   C130  A    
C79   C95   A    
C11   C135  A    
C134  C142  A    
C125  Cl13  S    
C65   C81   A    
C66   C71   A    
C108  H12   S    
O17   Zn5   S    
C18   N2    A    
C8    C20   S    
N1    N13   A    
C1    C38   S    
C102  H6    S    
C21   C41   A    
C15   N15   A    
C3    C40   S    
C9    C129  A    
C120  Cl8   S    
O6    Zn12  S    
C51   O37   A    
C3    O11   A    
O12   Zn14  S    
C57   O47   A    
O33   Zn15  S    
C45   O13   A    
C36   H56   S    
C53   O25   A    
C21   H41   S    
C132  C140  A    
C133  C141  A    
C14   N12   A    
C24   H44   S    
C11   C133  A    
C73   C89   A    
C136  C144  A    
C30   H50   S    
O40   Zn2   S    
O50   Zn6   S    
C77   C93   A    
O30   Zn14  S    
C4    O12   A    
C6    C140  A    
O42   Zn2   S    
C97   C104  A    
C27   C43   A    
O1    Zn11  S    
C99   C102  A    
C28   C36   A    
C132  Cl20  S    
C29   C37   A    
C118  Cl6   S    
C51   O23   A    
C123  H27   S    
C121  H25   S    
O3    Zn15  S    
C53   O43   A    
O4    Zn8   S    
C20   N6    A    
C125  H29   S    
C26   H46   S    
C135  Cl23  S    
C96   C112  A    
C33   C39   A    
C34   C40   A    
O36   Zn16  S    
O28   Zn12  S    
C116  C117  S    
C58   C96   S    
C26   C34   A    
O15   Zn3   S    
C10   C46   S    
O16   Zn4   S    
C32   C38   A    
C80   C96   A    
C3    O9    A    
O2    Zn10  S    
C14   C42   S    
C57   C93   S    
C19   N7    A    
O34   Zn14  S    
C27   H47   S    
C28   H48   S    
C72   C88   A    
C61   C89   S    
C10   C132  A    
C6    C18   S    
C14   N10   A    
C49   C85   S    
C36   C40   A    
C131  C139  A    
C76   C77   A    
C57   O29   A    
C51   C87   S    
C98   H2    S    
C118  H22   S    
C62   C92   S    
C6    C138  A    
C68   C117  S    
C4    C39   S    
C33   H53   S    
C8    C144  A    
C133  Cl21  S    
C48   O20   A    
C76   C92   A    
C70   C86   A    
O3    Zn13  S    
C71   C87   A    
O5    Zn11  S    
C20   N8    A    
C138  H34   S    
C85   C101  A    
O39   Zn1   S    
C116  H20   S    
C56   O42   A    
C18   N4    A    
C126  Cl14  S    
C50   C88   S    
O46   Zn8   S    
O18   Zn6   S    
C95   C111  A    
C2    C37   S    
C22   C42   A    
C81   C97   A    
C100  H4    S    
O1    Zn1   S    
C101  H5    S    
C73   C80   A    
C116  Cl4   S    
C75   C78   A    
O10   Zn16  S    
C137  H33   S    
O2    Zn12  S    
C93   C109  A    
C19   N5    A    
O4    Zn14  S    
C45   O15   A    
C124  C125  S    
