data_mof_unit_8865.cif
_audit_creation_date              2012-12-10T19:01:54-0500
_audit_creation_method            fapswitch 2.2
_symmetry_space_group_name_H-M    P1
_symmetry_Int_Tables_number       1
_space_group_crystal_system       triclinic
_cell_length_a                    11.685643
_cell_length_b                    10.824939
_cell_length_c                    9.570144
_cell_angle_alpha                 90.444998
_cell_angle_beta                  89.919706
_cell_angle_gamma                 90.481903
_cell_volume                      1210.50809135

loop_
_atom_site_label
_atom_site_type_symbol
_atom_type_description
_atom_site_fract_x
_atom_site_fract_y
_atom_site_fract_z
_atom_type_partial_charge
C1    C     C_R   0.499526 0.262584 0.499372 0.795343
C2    C     C_R   0.505919 0.129722 0.495965 -0.070542
C3    C     C_R   0.473049 0.063292 0.375505 -0.215924
C4    C     C_R   0.474283 0.934360 0.375848 -0.157828
C5    C     C_R   0.510084 0.870958 0.495907 -0.130852
C6    C     C_R   0.560721 0.939061 0.603707 0.015136
C7    C     C_3   0.553622 0.932745 0.759549 0.320340
C8    C     C_3   0.541603 0.073600 0.761249 -0.507664
C9    C     C_R   0.564025 0.584703 0.074190 0.201556
C10   C     C_R   0.428447 0.424748 0.073808 -0.075435
C11   C     C_R   0.427941 0.425290 0.925075 -0.055267
C12   C     C_R   0.284037 0.499626 0.500061 0.814035
C13   C     C_R   0.567057 0.581378 0.927258 0.186747
C14   C     C_3   0.694879 0.589898 0.926575 0.128401
C15   C     C_3   0.689871 0.605893 0.085303 0.168953
C16   C     C_R   0.502198 0.737609 0.499913 0.791267
C17   C     C_R   0.715915 0.499296 0.500000 0.818983
C18   C     C_1   0.162311 0.498388 0.500130 -0.197060
C19   C     C_1   0.059783 0.497303 0.500214 -0.014688
C20   C     C_1   0.940032 0.496747 0.500462 -0.024331
C21   C     C_1   0.837525 0.497531 0.500253 -0.211117
C22   C     C_R   0.554903 0.065708 0.605910 0.027686
Cu1   Cu    Cu3+1 0.499990 0.499980 0.640670 0.970205
Cu2   Cu    Cu3+1 0.500010 0.500020 0.359330 0.957435
H1    H     H_    0.440559 0.110184 0.284359 0.156380
H2    H     H_    0.726525 0.670486 0.867529 0.143048
H3    H     H_    0.734448 0.533546 0.145514 0.132609
H4    H     H_    0.441724 0.884931 0.285220 0.170229
H5    H     H_    0.474712 0.884453 0.795599 0.110626
H6    H     H_    0.454429 0.103992 0.792187 0.164852
H7    H     H_    0.611698 0.125684 0.813902 0.207882
H8    H     H_    0.372304 0.361832 0.128974 0.135767
H9    H     H_    0.371092 0.363101 0.869007 0.133554
N1    N     N_R   0.500710 0.500930 0.147930 -0.206992
N2    N     N_R   0.500710 0.500890 0.852020 -0.167705
O1    O     O_R   0.500000 0.319640 0.618810 -0.571857
O2    O     O_R   0.500010 0.319680 0.381230 -0.589191
O3    O     O_R   0.337190 0.499990 0.618790 -0.583323
O4    O     O_R   0.337200 0.500030 0.381210 -0.577439
O5    O     O_R   0.499990 0.680320 0.618770 -0.591530
O6    O     O_R   0.500000 0.680360 0.381190 -0.557502
O7    O     O_R   0.662800 0.499970 0.618790 -0.531484
O8    O     O_R   0.662810 0.500010 0.381210 -0.584334
O9    O     O_3   0.710097 0.728654 0.131913 -0.587490
C23   C     C_3   0.827185 0.761937 0.121771 0.073952
H10   H     H_    0.831661 0.864479 0.121178 0.177145
H11   H     H_    0.867530 0.730709 0.022527 0.096727
C24   C     C_3   0.895249 0.715905 0.247205 -0.362709
H12   H     H_    0.850029 0.741359 0.345314 0.234885
H13   H     H_    0.902369 0.613917 0.241088 0.208541
C25   C     C_3   0.015750 0.771390 0.249467 -0.919187
H14   H     H_    0.062096 0.747180 0.151716 0.253259
H15   H     H_    0.064060 0.734244 0.339384 0.262920
H16   H     H_    0.011880 0.873496 0.260462 0.254734
O10   O     O_3   0.652892 0.886270 0.827654 -0.599241
C26   C     C_3   0.760458 0.926277 0.773257 0.093571
H17   H     H_    0.821883 0.923868 0.861576 0.154277
H18   H     H_    0.761718 0.023574 0.737796 0.120714
C27   C     C_3   0.803140 0.841437 0.654266 -0.376609
H19   H     H_    0.761018 0.749425 0.658313 0.227770
H20   H     H_    0.781157 0.882585 0.551873 0.206635
C28   C     C_3   0.932661 0.824692 0.659699 -0.933754
H21   H     H_    0.976828 0.915659 0.652101 0.258607
H22   H     H_    0.960590 0.765519 0.571165 0.268862
H23   H     H_    0.957548 0.779292 0.758686 0.243347
O11   O     O_3   0.743092 0.475337 0.886948 -0.585775
C29   C     C_3   0.863653 0.484996 0.886491 0.048288
H24   H     H_    0.896101 0.513537 0.991216 0.124810
H25   H     H_    0.892728 0.553056 0.807065 0.151403
C30   C     C_3   0.913969 0.358774 0.850812 -0.293738
H26   H     H_    0.879697 0.288693 0.924542 0.214442
H27   H     H_    0.888090 0.331148 0.743277 0.222719
C31   C     C_3   0.044377 0.360955 0.860712 -0.941116
H28   H     H_    0.080952 0.432927 0.791393 0.269513
H29   H     H_    0.078576 0.269719 0.828307 0.250132
H30   H     H_    0.071564 0.380428 0.969929 0.253394

loop_
_geom_bond_atom_site_label_1
_geom_bond_atom_site_label_2
_ccdc_geom_bond_type
O10   C26   S    
C7    H5    S    
C31   H28   S    
C19   C20   S    
C7    O10   S    
C7    C8    S    
C23   H10   S    
Cu1   O7    S    
C15   O9    S    
C13   N2    A    
C5    C6    A    
Cu1   O5    S    
C6    C22   A    
Cu2   O4    S    
C26   H17   S    
C1    C2    S    
C9    C13   A    
C17   O7    A    
C5    C16   S    
C28   H22   S    
C24   C25   S    
C2    C22   A    
C8    C22   S    
Cu1   Cu2   S    
C30   H26   S    
C1    O2    A    
C24   H13   S    
O11   C29   S    
C27   H19   S    
C13   C14   S    
Cu2   O6    S    
C31   H29   S    
C4    H4    S    
C23   H11   S    
C27   H20   S    
C25   H14   S    
C11   H9    S    
C18   C19   T    
Cu2   N1    S    
C29   H24   S    
C29   H25   S    
C17   O8    A    
C28   H21   S    
C15   H3    S    
C3    H1    S    
C30   C31   S    
Cu2   O2    S    
C14   O11   S    
C10   N1    A    
C14   H2    S    
C16   O5    A    
C24   H12   S    
Cu1   N2    S    
C9    N1    A    
C31   H30   S    
C3    C4    A    
O9    C23   S    
C23   C24   S    
C27   C28   S    
C28   H23   S    
C8    H7    S    
C4    C5    A    
C6    C7    S    
Cu1   O3    S    
C26   C27   S    
C25   H16   S    
C8    H6    S    
C29   C30   S    
C12   O4    A    
C11   N2    A    
C2    C3    A    
C9    C15   S    
C26   H18   S    
C12   O3    A    
C17   C21   S    
C10   C11   A    
C10   H8    S    
C20   C21   T    
Cu1   O1    S    
C12   C18   S    
Cu2   O8    S    
C14   C15   S    
C30   H27   S    
C25   H15   S    
C16   O6    A    
C1    O1    A    
