data_mof_unit_16714.cif
_audit_creation_date              2012-12-10T20:26:30-0500
_audit_creation_method            fapswitch 2.2
_symmetry_space_group_name_H-M    P1
_symmetry_Int_Tables_number       1
_space_group_crystal_system       triclinic
_cell_length_a                    10.710575
_cell_length_b                    10.699826
_cell_length_c                    9.888436
_cell_angle_alpha                 90.069108
_cell_angle_beta                  90.604344
_cell_angle_gamma                 90.306069
_cell_volume                      1133.14740069

loop_
_atom_site_label
_atom_site_type_symbol
_atom_type_description
_atom_site_fract_x
_atom_site_fract_y
_atom_site_fract_z
_atom_type_partial_charge
C1    C     C_R   0.495366 0.260320 0.499414 0.887617
C2    C     C_R   0.608171 0.487296 0.072922 -0.128700
C3    C     C_R   0.608234 0.487937 0.929325 -0.140336
C4    C     C_R   0.262591 0.499378 0.499271 0.914620
C5    C     C_R   0.392354 0.519009 0.927934 0.197701
C6    C     C_3   0.275093 0.441420 0.924665 -0.066027
C7    C     C_3   0.274087 0.449769 0.078274 -0.498982
C8    C     C_R   0.499453 0.739468 0.499906 0.891969
C9    C     C_R   0.737350 0.505820 0.500799 0.939022
C10   C     C_2   0.932672 0.538560 0.390069 -0.158755
C11   C     C_2   0.868576 0.526129 0.504153 -0.340120
C12   C     C_R   0.494431 0.127948 0.495867 -0.122709
C13   C     C_2   0.067174 0.546112 0.394958 -0.163083
C14   C     C_2   0.130490 0.494526 0.497338 -0.329194
C15   C     C_R   0.566699 0.065126 0.591642 0.079808
C16   C     C_3   0.292388 0.307201 0.874205 -0.829137
C17   C     C_3   0.354400 0.123810 0.281966 -0.882738
C18   C     C_R   0.432849 0.061447 0.390181 0.179305
C19   C     C_R   0.438110 0.932053 0.391749 -0.222340
C20   C     C_R   0.500305 0.871024 0.497316 -0.140271
C21   C     C_R   0.569566 0.937579 0.592489 0.112355
C22   C     C_3   0.568537 0.930733 0.743296 -0.463333
C23   C     C_3   0.564969 0.072291 0.742699 -0.464857
C24   C     C_R   0.392861 0.522320 0.070208 0.160186
H1    H     H_    0.886939 0.541433 0.291533 0.161964
H2    H     H_    0.086602 0.445682 0.580446 0.141506
H3    H     H_    0.388351 0.878621 0.314803 0.164109
H4    H     H_    0.481903 0.887226 0.783253 0.211722
H5    H     H_    0.657137 0.892598 0.785284 0.200028
H6    H     H_    0.476042 0.110203 0.781837 0.210174
H7    H     H_    0.376979 0.264436 0.920379 0.237631
H8    H     H_    0.209694 0.250065 0.901827 0.225985
H9    H     H_    0.300565 0.305639 0.762750 0.264900
H10   H     H_    0.288216 0.190249 0.328789 0.233675
H11   H     H_    0.415471 0.173732 0.209648 0.257564
H12   H     H_    0.651170 0.116255 0.785045 0.203486
H13   H     H_    0.298253 0.054911 0.222803 0.222591
H14   H     H_    0.695282 0.474970 0.127237 0.145729
H15   H     H_    0.695380 0.476497 0.876722 0.148935
H16   H     H_    0.195412 0.490708 0.875770 0.162556
H17   H     H_    0.196272 0.507877 0.115664 0.167506
H18   H     H_    0.285700 0.359426 0.132223 0.226133
H19   H     H_    0.911939 0.534672 0.603449 0.147165
H20   H     H_    0.114500 0.591445 0.311674 0.155657
N1    N     N_R   0.499170 0.499140 0.142800 -0.100587
N2    N     N_R   0.499170 0.499180 0.857150 -0.100458
O1    O     O_R   0.500020 0.316790 0.614690 -0.622454
O2    O     O_R   0.500000 0.316760 0.385350 -0.608741
O3    O     O_R   0.319080 0.500020 0.614640 -0.629701
O4    O     O_R   0.319070 0.499980 0.385300 -0.616537
O5    O     O_R   0.500000 0.683240 0.614650 -0.618535
O6    O     O_R   0.499980 0.683210 0.385310 -0.621532
O7    O     O_R   0.680930 0.500020 0.614700 -0.630301
O8    O     O_R   0.680920 0.499980 0.385360 -0.622005
Zn1   Zn    Zn3+2 0.500010 0.500020 0.653130 0.931861
Zn2   Zn    Zn3+2 0.499990 0.499980 0.346870 0.937973

loop_
_geom_bond_atom_site_label_1
_geom_bond_atom_site_label_2
_ccdc_geom_bond_type
N2    Zn1   S    
C1    O2    A    
C11   H19   S    
C6    C7    S    
C22   H5    S    
C16   H9    S    
C16   H8    S    
C19   H3    S    
C5    N2    A    
C8    O6    A    
C3    N2    A    
C19   C20   A    
C12   C15   A    
C4    O3    A    
O3    Zn1   S    
C5    C24   A    
C2    C3    A    
C3    H15   S    
O4    Zn2   S    
C22   H4    S    
C13   C14   D    
C14   H2    S    
C16   H7    S    
C9    C11   S    
C8    O5    A    
C8    C20   S    
C1    C12   S    
C24   N1    A    
C10   H1    S    
C15   C23   S    
C17   C18   S    
O5    Zn1   S    
O7    Zn1   S    
C2    N1    A    
C4    C14   S    
C5    C6    S    
O8    Zn2   S    
C9    O7    A    
C10   C11   D    
C6    C16   S    
C7    C24   S    
C23   H6    S    
C15   C21   A    
C6    H16   S    
C20   C21   A    
N1    Zn2   S    
O1    Zn1   S    
C23   H12   S    
C17   H10   S    
C7    H18   S    
C12   C18   A    
O2    Zn2   S    
C2    H14   S    
C22   C23   S    
C18   C19   A    
C17   H13   S    
C9    O8    A    
C17   H11   S    
C21   C22   S    
C13   H20   S    
C1    O1    A    
O6    Zn2   S    
C7    H17   S    
C4    O4    A    
C10   C13   S    
