data_mof_unit_15029.cif
_audit_creation_date              2012-12-11T14:08:14-0500
_audit_creation_method            fapswitch 2.2
_symmetry_space_group_name_H-M    P1
_symmetry_Int_Tables_number       1
_space_group_crystal_system       triclinic
_cell_length_a                    10.918767
_cell_length_b                    11.01846
_cell_length_c                    18.734541
_cell_angle_alpha                 90.523461
_cell_angle_beta                  89.500013
_cell_angle_gamma                 60.027019
_cell_volume                      1952.16766081

loop_
_atom_site_label
_atom_site_type_symbol
_atom_type_description
_atom_site_fract_x
_atom_site_fract_y
_atom_site_fract_z
_atom_type_partial_charge
C1    C     C_R   0.237149 0.645216 0.609044 0.553893
C2    C     C_3   0.636920 0.548360 0.813075 -0.232423
C3    C     C_3   0.690176 0.654751 0.817866 0.016318
C4    C     C_3   0.644910 0.620179 0.684741 0.050688
C5    C     C_3   0.790015 0.614916 0.692344 -0.269576
C6    C     C_3   0.639234 0.508831 0.733447 -0.219529
C7    C     C_2   0.653862 0.182238 0.676038 0.250632
C8    C     C_2   0.691019 0.178495 0.833694 -0.065692
C9    C     C_2   0.796565 0.118319 0.784689 -0.128973
C10   C     C_2   0.775164 0.152108 0.708218 -0.154514
C11   C     C_2   0.183851 0.659880 0.682242 -0.083020
C12   C     C_R   0.627432 0.589641 0.609648 0.567174
C13   C     C_2   0.197350 0.664934 0.839824 -0.150973
C14   C     C_2   0.208614 0.557272 0.801383 -0.148856
C15   C     C_2   0.237276 0.546409 0.724225 -0.104530
C16   C     C_2   0.660262 0.652498 0.320655 0.066558
C17   C     C_2   0.629633 0.665239 0.157883 -0.070837
C18   C     C_2   0.709490 0.553071 0.196989 -0.142495
C19   C     C_2   0.682420 0.550342 0.272717 -0.175984
C20   C     C_2   0.632811 0.201541 0.317730 -0.111948
C21   C     C_2   0.634936 0.203931 0.163417 -0.105004
C22   C     C_2   0.520988 0.231442 0.201720 -0.156674
C23   C     C_R   0.625117 0.231868 0.602881 0.548902
C24   C     C_2   0.515866 0.260965 0.277288 -0.162369
C25   C     C_2   0.124884 0.679519 0.344368 -0.097712
C26   C     C_2   0.114242 0.691180 0.190209 -0.074633
C27   C     C_2   0.044572 0.803449 0.234293 -0.104635
C28   C     C_2   0.077631 0.798239 0.309221 -0.149591
C29   C     C_R   0.702665 0.105461 0.899458 0.535296
C30   C     C_R   0.719086 0.682676 0.891191 0.533282
C31   C     C_R   0.119885 0.706357 0.907678 0.536619
C32   C     C_R   0.672353 0.114654 0.101136 0.565751
C33   C     C_R   0.691001 0.688709 0.094113 0.574738
C34   C     C_R   0.216738 0.650702 0.404243 0.545387
C35   C     C_R   0.085894 0.713910 0.115192 0.555217
C36   C     C_R   0.643901 0.622664 0.394055 0.561686
C37   C     C_R   0.614129 0.234845 0.392931 0.554177
C38   C     C_3   0.570200 0.793596 0.786526 -0.225104
C39   C     C_3   0.529066 0.768660 0.711225 0.156826
C40   C     C_3   0.829960 0.601791 0.771014 -0.043155
Cr1   Cr    Cr6+3 0.393010 0.398050 0.501480 1.031039
Cr2   Cr    Cr6+3 0.398820 0.707980 0.501630 1.050105
Cr3   Cr    Cr6+3 0.708140 0.393940 0.496850 1.015879
Cr4   Cr    Cr6+3 0.937950 0.938450 0.008940 1.025186
Cr5   Cr    Cr6+3 0.626180 0.937030 0.994750 1.028247
Cr6   Cr    Cr6+3 0.937790 0.625760 0.001410 1.051513
H1    H     H_    0.609607 0.868514 0.784269 0.094642
H2    H     H_    0.734790 0.405890 0.722422 0.141800
H3    H     H_    0.877252 0.529407 0.660663 0.198729
H4    H     H_    0.898858 0.031232 0.799247 0.130298
H5    H     H_    0.864224 0.141824 0.676958 0.100165
H6    H     H_    0.589719 0.269319 0.821999 0.153170
H7    H     H_    0.192249 0.478108 0.826457 0.198359
H8    H     H_    0.303147 0.442035 0.701694 0.209930
H9    H     H_    0.225102 0.737694 0.815934 0.144453
H10   H     H_    0.475574 0.839933 0.822609 0.155854
H11   H     H_    0.114726 0.763898 0.704290 0.087945
H12   H     H_    0.804349 0.463529 0.174957 0.153752
H13   H     H_    0.691219 0.452841 0.290970 0.133943
H14   H     H_    0.531428 0.751061 0.179666 0.123214
H15   H     H_    0.437726 0.215749 0.180216 0.161166
H16   H     H_    0.411025 0.324695 0.300942 0.160370
H17   H     H_    0.714043 0.226550 0.184504 0.096029
H18   H     H_    0.738638 0.136956 0.295551 0.098226
H19   H     H_    0.972206 0.906563 0.213505 0.158064
H20   H     H_    0.080200 0.887779 0.332291 0.152415
H21   H     H_    0.187785 0.586742 0.208737 0.078555
H22   H     H_    0.113530 0.593796 0.322716 0.116844
H23   H     H_    0.530631 0.844714 0.673388 0.099276
H24   H     H_    0.873720 0.672568 0.781127 0.097606
H25   H     H_    0.781863 0.712532 0.670763 0.083427
H26   H     H_    0.698602 0.453775 0.845412 0.176522
H27   H     H_    0.526743 0.597035 0.834559 0.128741
H28   H     H_    0.544838 0.498766 0.721943 0.145877
O1    O     O_R   0.507110 0.256280 0.580300 -0.502518
O2    O     O_R   0.524640 0.695370 0.425100 -0.463279
O3    O     O_R   0.735890 0.504390 0.415980 -0.525135
O4    O     O_R   0.690560 0.277820 0.422350 -0.501422
O5    O     O_3   0.499990 0.499990 0.499980 -0.279665
O6    O     O_R   0.089190 0.825870 0.932320 -0.518500
O7    O     O_R   0.819070 0.053960 0.931440 -0.500727
O8    O     O_R   0.607070 0.076440 0.916460 -0.510322
O9    O     O_R   0.647110 0.806550 0.917690 -0.523235
O10   O     O_R   0.837080 0.593860 0.915300 -0.472081
O11   O     O_R   0.064770 0.636080 0.932550 -0.495675
O12   O     O_R   0.280830 0.527190 0.577940 -0.503067
O13   O     O_R   0.068250 0.829200 0.092940 -0.520192
O14   O     O_R   0.799650 0.057040 0.080330 -0.506798
O15   O     O_R   0.586130 0.079760 0.077080 -0.506312
O16   O     O_R   0.627700 0.809630 0.066580 -0.491168
O17   O     O_R   0.816140 0.597180 0.075920 -0.510599
O18   O     O_R   0.045360 0.639170 0.081440 -0.489023
O19   O     O_3   0.833980 0.833750 0.001700 -0.252830
O20   O     O_R   0.261360 0.738990 0.584270 -0.499803
O21   O     O_R   0.532590 0.694780 0.574370 -0.484685
O22   O     O_R   0.744470 0.503750 0.577000 -0.534700
O23   O     O_R   0.698520 0.277230 0.571620 -0.538482
O24   O     O_R   0.498530 0.256920 0.419280 -0.505124
O25   O     O_R   0.272880 0.527780 0.428680 -0.508422
O26   O     O_R   0.252780 0.739630 0.423250 -0.510005
C41   C     C_2   0.950873 0.451524 0.784070 0.576049
O27   O     O_2   0.058182 0.404009 0.746988 -0.572353
O28   O     O_R   0.941967 0.366416 0.836328 -0.694375
H29   H     H_    0.029419 0.270010 0.837696 0.327016
O29   O     O_3   0.540074 0.196026 0.716075 -0.592792
C42   C     C_3   0.512422 0.088645 0.697550 -0.107406
H30   H     H_    0.611946 0.987452 0.687754 0.085038
H31   H     H_    0.443103 0.116265 0.650504 0.156612
H32   H     H_    0.452185 0.077912 0.742427 0.137947
C43   C     C_2   0.656205 0.786142 0.304739 0.546537
O30   O     O_2   0.729166 0.792615 0.256698 -0.523652
O31   O     O_R   0.572545 0.903913 0.347749 -0.690468
H33   H     H_    0.577014 0.989146 0.332004 0.345153
O32   O     O_3   0.393886 0.779506 0.713402 -0.565240
C44   C     C_3   0.286418 0.921071 0.706513 -0.111243
H34   H     H_    0.290033 0.960340 0.652508 0.137922
H35   H     H_    0.292848 0.989659 0.748335 0.094655
H36   H     H_    0.181898 0.929013 0.713339 0.128117

loop_
_geom_bond_atom_site_label_1
_geom_bond_atom_site_label_2
_ccdc_geom_bond_type
C7    C10   D    
C41   O27   D    
C31   O11   A    
Cr5   O8    S    
C1    C11   S    
Cr5   O19   S    
O32   C44   S    
C16   C43   S    
C31   O6    A    
Cr5   O9    S    
Cr3   O4    S    
Cr1   O12   S    
C26   C27   D    
C40   H24   S    
C26   H21   S    
C36   O3    A    
C33   O17   A    
C38   C39   S    
Cr6   O18   S    
C42   H30   S    
C35   O13   A    
C44   H34   S    
C32   O14   A    
C18   C19   S    
C30   O9    A    
C43   O30   D    
O31   H33   S    
Cr4   O19   S    
C36   O2    A    
C40   C41   S    
C11   C15   D    
C18   H12   S    
C20   C24   D    
C3    C38   S    
C8    C9    D    
C44   H35   S    
C34   O26   A    
C7    O29   S    
C12   O21   A    
C4    C12   S    
Cr4   O13   S    
Cr5   O15   S    
C9    C10   S    
C8    H6    S    
C25   C34   S    
Cr6   O11   S    
C35   O18   A    
C39   O32   S    
Cr2   O5    S    
C41   O28   S    
C13   C14   D    
C5    H3    S    
C2    C6    S    
C25   H22   S    
C17   C33   S    
C2    H26   S    
C10   H5    S    
C37   O24   A    
C6    H28   S    
C21   C32   S    
Cr2   O21   S    
C15   H8    S    
Cr4   O6    S    
C4    C6    S    
Cr4   O7    S    
C1    O20   A    
Cr6   O17   S    
C19   H13   S    
Cr1   O24   S    
C25   C28   D    
C20   H18   S    
C3    C30   S    
C28   H20   S    
C29   O7    A    
C27   H19   S    
Cr2   O26   S    
Cr1   O1    S    
Cr3   O22   S    
C32   O15   A    
C4    C39   S    
C44   H36   S    
Cr1   O25   S    
C17   C18   D    
C39   H23   S    
Cr5   O16   S    
C38   H1    S    
C2    H27   S    
C6    H2    S    
Cr6   O10   S    
C23   O23   A    
C3    C40   S    
C22   C24   S    
C8    C29   S    
C27   C28   S    
O29   C42   S    
C1    O12   A    
C24   H16   S    
Cr2   O20   S    
C13   C31   S    
C9    H4    S    
Cr3   O23   S    
C23   O1    A    
C4    C5    S    
Cr1   O5    S    
Cr3   O3    S    
C34   O25   A    
C37   O4    A    
Cr2   O2    S    
C2    C3    S    
C29   O8    A    
C5    H25   S    
C11   H11   S    
C33   O16   A    
C16   C36   S    
C22   H15   S    
C20   C37   S    
Cr6   O19   S    
C42   H31   S    
C16   C19   D    
C7    C23   S    
Cr4   O14   S    
C30   O10   A    
C43   O31   S    
C21   H17   S    
C17   H14   S    
C26   C35   S    
C14   H7    S    
C38   H10   S    
C5    C40   S    
O28   H29   S    
C14   C15   S    
C12   O22   A    
C21   C22   D    
Cr3   O5    S    
C13   H9    S    
C42   H32   S    
