data_mof_unit_63015.cif
_audit_creation_date              2012-12-10T17:25:19-0500
_audit_creation_method            fapswitch 2.2
_symmetry_space_group_name_H-M    P1
_symmetry_Int_Tables_number       1
_space_group_crystal_system       triclinic
_cell_length_a                    18.80453
_cell_length_b                    18.831485
_cell_length_c                    18.757737
_cell_angle_alpha                 109.460467
_cell_angle_beta                  109.415085
_cell_angle_gamma                 109.560179
_cell_volume                      5111.9513841

loop_
_atom_site_label
_atom_site_type_symbol
_atom_type_description
_atom_site_fract_x
_atom_site_fract_y
_atom_site_fract_z
_atom_type_partial_charge
C1    C     C_R   0.620704 0.618750 0.501807 0.851683
C2    C     C_R   0.185938 0.171816 0.222274 -0.185709
C3    C     C_R   0.174298 0.422824 0.182190 -0.209868
C4    C     C_R   0.185983 0.502521 0.188431 -0.058527
C5    C     C_R   0.261894 0.581176 0.258384 0.007738
C6    C     C_R   0.324527 0.578016 0.320878 -0.225311
C7    C     C_R   0.312917 0.498318 0.314146 -0.064370
C8    C     C_R   0.237575 0.419886 0.244180 -0.026474
C9    C     C_R   0.348403 0.722443 0.269885 -0.128735
C10   C     C_R   0.362733 0.804491 0.282158 -0.132238
C11   C     C_R   0.305825 0.832491 0.295518 -0.108747
C12   C     C_R   0.380360 0.499019 0.381077 0.790308
C13   C     C_R   0.234611 0.778568 0.296811 -0.116058
C14   C     C_R   0.219842 0.696314 0.284120 -0.124367
C15   C     C_R   0.276384 0.667523 0.270104 0.115411
C16   C     C_R   0.763632 0.757450 0.581979 0.004003
C17   C     C_R   0.824394 0.820462 0.577628 -0.249922
C18   C     C_R   0.814513 0.811065 0.497145 -0.097003
C19   C     C_R   0.742680 0.736955 0.418313 -0.007413
C20   C     C_R   0.680248 0.675198 0.422633 -0.183304
C21   C     C_R   0.689624 0.685093 0.503167 -0.085147
C22   C     C_R   0.678491 0.500146 0.757834 -0.174871
C23   C     C_R   0.381091 0.381082 0.500147 0.775360
C24   C     C_R   0.741804 0.498517 0.821083 -0.164541
C25   C     C_R   0.814239 0.500244 0.814276 -0.015866
C26   C     C_R   0.822552 0.502269 0.743402 -0.177408
C27   C     C_R   0.757753 0.500889 0.678633 -0.136602
C28   C     C_R   0.685989 0.500468 0.686121 0.000942
C29   C     C_R   0.248330 0.326518 0.511477 -0.188337
C30   C     C_R   0.183220 0.261592 0.509601 -0.185692
C31   C     C_R   0.185682 0.185631 0.499931 -0.007050
C32   C     C_R   0.252303 0.173848 0.490481 -0.183289
C33   C     C_R   0.315693 0.237404 0.489268 -0.175096
C34   C     C_R   0.618907 0.500087 0.619027 0.820083
C35   C     C_R   0.314291 0.314225 0.500528 -0.010153
C36   C     C_R   0.000504 0.618752 0.119500 0.777182
C37   C     C_R   0.118955 0.501256 0.120104 0.794924
C38   C     C_R   0.000423 0.381307 0.881626 0.779540
C39   C     C_R   0.881109 0.500043 0.881071 0.773765
C40   C     C_R   0.000049 0.881209 0.380969 0.770587
C41   C     C_R   0.881147 0.879469 0.498273 0.767386
C42   C     C_R   0.000187 0.119006 0.619117 0.793680
C43   C     C_R   0.118883 0.118771 0.499891 0.776875
C44   C     C_R   0.001078 0.756673 0.179398 -0.190963
C45   C     C_R   0.215358 0.194626 0.169423 0.014418
C46   C     C_R   0.999087 0.820146 0.241912 -0.176795
C47   C     C_R   0.999634 0.813947 0.314285 -0.025691
C48   C     C_R   0.000748 0.743626 0.323583 -0.211922
C49   C     C_R   0.999824 0.678225 0.259817 -0.022157
C50   C     C_R   0.000704 0.685201 0.187415 -0.069106
C51   C     C_R   0.076437 0.306255 0.834759 -0.023376
C52   C     C_R   0.075255 0.241435 0.769999 -0.189831
C53   C     C_R   0.000801 0.186308 0.686781 -0.046447
C54   C     C_R   0.926909 0.195506 0.668793 -0.167658
C55   C     C_R   0.927151 0.258918 0.733580 -0.189579
C56   C     C_R   0.233366 0.276517 0.174980 -0.008402
C57   C     C_R   0.001779 0.314733 0.816109 -0.048060
C58   C     C_R   0.221980 0.334212 0.235726 0.023008
C59   C     C_R   0.192807 0.309756 0.288058 -0.142261
C60   C     C_R   0.174340 0.228832 0.280810 -0.134455
Cu1   Cu    Cu3+1 0.500020 0.438210 0.438220 0.975302
Cu2   Cu    Cu3+1 0.499980 0.561790 0.561780 0.993420
Cu3   Cu    Cu3+1 0.938210 0.438200 0.999980 0.984540
Cu4   Cu    Cu3+1 0.061840 0.561770 0.999960 0.985661
Cu5   Cu    Cu3+1 0.061800 0.999890 0.561700 0.975059
Cu6   Cu    Cu3+1 0.938200 0.999930 0.438120 0.957383
H1    H     H_    0.171996 0.109483 0.218308 0.134849
H2    H     H_    0.317112 0.896091 0.305228 0.127019
H3    H     H_    0.191083 0.800673 0.307950 0.140395
H4    H     H_    0.164951 0.655274 0.285849 0.114658
H5    H     H_    0.880849 0.877032 0.637609 0.145332
H6    H     H_    0.623850 0.618452 0.362844 0.188026
H7    H     H_    0.622992 0.499531 0.763898 0.143204
H8    H     H_    0.735116 0.497371 0.875934 0.148124
H9    H     H_    0.878257 0.503338 0.737527 0.143143
H10   H     H_    0.764178 0.501558 0.623525 0.146956
H11   H     H_    0.246199 0.385329 0.519478 0.147697
H12   H     H_    0.131831 0.271064 0.517062 0.142558
H13   H     H_    0.254287 0.114992 0.482627 0.136207
H14   H     H_    0.366491 0.227312 0.480963 0.144483
H15   H     H_    0.001398 0.762491 0.123932 0.152929
H16   H     H_    0.998742 0.874808 0.234735 0.144015
H17   H     H_    0.001027 0.739260 0.379902 0.146963
H18   H     H_    0.132592 0.234540 0.784192 0.165373
H19   H     H_    0.868703 0.153023 0.605074 0.153726
H20   H     H_    0.869538 0.265272 0.719127 0.136383
H21   H     H_    0.183635 0.353409 0.334171 0.131622
H22   H     H_    0.150961 0.210127 0.320768 0.158187
H23   H     H_    0.116187 0.362512 0.128162 0.158341
H24   H     H_    0.382750 0.638072 0.375201 0.148179
H25   H     H_    0.393014 0.701492 0.259742 0.138220
H26   H     H_    0.418064 0.846443 0.281505 0.136183
O1    O     O_R   0.590200 0.537990 0.447840 -0.592363
O2    O     O_R   0.052220 0.642350 0.090110 -0.582309
O3    O     O_R   0.038000 0.447810 0.090170 -0.581667
O4    O     O_R   0.142390 0.552170 0.090150 -0.568310
O5    O     O_R   0.947830 0.357620 0.909840 -0.582521
O6    O     O_R   0.052230 0.461980 0.909820 -0.578539
O7    O     O_R   0.857660 0.447800 0.909790 -0.585634
O8    O     O_R   0.962050 0.552160 0.909780 -0.583249
O9    O     O_R   0.052180 0.909730 0.461910 -0.585816
O10   O     O_R   0.947800 0.909770 0.357550 -0.587549
O11   O     O_R   0.962000 0.909720 0.552080 -0.573938
O12   O     O_R   0.590170 0.642360 0.552180 -0.556281
O13   O     O_R   0.857620 0.909750 0.447720 -0.594803
O14   O     O_R   0.052200 0.090060 0.642270 -0.580570
O15   O     O_R   0.947820 0.090090 0.537910 -0.587666
O16   O     O_R   0.142380 0.090070 0.552100 -0.578596
O17   O     O_R   0.038000 0.090100 0.447740 -0.587067
O18   O     O_R   0.409840 0.447810 0.357640 -0.584865
O19   O     O_R   0.409810 0.552180 0.461990 -0.590335
O20   O     O_R   0.409830 0.357640 0.447820 -0.583284
O21   O     O_R   0.409800 0.462010 0.552160 -0.591958
O22   O     O_R   0.590190 0.447820 0.538010 -0.598355
O23   O     O_R   0.590160 0.552190 0.642360 -0.553074
O24   O     O_R   0.947830 0.537990 0.090130 -0.572152
C61   C     C_2   0.783076 0.768870 0.669828 0.360502
H27   H     H_    0.827501 0.833251 0.727072 0.071194
O25   O     O_2   0.753887 0.706994 0.680147 -0.540589
C62   C     C_2   0.733854 0.720754 0.331757 0.370518
H28   H     H_    0.787747 0.759194 0.326865 0.085897
O26   O     O_2   0.666135 0.662976 0.264211 -0.533902
C63   C     C_1   0.227726 0.132961 0.111701 0.310903
N1    N     N_1   0.237588 0.083388 0.065545 -0.250914
C64   C     C_1   0.000459 0.606344 0.271532 0.229283
N2    N     N_1   0.001043 0.548806 0.280946 -0.271349
C65   C     C_1   0.153632 0.361710 0.920192 0.247009
N3    N     N_1   0.215355 0.406140 0.988662 -0.271443
C66   C     C_2   0.265088 0.303889 0.120198 0.354879
H29   H     H_    0.292586 0.371365 0.136079 0.109086
O27   O     O_2   0.260055 0.251943 0.056124 -0.522404

loop_
_geom_bond_atom_site_label_1
_geom_bond_atom_site_label_2
_ccdc_geom_bond_type
C40   C47   S    
C1    C21   S    
C16   C21   A    
Cu6   O10   S    
C19   C20   A    
Cu5   O9    S    
Cu6   O15   S    
C38   O6    A    
C9    H25   S    
C12   O18   A    
C60   H22   S    
C63   N1    T    
C53   C54   A    
C52   C53   A    
C23   O20   A    
C26   C27   A    
C41   O13   A    
C61   O25   D    
C42   C53   S    
C5    C6    A    
C2    C60   A    
C54   C55   A    
Cu3   O3    S    
C37   O3    A    
C18   C19   A    
C52   H18   S    
Cu3   O7    S    
C8    C58   S    
C40   O9    A    
C46   H16   S    
Cu2   O19   S    
C31   C32   A    
C45   C56   A    
C44   C46   A    
C16   C17   A    
C51   C57   A    
C42   O15   A    
Cu5   O16   S    
C56   C66   S    
Cu4   O6    S    
C10   H26   S    
C59   C60   A    
C22   C28   A    
C13   C14   A    
C27   H10   S    
C14   H4    S    
C38   O5    A    
Cu1   O18   S    
C62   O26   D    
C26   H9    S    
Cu2   O12   S    
C2    C45   A    
C7    C12   S    
C51   C52   A    
C7    C8    A    
C24   C25   A    
Cu4   O4    S    
Cu2   O21   S    
C3    C8    A    
C18   C41   S    
C25   C26   A    
C6    H24   S    
C45   C63   S    
C41   O11   A    
C37   O4    A    
C29   C30   A    
C23   O21   A    
C38   C57   S    
C39   O7    A    
C47   C48   A    
C17   C18   A    
C4    C37   S    
C42   O14   A    
C1    O12   A    
C31   C43   S    
Cu3   O24   S    
C48   C49   A    
C19   C62   S    
C2    H1    S    
C23   C35   S    
C55   C57   A    
C64   N2    T    
C22   C24   A    
C58   C59   A    
Cu5   Cu6   S    
Cu5   O11   S    
Cu6   O13   S    
C3    C4    A    
C36   O24   A    
Cu5   O14   S    
C27   C28   A    
C36   C50   S    
C11   H2    S    
C66   H29   S    
C9    C10   A    
C44   C50   A    
C46   C47   A    
C14   C15   A    
C4    C5    A    
C54   H19   S    
C33   H14   S    
C17   H5    S    
C6    C7    A    
C34   O22   A    
C49   C64   S    
C29   C35   A    
C48   H17   S    
C44   H15   S    
C3    H23   S    
C51   C65   S    
C32   C33   A    
C55   H20   S    
C34   O23   A    
Cu4   O2    S    
Cu2   O23   S    
Cu3   O5    S    
C61   H27   S    
C25   C39   S    
C32   H13   S    
C11   C13   A    
C24   H8    S    
C39   O8    A    
C30   C31   A    
C13   H3    S    
C33   C35   A    
C56   C58   A    
Cu1   O1    S    
C43   O16   A    
C28   C34   S    
Cu6   O17   S    
C9    C15   A    
Cu1   Cu2   S    
C59   H21   S    
C5    C15   S    
C10   C11   A    
C40   O10   A    
Cu3   Cu4   S    
C30   H12   S    
C36   O2    A    
Cu4   O8    S    
C29   H11   S    
C20   C21   A    
C1    O1    A    
C49   C50   A    
Cu1   O22   S    
C62   H28   S    
C20   H6    S    
C43   O17   A    
C22   H7    S    
C16   C61   S    
Cu1   O20   S    
C12   O19   A    
C65   N3    T    
C66   O27   D    
