data_mof_unit_32807.cif
_audit_creation_date              2013-03-05T15:47:25-0500
_audit_creation_method            fapswitch 2.2
_symmetry_space_group_name_H-M    P1
_symmetry_Int_Tables_number       1
_space_group_crystal_system       triclinic
_cell_length_a                    18.340504
_cell_length_b                    18.37338
_cell_length_c                    11.711875
_cell_angle_alpha                 90.018509
_cell_angle_beta                  75.347958
_cell_angle_gamma                 89.996515
_cell_volume                      3818.28760427

loop_
_atom_site_label
_atom_site_type_symbol
_atom_site_description
_atom_site_fract_x
_atom_site_fract_y
_atom_site_fract_z
_atom_type_partial_charge
O1    O     O_R   0.430030 0.075530 0.417420 -0.588141
O2    O     O_R   0.569970 0.924470 0.582580 -0.588152
O3    O     O_R   0.569970 0.075530 0.582580 -0.592329
O4    O     O_R   0.430030 0.924470 0.417420 -0.592350
O5    O     O_R   0.930030 0.575530 0.417420 -0.588152
O6    O     O_R   0.069970 0.424470 0.582580 -0.588136
O7    O     O_R   0.069970 0.575530 0.582580 -0.592354
O8    O     O_R   0.930030 0.424470 0.417420 -0.592329
O9    O     O_R   0.416860 0.075510 0.614610 -0.519796
O10   O     O_R   0.583140 0.924490 0.385390 -0.519784
O11   O     O_R   0.583140 0.075510 0.385390 -0.519824
O12   O     O_R   0.416860 0.924490 0.614610 -0.519805
O13   O     O_R   0.916860 0.575510 0.614610 -0.519787
O14   O     O_R   0.083140 0.424490 0.385390 -0.519792
O15   O     O_R   0.083140 0.575510 0.385390 -0.519804
O16   O     O_R   0.916860 0.424490 0.614610 -0.519824
C1    C     C_R   0.400958 0.101760 0.521436 0.872430
C2    C     C_R   0.599043 0.898240 0.478562 0.872391
C3    C     C_R   0.599035 0.101762 0.478583 0.871778
C4    C     C_R   0.400965 0.898237 0.521417 0.871721
C5    C     C_R   0.900957 0.601759 0.521438 0.872395
C6    C     C_R   0.099042 0.398240 0.478564 0.872432
C7    C     C_R   0.099034 0.601763 0.478583 0.871725
C8    C     C_R   0.900965 0.398238 0.521417 0.871778
C9    C     C_R   0.409881 0.998996 0.868949 0.522208
C10   C     C_R   0.590119 0.001001 0.131052 0.522239
C11   C     C_R   0.909881 0.498993 0.868949 0.522239
C12   C     C_R   0.090120 0.501005 0.131052 0.522206
Cu1   Cu    Cu3+1 0.507800 1.000000 0.383250 1.085804
Cu2   Cu    Cu3+1 0.492200 0.000000 0.616750 1.085800
Cu3   Cu    Cu3+1 0.007800 0.500000 0.383250 1.085800
Cu4   Cu    Cu3+1 0.992200 0.500000 0.616750 1.085806
C13   C     C_R   0.400335 0.999197 0.992801 0.232915
C14   C     C_R   0.599667 0.000797 0.007198 0.232905
C15   C     C_R   0.900334 0.499194 0.992801 0.232915
C16   C     C_R   0.099666 0.500803 0.007199 0.232897
C17   C     C_R   0.542609 0.000928 0.836491 0.053208
C18   C     C_R   0.457391 0.999072 0.163509 0.053216
C19   C     C_R   0.042609 0.500932 0.836491 0.053221
C20   C     C_R   0.957391 0.499069 0.163509 0.053203
C21   C     C_R   0.651943 0.162233 0.467168 -0.143779
C22   C     C_R   0.348057 0.837766 0.532831 -0.143817
C23   C     C_R   0.348052 0.162239 0.532858 -0.146801
C24   C     C_R   0.651954 0.837765 0.467134 -0.146849
C25   C     C_R   0.151941 0.662235 0.467169 -0.143811
C26   C     C_R   0.848057 0.337767 0.532832 -0.143779
C27   C     C_R   0.848046 0.662234 0.532866 -0.146844
C28   C     C_R   0.151948 0.337761 0.467142 -0.146804
C29   C     C_R   0.285093 0.730707 0.632310 -0.176340
C30   C     C_R   0.714905 0.269293 0.367690 -0.176331
C31   C     C_R   0.714733 0.730514 0.367897 -0.171566
C32   C     C_R   0.285338 0.269540 0.632017 -0.171563
C33   C     C_R   0.785095 0.230707 0.632310 -0.176335
C34   C     C_R   0.214904 0.769294 0.367692 -0.176335
C35   C     C_R   0.214662 0.230460 0.367982 -0.171565
C36   C     C_R   0.785267 0.769486 0.632103 -0.171562
C37   C     C_R   0.338135 0.786178 0.625361 0.339157
C38   C     C_R   0.661863 0.213823 0.374639 0.339161
C39   C     C_R   0.661729 0.786025 0.374792 0.336570
C40   C     C_R   0.338332 0.214019 0.625132 0.336565
C41   C     C_R   0.838137 0.286177 0.625360 0.339164
C42   C     C_R   0.161861 0.713826 0.374642 0.339151
C43   C     C_R   0.161668 0.285981 0.374867 0.336567
C44   C     C_R   0.838271 0.713975 0.625208 0.336568
C45   C     C_R   0.306918 0.831521 0.447561 -0.214941
C46   C     C_R   0.693083 0.168479 0.552439 -0.214919
C47   C     C_R   0.693201 0.831641 0.552276 -0.210928
C48   C     C_R   0.306761 0.168329 0.447770 -0.210966
C49   C     C_R   0.806917 0.331521 0.447561 -0.214917
C50   C     C_R   0.193082 0.668479 0.552439 -0.214945
C51   C     C_R   0.193238 0.331670 0.552230 -0.210963
C52   C     C_R   0.806799 0.668359 0.447724 -0.210930
C53   C     C_R   0.255633 0.775231 0.453343 0.095423
C54   C     C_R   0.744367 0.224770 0.546658 0.095427
C55   C     C_R   0.744441 0.775311 0.546565 0.092929
C56   C     C_R   0.255531 0.224668 0.453468 0.092957
C57   C     C_R   0.755633 0.275230 0.453342 0.095425
C58   C     C_R   0.244366 0.724770 0.546658 0.095427
C59   C     C_R   0.244468 0.275332 0.546532 0.092956
C60   C     C_R   0.755559 0.724689 0.453435 0.092930
N1    N     N_R   0.519530 0.000000 0.207810 -0.243157
N2    N     N_R   0.480470 1.000000 0.792190 -0.243161
N3    N     N_R   0.019530 0.500000 0.207810 -0.243158
N4    N     N_R   0.980470 0.500000 0.792190 -0.243162
H1    H     H_    0.402614 0.997466 0.225472 0.176149
H2    H     H_    0.597386 0.002540 0.774526 0.176164
H3    H     H_    0.902614 0.497458 0.225473 0.176161
H4    H     H_    0.097386 0.502544 0.774527 0.176164
H5    H     H_    0.685550 0.128997 0.623377 0.178625
H6    H     H_    0.314451 0.871003 0.376622 0.178635
H7    H     H_    0.314149 0.128696 0.377031 0.191330
H8    H     H_    0.685774 0.871242 0.623067 0.191384
H9    H     H_    0.185550 0.628996 0.623377 0.178629
H10   H     H_    0.814449 0.371003 0.376623 0.178629
H11   H     H_    0.814226 0.628758 0.376933 0.191375
H12   H     H_    0.185851 0.371304 0.622969 0.191342
H13   H     H_    0.777316 0.190890 0.702695 0.202718
H14   H     H_    0.222683 0.809113 0.297308 0.202731
H15   H     H_    0.222285 0.190490 0.297803 0.210782
H16   H     H_    0.777601 0.809424 0.702336 0.210795
H17   H     H_    0.277314 0.690891 0.702696 0.202721
H18   H     H_    0.722684 0.309110 0.297305 0.202726
H19   H     H_    0.722399 0.690576 0.297664 0.210788
H20   H     H_    0.277714 0.309510 0.702197 0.210784
C61   C     C_R   0.536043 0.000226 0.960424 -0.146174
C62   C     C_R   0.463958 0.999770 0.039575 -0.146180
C63   C     C_R   0.036042 0.500230 0.960424 -0.146170
C64   C     C_R   0.963958 0.499770 0.039575 -0.146182
Cl1   Cl    Cl    0.671794 0.999723 0.184196 -0.442614
Cl2   Cl    Cl    0.328205 0.000268 0.815810 -0.442649
Cl3   Cl    Cl    0.171794 0.499728 0.184195 -0.442649
Cl4   Cl    Cl    0.828206 0.500269 0.815806 -0.442615
N5    N     N_R   0.616270 0.213219 0.291365 0.146025
O17   O     O_R   0.646338 0.228773 0.181102 -0.263631
O18   O     O_R   0.543196 0.210294 0.328649 -0.325295
N6    N     N_R   0.383726 0.786781 0.708637 0.146032
O19   O     O_R   0.353657 0.771226 0.818896 -0.263625
O20   O     O_R   0.456800 0.789709 0.671357 -0.325329
N7    N     N_R   0.384097 0.213564 0.708165 0.146061
O21   O     O_R   0.354243 0.229495 0.818365 -0.264409
O22   O     O_R   0.457148 0.210395 0.670629 -0.326439
N8    N     N_R   0.616012 0.786513 0.291691 0.146082
O23   O     O_R   0.645926 0.770667 0.181475 -0.264371
O24   O     O_R   0.542955 0.789625 0.329155 -0.326378
N9    N     N_R   0.116265 0.713225 0.291373 0.146026
O25   O     O_R   0.146327 0.728792 0.181114 -0.263626
O26   O     O_R   0.043190 0.710292 0.328661 -0.325334
N10   N     N_R   0.883730 0.286780 0.708634 0.146026
O27   O     O_R   0.853662 0.271226 0.818897 -0.263628
O28   O     O_R   0.956804 0.289706 0.671350 -0.325296
N11   N     N_R   0.883988 0.713487 0.708309 0.146081
O29   O     O_R   0.854074 0.729333 0.818525 -0.264373
O30   O     O_R   0.957045 0.710375 0.670845 -0.326377
N12   N     N_R   0.115904 0.286436 0.291834 0.146063
O31   O     O_R   0.145758 0.270506 0.181634 -0.264408
O32   O     O_R   0.042852 0.289606 0.329369 -0.326437
N13   N     N_R   0.325875 0.999544 0.070038 0.138210
O33   O     O_R   0.280737 0.944842 0.070699 -0.257939
O34   O     O_R   0.302338 0.055504 0.137387 -0.338238
N14   N     N_R   0.674127 0.000444 0.929961 0.138218
O35   O     O_R   0.719289 0.055119 0.929351 -0.257887
O36   O     O_R   0.697645 0.944494 0.862569 -0.338292
N15   N     N_R   0.825876 0.499535 0.070038 0.138211
O37   O     O_R   0.780730 0.444845 0.070663 -0.257908
O38   O     O_R   0.802342 0.555487 0.137416 -0.338267
N16   N     N_R   0.174126 0.500457 0.929962 0.138210
O39   O     O_R   0.219281 0.555139 0.929351 -0.257893
O40   O     O_R   0.197652 0.444510 0.862570 -0.338290

loop_
_geom_bond_atom_site_label_1
_geom_bond_atom_site_label_2
_geom_bond_distance
_ccdc_geom_bond_type
O6    Cu4   1.957310 S    
Cu2   N2    2.011114 S    
C7    C25   1.458934 S    
O2    C2    1.292923 A    
O13   Cu4   1.962662 S    
C49   C57   1.388133 A    
C33   C54   1.398284 A    
C56   C59   1.408232 A    
O14   Cu3   1.962662 S    
N10   O27   1.301323 A    
C51   C59   1.388125 A    
Cu3   N3    2.011113 S    
N6    O19   1.301291 A    
C19   C63   1.425863 A    
N13   O34   1.301103 A    
O11   C3    1.292122 A    
C20   H3    1.080740 S    
C11   N4    1.376892 A    
N14   O36   1.301144 A    
C19   N4    1.366543 A    
N5    O17   1.301322 A    
C29   H17   1.084437 S    
C50   C58   1.388121 A    
C24   C39   1.416590 A    
C31   H19   1.084388 S    
N15   O37   1.300912 A    
C46   C54   1.388132 A    
C25   C42   1.416640 A    
C48   H7    1.085281 S    
C45   C53   1.388130 A    
C29   C58   1.398280 A    
C40   N7    1.436388 S    
C31   C60   1.398303 A    
C26   C49   1.400345 A    
C15   C64   1.408985 A    
C32   C40   1.397126 A    
C52   H11   1.085278 S    
C33   C41   1.397080 A    
C10   C14   1.416432 A    
C13   N13   1.434675 S    
C23   C48   1.400343 A    
C54   C57   1.408243 A    
C35   C43   1.397125 A    
C22   C45   1.400337 A    
C63   C64   1.409702 A    
C36   C44   1.397118 A    
O3    C3    1.293034 A    
C46   H5    1.085320 S    
C32   C59   1.398308 A    
C55   C60   1.408237 A    
O4    Cu1   1.957616 S    
C20   C64   1.425862 A    
C39   N8    1.436385 S    
O15   C7    1.292126 A    
O16   C8    1.292120 A    
C36   C55   1.398303 A    
C16   C63   1.408982 A    
O8    Cu3   1.957616 S    
C20   N3    1.366558 A    
C19   H4    1.080746 S    
C22   C37   1.416627 A    
C37   N6    1.436359 S    
N16   O40   1.301127 A    
C33   H13   1.084432 S    
N7    O22   1.301424 A    
C12   Cl3   1.761668 S    
C45   H6    1.085322 S    
Cu4   N4    2.011114 S    
C26   C41   1.416641 A    
C30   C38   1.397079 A    
C43   N12   1.436389 S    
C17   H2    1.080743 S    
C50   H9    1.085328 S    
N14   O35   1.300910 A    
C49   H10   1.085320 S    
C27   C44   1.416590 A    
C28   C43   1.416575 A    
N12   O32   1.301426 A    
C51   H12   1.085281 S    
C34   C42   1.397067 A    
C42   N9    1.436359 S    
C11   C15   1.416425 A    
C17   C61   1.425862 A    
N5    O18   1.301429 A    
O5    C5    1.292922 A    
C18   C62   1.425862 A    
O3    Cu2   1.957615 S    
C1    C23   1.458868 S    
Cu1   N1    2.011113 S    
Cu1   Cu2   2.676702 S    
C2    C24   1.458872 S    
C38   N5    1.436365 S    
C34   C53   1.398282 A    
Cu3   Cu4   2.676702 S    
C44   N11   1.436385 S    
C18   H1    1.080747 S    
C53   C58   1.408232 A    
O12   C4    1.292117 A    
O1    Cu1   1.957309 S    
O13   C5    1.292198 A    
C48   C56   1.388126 A    
C10   Cl1   1.761671 S    
O11   Cu1   1.962768 S    
N12   O31   1.301326 A    
O9    Cu2   1.962662 S    
C35   C56   1.398307 A    
C23   C40   1.416576 A    
O9    C1    1.292207 A    
C6    C28   1.458869 S    
C30   H18   1.084433 S    
C10   N1    1.376892 A    
C18   N1    1.366550 A    
C9    N2    1.376895 A    
C17   N2    1.366553 A    
C47   C55   1.388117 A    
C36   H16   1.084389 S    
C28   C51   1.400343 A    
N8    O24   1.301429 A    
N11   O29   1.301337 A    
C30   C57   1.398284 A    
C21   C38   1.416641 A    
N16   O39   1.300928 A    
C61   C62   1.409704 A    
C16   N16   1.434685 S    
N15   O38   1.301141 A    
C32   H20   1.084391 S    
O7    Cu4   1.957615 S    
O12   Cu2   1.962771 S    
C25   C50   1.400351 A    
C14   C61   1.408999 A    
C13   C62   1.408972 A    
N11   O30   1.301429 A    
N10   O28   1.301428 A    
C11   Cl4   1.761677 S    
C29   C37   1.397081 A    
C4    C22   1.458960 S    
N7    O21   1.301327 A    
O15   Cu3   1.962768 S    
C21   C46   1.400347 A    
O16   Cu4   1.962771 S    
N13   O33   1.300931 A    
C15   N15   1.434660 S    
O1    C1    1.292909 A    
C9    Cl2   1.761663 S    
O2    Cu2   1.957310 S    
C8    C26   1.458943 S    
O14   C6    1.292208 A    
C52   C60   1.388117 A    
O10   Cu1   1.962662 S    
N9    O25   1.301314 A    
O10   C2    1.292200 A    
O7    C7    1.293035 A    
C14   N14   1.434678 S    
C47   H8    1.085278 S    
O8    C8    1.293033 A    
N6    O20   1.301416 A    
C41   N10   1.436365 S    
C5    C27   1.458871 S    
C27   C52   1.400347 A    
O4    C4    1.293033 A    
C31   C39   1.397117 A    
C12   C16   1.416431 A    
C35   H15   1.084392 S    
N9    O26   1.301434 A    
C34   H14   1.084441 S    
C24   C47   1.400346 A    
O5    Cu3   1.957309 S    
N8    O23   1.301338 A    
C3    C21   1.458943 S    
C9    C13   1.416427 A    
C12   N3    1.376897 A    
O6    C6    1.292909 A    
