data_mof_unit_22467.cif
_audit_creation_date              2012-12-11T14:14:06-0500
_audit_creation_method            fapswitch 2.2
_symmetry_space_group_name_H-M    P1
_symmetry_Int_Tables_number       1
_space_group_crystal_system       triclinic
_cell_length_a                    17.296588
_cell_length_b                    7.277056
_cell_length_c                    16.678986
_cell_angle_alpha                 89.999963
_cell_angle_beta                  99.638853
_cell_angle_gamma                 90.000012
_cell_volume                      2069.71743241

loop_
_atom_site_label
_atom_site_type_symbol
_atom_type_description
_atom_site_fract_x
_atom_site_fract_y
_atom_site_fract_z
_atom_type_partial_charge
O1    O     O_R   0.414560 0.494370 0.416770 -0.542828
O2    O     O_R   0.585440 0.994370 0.583230 -0.542828
O3    O     O_R   0.578370 0.819590 0.429320 -0.522210
O4    O     O_R   0.421630 0.319590 0.570680 -0.522211
C1    C     C_R   0.603912 0.654483 0.412964 0.795222
C2    C     C_R   0.396088 0.154483 0.587036 0.795222
O5    O     O_R   0.414740 0.823790 0.407360 -0.544657
O6    O     O_R   0.585260 0.323790 0.592640 -0.544657
O7    O     O_R   0.420650 0.998510 0.561120 -0.527145
O8    O     O_R   0.579350 0.498510 0.438880 -0.527144
C3    C     C_R   0.389275 0.655510 0.383790 0.659753
C4    C     C_R   0.610725 0.155510 0.616210 0.659752
O9    O     O_3   0.502130 0.662240 0.550470 -0.379730
O10   O     O_3   0.497870 0.162240 0.449530 -0.379729
V1    V     V_3+5 0.499600 0.935390 0.490640 1.504534
V2    V     V_3+5 0.500400 0.435390 0.509360 1.504533
C5    C     C_2   0.790043 0.259862 0.779948 -0.124484
C6    C     C_2   0.209957 0.759862 0.220052 -0.124484
C7    C     C_2   0.835904 0.113156 0.804218 0.253100
C8    C     C_2   0.164095 0.613155 0.195782 0.253098
H1    H     H_    0.793449 0.382445 0.817495 0.122396
H2    H     H_    0.206551 0.882445 0.182505 0.122396
C9    C     C_2   0.732931 0.259994 0.702634 -0.099490
C10   C     C_2   0.267069 0.759994 0.297366 -0.099489
C11   C     C_2   0.670498 0.146386 0.691637 0.254713
C12   C     C_2   0.329502 0.646386 0.308363 0.254712
H3    H     H_    0.741527 0.357451 0.655743 0.171544
H4    H     H_    0.258472 0.857450 0.344257 0.171545
C13   C     C_R   0.333092 0.138001 0.638089 -0.228512
C14   C     C_R   0.666908 0.638001 0.361911 -0.228513
C15   C     C_R   0.168118 0.129450 0.865780 -0.117499
C16   C     C_R   0.831881 0.629449 0.134220 -0.117499
C17   C     C_R   0.287406 0.281311 0.840722 -0.168860
C18   C     C_R   0.712594 0.781311 0.159278 -0.168859
C19   C     C_R   0.232038 0.248698 0.891123 0.358377
C20   C     C_R   0.767962 0.748698 0.108877 0.358377
C21   C     C_R   0.161867 0.043175 0.789471 -0.212448
C22   C     C_R   0.838133 0.543174 0.210529 -0.212448
C23   C     C_R   0.218256 0.075653 0.738882 0.017434
C24   C     C_R   0.781744 0.575653 0.261118 0.017434
C25   C     C_R   0.282741 0.192147 0.765458 0.010605
C26   C     C_R   0.717259 0.692147 0.234542 0.010605
C27   C     C_R   0.342041 0.215729 0.717010 0.328810
C28   C     C_R   0.657959 0.715730 0.282989 0.328811
C29   C     C_R   0.266220 0.028066 0.611195 0.347288
C30   C     C_R   0.733779 0.528066 0.388805 0.347288
C31   C     C_R   0.210532 0.995597 0.661667 -0.163087
C32   C     C_R   0.789468 0.495596 0.338332 -0.163086
H5    H     H_    0.333498 0.379727 0.860437 0.177158
H6    H     H_    0.666502 0.879727 0.139562 0.177158
H7    H     H_    0.160527 0.908620 0.639954 0.181942
H8    H     H_    0.839473 0.408620 0.360045 0.181942
H9    H     H_    0.111889 0.955449 0.768521 0.152119
H10   H     H_    0.888110 0.455449 0.231479 0.152119
O11   O     O_R   0.920750 0.773600 0.061260 -0.512703
O12   O     O_R   0.079250 0.273600 0.938740 -0.512703
O13   O     O_R   0.085340 0.439850 0.092570 -0.498932
O14   O     O_R   0.914660 0.939850 0.907430 -0.498932
C33   C     C_R   0.109027 0.608402 0.117456 0.701675
C34   C     C_R   0.890973 0.108402 0.882544 0.701675
O15   O     O_R   0.921720 0.444130 0.070790 -0.543300
O16   O     O_R   0.078280 0.944130 0.929210 -0.543300
O17   O     O_R   0.914480 0.269530 0.916840 -0.558504
O18   O     O_R   0.085520 0.769530 0.083160 -0.558504
C35   C     C_R   0.895853 0.613078 0.085406 0.739226
C36   C     C_R   0.104147 0.113078 0.914593 0.739226
O19   O     O_3   0.997840 0.601520 0.949550 -0.375387
O20   O     O_3   0.002160 0.101520 0.050450 -0.375387
V3    V     V_3+5 0.000400 0.328340 0.009360 1.579654
V4    V     V_3+5 0.999600 0.828340 0.990640 1.579654
Cl1   Cl    Cl    0.840434 0.925924 0.737276 -0.640518
Cl2   Cl    Cl    0.159565 0.425924 0.262725 -0.640518
O21   O     O_3   0.652840 0.054649 0.759165 -0.590300
C37   C     C_3   0.657214 0.862641 0.750214 0.150873
H11   H     H_    0.701061 0.809837 0.801429 0.203194
H12   H     H_    0.676458 0.816609 0.692759 0.156908
C38   C     C_3   0.577916 0.778243 0.756455 -0.374704
H13   H     H_    0.558461 0.823764 0.813330 0.205200
H14   H     H_    0.533695 0.823954 0.704157 0.204415
C39   C     C_3   0.583218 0.570274 0.756859 -0.766704
H15   H     H_    0.523392 0.513095 0.743529 0.269283
H16   H     H_    0.613486 0.520245 0.816887 0.233553
H17   H     H_    0.616278 0.523841 0.709468 0.233977
O22   O     O_3   0.347160 0.554649 0.240835 -0.590300
C40   C     C_3   0.342786 0.362642 0.249786 0.150873
H18   H     H_    0.298938 0.309839 0.198571 0.203194
H19   H     H_    0.323542 0.316610 0.307241 0.156908
C41   C     C_3   0.422083 0.278243 0.243544 -0.374703
H20   H     H_    0.441538 0.323765 0.186669 0.205201
H21   H     H_    0.466305 0.323951 0.295841 0.204415
C42   C     C_3   0.416780 0.070274 0.243139 -0.766713
H22   H     H_    0.476606 0.013094 0.256464 0.269283
H23   H     H_    0.386508 0.020246 0.183112 0.233554
H24   H     H_    0.383724 0.023841 0.290532 0.233981
O23   O     O_3   0.410309 0.307564 0.748728 -0.579469
C43   C     C_3   0.464494 0.183704 0.793858 0.027372
H25   H     H_    0.516421 0.177446 0.763110 0.171039
H26   H     H_    0.442646 0.039618 0.796789 0.102468
C44   C     C_3   0.489474 0.254821 0.881140 -0.346527
H27   H     H_    0.498582 0.405893 0.880580 0.216892
H28   H     H_    0.442617 0.225517 0.917322 0.199159
C45   C     C_3   0.564549 0.163629 0.924120 -0.718485
H29   H     H_    0.556157 0.012948 0.928303 0.234401
H30   H     H_    0.579711 0.219150 0.986809 0.227216
H31   H     H_    0.614002 0.192848 0.891417 0.275064
O24   O     O_3   0.589692 0.807564 0.251271 -0.579468
C46   C     C_3   0.535506 0.683705 0.206142 0.027373
H32   H     H_    0.483579 0.677444 0.236890 0.171038
H33   H     H_    0.557355 0.539619 0.203210 0.102468
C47   C     C_3   0.510525 0.754824 0.118860 -0.346531
H34   H     H_    0.501416 0.905894 0.119421 0.216893
H35   H     H_    0.557382 0.725523 0.082677 0.199160
C48   C     C_3   0.435450 0.663631 0.075880 -0.718488
H36   H     H_    0.443843 0.512951 0.071697 0.234402
H37   H     H_    0.420289 0.719153 0.013191 0.227216
H38   H     H_    0.385997 0.692848 0.108582 0.275066
Cl3   Cl    Cl    0.249290 0.928212 0.513651 -0.630927
Cl4   Cl    Cl    0.750710 0.428211 0.486348 -0.630928
Cl5   Cl    Cl    0.246681 0.357380 0.987080 -0.699152
Cl6   Cl    Cl    0.753319 0.857380 0.012919 -0.699152

loop_
_geom_bond_atom_site_label_1
_geom_bond_atom_site_label_2
_ccdc_geom_bond_type
C15   C36   S    
C46   H33   S    
O21   C37   S    
C19   Cl5   S    
O23   C43   S    
C18   C26   A    
O2    C4    A    
C2    O7    A    
C23   C25   A    
C38   H13   S    
O5    C3    A    
C30   Cl4   S    
C33   O18   A    
C5    C9    S    
C37   H12   S    
C34   O17   A    
C6    C10   S    
C16   C20   A    
C29   Cl3   S    
C10   C12   D    
C48   H36   S    
O13   C33   A    
O24   C46   S    
O14   C34   A    
C43   C44   S    
O16   V4    S    
C45   H31   S    
C47   H34   S    
C17   C19   A    
C7    Cl1   S    
O17   V3    S    
C43   H26   S    
O20   V3    S    
C37   C38   S    
O1    C3    A    
C27   O23   S    
C46   H32   S    
C16   C22   A    
C6    C8    D    
C48   H38   S    
C21   H9    S    
C29   C31   A    
O6    V2    S    
C13   C27   A    
C25   C27   A    
C14   C28   A    
C26   C28   A    
C39   H17   S    
O11   C35   A    
C38   H14   S    
C30   C32   A    
C18   H6    S    
C37   H11   S    
O16   C36   A    
C40   H19   S    
O22   C40   S    
C39   H16   S    
C42   H22   S    
O14   V4    S    
C31   H7    S    
C3    C12   S    
C40   H18   S    
C5    H1    S    
C15   C21   A    
C13   C29   A    
O4    V2    S    
O18   V4    S    
C42   H23   S    
C24   C26   A    
C44   H27   S    
C22   H10   S    
C41   C42   S    
O6    C4    A    
C43   H25   S    
C2    C13   S    
O1    V2    S    
C8    C33   S    
C45   H30   S    
O2    V1    S    
C47   C48   S    
O4    C2    A    
C44   H28   S    
C41   H21   S    
C9    H3    S    
C46   C47   S    
C15   C19   A    
O3    V1    S    
C23   C31   A    
C1    C14   S    
C40   C41   S    
O15   V3    S    
C24   C32   A    
C12   O22   S    
C6    H2    S    
C14   C30   A    
C10   H4    S    
C39   H15   S    
O3    C1    A    
C28   O24   S    
C7    C34   S    
C4    C11   S    
O19   V4    S    
C17   C25   A    
O7    V1    S    
C1    O8    A    
C21   C23   A    
O8    V2    S    
C42   H24   S    
C22   C24   A    
C38   C39   S    
O12   C36   A    
O5    V1    S    
C5    C7    D    
C18   C20   A    
C11   O21   S    
C9    C11   D    
C45   H29   S    
C20   Cl6   S    
C47   H35   S    
O11   V4    S    
O15   C35   A    
C32   H8    S    
C44   C45   S    
C41   H20   S    
O12   V3    S    
O9    V2    S    
O10   V1    S    
C8    Cl2   S    
O13   V3    S    
C17   H5    S    
C16   C35   S    
C48   H37   S    
