data_mof_unit_67252.cif
_audit_creation_date              2013-03-05T16:01:27-0500
_audit_creation_method            fapswitch 2.2
_symmetry_space_group_name_H-M    P1
_symmetry_Int_Tables_number       1
_space_group_crystal_system       triclinic
_cell_length_a                    20.116245
_cell_length_b                    20.360182
_cell_length_c                    8.523819
_cell_angle_alpha                 90.017972
_cell_angle_beta                  91.548571
_cell_angle_gamma                 90.008697
_cell_volume                      3489.82878197

loop_
_atom_site_label
_atom_site_type_symbol
_atom_site_description
_atom_site_fract_x
_atom_site_fract_y
_atom_site_fract_z
_atom_type_partial_charge
P1    P     P_3+3 0.136530 0.426510 0.931350 0.525852
P2    P     P_3+3 0.136530 0.573490 0.431350 0.503502
P3    P     P_3+3 0.636530 0.926510 0.931350 0.532555
P4    P     P_3+3 0.636530 0.073490 0.431350 0.531904
O1    O     O_2   0.130070 0.404060 0.104920 -0.318673
O2    O     O_2   0.130070 0.595940 0.604920 -0.312234
O3    O     O_2   0.630070 0.904060 0.104920 -0.313827
O4    O     O_2   0.630070 0.095940 0.604920 -0.312978
O5    O     O_3   0.075780 0.466370 0.861070 -0.357759
O6    O     O_3   0.075780 0.533630 0.361070 -0.346191
O7    O     O_3   0.575780 0.966370 0.861070 -0.352586
O8    O     O_3   0.575780 0.033630 0.361070 -0.353299
O9    O     O_3   0.022320 0.344950 0.359800 -0.354276
O10   O     O_3   0.022320 0.655050 0.859800 -0.359996
O11   O     O_3   0.522320 0.844950 0.359800 -0.345075
O12   O     O_3   0.522320 0.155050 0.859800 -0.354702
O13   O     O_2   0.130565 0.285161 0.249702 -0.326182
O14   O     O_2   0.131317 0.715055 0.756071 -0.312717
O15   O     O_2   0.628332 0.780708 0.252260 -0.324833
O16   O     O_2   0.630336 0.216171 0.752222 -0.318893
O17   O     O_3   0.211213 0.471798 0.938588 -0.592652
O18   O     O_3   0.212672 0.531262 0.435441 -0.677075
O19   O     O_3   0.712250 0.969522 0.933255 -0.613218
O20   O     O_3   0.712095 0.030213 0.433464 -0.614528
O21   O     O_3   0.051381 0.203467 0.391729 -0.545900
O22   O     O_3   0.050248 0.797501 0.889091 -0.545853
O23   O     O_3   0.544694 0.704037 0.400090 -0.583040
O24   O     O_3   0.549040 0.295944 0.894518 -0.542498
H1    H     H_    0.992712 0.233907 0.201059 0.169432
H2    H     H_    0.990303 0.765395 0.702380 0.169020
H3    H     H_    0.500742 0.731016 0.185476 0.179501
H4    H     H_    0.493798 0.264165 0.698101 0.168056
C1    C     C_3   0.993005 0.127798 0.224291 0.018334
C2    C     C_3   0.989033 0.871637 0.723936 0.022766
C3    C     C_3   0.502161 0.625419 0.215358 0.012947
C4    C     C_3   0.499339 0.370163 0.709829 0.026174
H5    H     H_    0.946256 0.120770 0.153867 0.142953
H6    H     H_    0.941534 0.877824 0.656066 0.145121
H7    H     H_    0.465840 0.617234 0.117114 0.150897
H8    H     H_    0.454787 0.378328 0.632556 0.137885
H9    H     H_    0.035125 0.122271 0.143975 0.172040
H10   H     H_    0.030186 0.877548 0.641089 0.174532
H11   H     H_    0.552743 0.619914 0.167753 0.189307
H12   H     H_    0.543730 0.371123 0.635972 0.188692
P5    P     P_3+3 0.863410 0.426100 0.379280 0.464617
P6    P     P_3+3 0.863410 0.573900 0.879280 0.479874
P7    P     P_3+3 0.363410 0.926100 0.379280 0.473749
P8    P     P_3+3 0.363410 0.073900 0.879280 0.472461
P9    P     P_3+3 0.914024 0.287031 0.923274 0.453018
P10   P     P_3+3 0.913174 0.712218 0.423849 0.454004
P11   P     P_3+3 0.413156 0.787925 0.923400 0.437082
P12   P     P_3+3 0.412872 0.211746 0.422995 0.457823
O25   O     O_2   0.869860 0.403670 0.205810 -0.374658
O26   O     O_2   0.869860 0.596330 0.705810 -0.388722
O27   O     O_2   0.369860 0.903670 0.205810 -0.380333
O28   O     O_2   0.369860 0.096330 0.705810 -0.380318
O29   O     O_3   0.977590 0.344880 0.951200 -0.359621
O30   O     O_3   0.977590 0.655120 0.451200 -0.361463
O31   O     O_3   0.477590 0.844880 0.951200 -0.361645
O32   O     O_3   0.477590 0.155120 0.451200 -0.360665
O33   O     O_2   0.867851 0.292180 0.064789 -0.390556
O34   O     O_2   0.866941 0.706652 0.565060 -0.385845
O35   O     O_2   0.367783 0.791221 0.066676 -0.418348
O36   O     O_2   0.367024 0.207309 0.565083 -0.388536
O37   O     O_3   0.792589 0.475931 0.368632 -0.553911
O38   O     O_3   0.793855 0.522367 0.871809 -0.533221
O39   O     O_3   0.293409 0.977263 0.370200 -0.542012
O40   O     O_3   0.292830 0.023821 0.870553 -0.529420
O41   O     O_3   0.950047 0.209404 0.946243 -0.589402
O42   O     O_3   0.948053 0.790351 0.446258 -0.589773
O43   O     O_3   0.448902 0.709824 0.935453 -0.590152
O44   O     O_3   0.447821 0.289989 0.440459 -0.588801
C5    C     C_3   0.983524 0.189922 0.810278 0.748122
C6    C     C_3   0.983588 0.808768 0.312531 0.742859
C7    C     C_3   0.490624 0.698690 0.807175 0.712135
C8    C     C_3   0.485441 0.305470 0.307794 0.705950
H13   H     H_    0.980553 0.225987 0.712386 -0.040815
H14   H     H_    0.982453 0.771717 0.216507 -0.043689
H15   H     H_    0.494576 0.741319 0.725886 -0.028161
H16   H     H_    0.485144 0.266539 0.215961 -0.037450
C9    C     C_3   0.952073 0.125621 0.752881 -0.778857
C10   C     C_3   0.952559 0.872242 0.248780 -0.781607
C11   C     C_3   0.462418 0.640913 0.712376 -0.707097
C12   C     C_3   0.456031 0.367816 0.233959 -0.707737
H17   H     H_    0.956958 0.087752 0.846002 0.274493
H18   H     H_    0.954984 0.910883 0.340520 0.275244
H19   H     H_    0.495600 0.628967 0.615105 0.272768
H20   H     H_    0.458921 0.409175 0.318969 0.274244
H21   H     H_    0.898577 0.132715 0.723367 0.214427
H22   H     H_    0.899783 0.864247 0.213340 0.215147
H23   H     H_    0.458409 0.597265 0.788950 0.305052
H24   H     H_    0.403201 0.359843 0.198993 0.218652
C13   C     C_3   0.806446 0.467940 0.777344 0.181982
C14   C     C_3   0.807783 0.537341 0.305678 0.221159
C15   C     C_3   0.305813 0.966607 0.786338 0.250725
C16   C     C_3   0.307326 0.034637 0.287156 0.253992
H25   H     H_    0.816584 0.484170 0.656812 0.113559
H26   H     H_    0.828929 0.531144 0.188007 0.099039
H27   H     H_    0.321736 0.978852 0.666781 0.097277
H28   H     H_    0.328464 0.022541 0.172294 0.103613
H29   H     H_    0.849794 0.440219 0.826364 0.072579
H30   H     H_    0.843901 0.563796 0.383970 0.090752
H31   H     H_    0.345284 0.937684 0.848613 0.057132
H32   H     H_    0.343232 0.065244 0.356506 0.070852
C17   C     C_3   0.745365 0.422313 0.772387 0.004399
C18   C     C_3   0.743695 0.578359 0.290036 -0.060525
C19   C     C_3   0.242194 0.925037 0.775286 0.017089
C20   C     C_3   0.242834 0.074015 0.258370 -0.062795
H33   H     H_    0.756749 0.379110 0.699459 0.087818
H34   H     H_    0.756454 0.626722 0.239857 0.098810
H35   H     H_    0.254256 0.876437 0.724534 0.052451
H36   H     H_    0.255122 0.118917 0.192440 0.093497
Ba1   Ba    Ba6+2 0.999980 0.452130 0.155200 1.638929
Ba2   Ba    Ba6+2 0.999980 0.547870 0.655200 1.637616
Ba3   Ba    Ba6+2 0.499980 0.952130 0.155200 1.642671
Ba4   Ba    Ba6+2 0.499980 0.047870 0.655200 1.646737
C21   C     C_3   0.210498 0.523223 0.047673 0.589757
C22   C     C_3   0.214827 0.476794 0.535038 0.538591
C23   C     C_3   0.714769 0.023372 0.034622 0.577485
C24   C     C_3   0.714262 0.976283 0.534587 0.578476
H37   H     H_    0.173692 0.515092 0.140098 0.035655
H38   H     H_    0.184226 0.484027 0.639930 0.064284
H39   H     H_    0.683333 0.016317 0.138162 0.049800
H40   H     H_    0.682782 0.983435 0.638018 0.050180
C25   C     C_3   0.278909 0.529683 0.133072 -0.082338
C26   C     C_3   0.288023 0.467218 0.589900 -0.122622
C27   C     C_3   0.787829 0.031804 0.092083 -0.112672
C28   C     C_3   0.787228 0.967467 0.592372 -0.114777
H41   H     H_    0.282049 0.576845 0.198666 0.100803
H42   H     H_    0.302412 0.509176 0.666951 0.175761
H43   H     H_    0.801523 0.989147 0.167811 0.149628
H44   H     H_    0.800919 0.009710 0.669498 0.149612
H45   H     H_    0.283249 0.489390 0.220056 0.139791
H46   H     H_    0.321249 0.468783 0.487842 0.167145
H47   H     H_    0.821383 0.030800 0.990504 0.184564
H48   H     H_    0.820934 0.968930 0.491106 0.184283
O45   O     O_3   0.924190 0.533610 0.949240 -0.387866
O46   O     O_3   0.924190 0.466390 0.449240 -0.396045
O47   O     O_3   0.424190 0.033610 0.949240 -0.395109
O48   O     O_3   0.424190 0.966390 0.449240 -0.394105
P13   P     P_3+3 0.082377 0.717277 0.893172 0.539228
P14   P     P_3+3 0.083580 0.283687 0.390587 0.537287
P15   P     P_3+3 0.582871 0.216606 0.892321 0.545300
P16   P     P_3+3 0.581498 0.782272 0.393532 0.526968
C29   C     C_3   0.993763 0.197109 0.296879 0.305008
C30   C     C_3   0.991612 0.802538 0.797510 0.303781
C31   C     C_3   0.495307 0.695377 0.282492 0.290032
C32   C     C_3   0.494433 0.302721 0.790272 0.288608
H49   H     H_    0.976715 0.107903 0.646393 0.287035
H50   H     H_    0.979235 0.889428 0.144681 0.286836
H51   H     H_    0.412538 0.652806 0.662151 0.207840
H52   H     H_    0.483348 0.381229 0.127695 0.280776
C33   C     C_R   0.239005 0.302177 0.008149 -0.015431
C34   C     C_R   0.238573 0.697461 0.510575 -0.089504
C35   C     C_R   0.738497 0.801986 0.008800 -0.019547
C36   C     C_R   0.739205 0.197387 0.508100 -0.022836
C37   C     C_R   0.150570 0.347569 0.825188 0.229185
C38   C     C_R   0.149167 0.652898 0.327672 0.236625
C39   C     C_R   0.649849 0.847278 0.825954 0.241335
C40   C     C_R   0.650096 0.152464 0.325839 0.244020
C41   C     C_R   0.113601 0.339164 0.685647 -0.451857
C42   C     C_R   0.111511 0.661759 0.189038 -0.449581
C43   C     C_R   0.612685 0.838760 0.686770 -0.456198
C44   C     C_R   0.613200 0.160638 0.186258 -0.450577
C45   C     C_R   0.130916 0.291358 0.577253 0.327686
C46   C     C_R   0.127884 0.710586 0.082600 0.344287
C47   C     C_R   0.629209 0.790197 0.579594 0.328317
C48   C     C_R   0.629356 0.209531 0.079908 0.321111
C49   C     C_R   0.180718 0.245964 0.615400 -0.137806
C50   C     C_R   0.177833 0.755758 0.121086 -0.138508
C51   C     C_R   0.678672 0.744516 0.618199 -0.185689
C52   C     C_R   0.677272 0.256464 0.120534 -0.165454
C53   C     C_R   0.213804 0.247457 0.762139 0.114363
C54   C     C_R   0.212086 0.753250 0.266342 0.084028
C55   C     C_R   0.712491 0.746556 0.764061 0.121328
C56   C     C_R   0.711910 0.253808 0.265391 0.116688
C57   C     C_R   0.201189 0.300049 0.866753 0.034980
C58   C     C_R   0.200120 0.700090 0.369605 0.001021
C59   C     C_R   0.700482 0.799682 0.867633 0.053021
C60   C     C_R   0.700661 0.200106 0.367722 0.051072
H53   H     H_    0.073449 0.372726 0.656363 0.175908
H54   H     H_    0.072307 0.627390 0.157654 0.168082
H55   H     H_    0.572846 0.872614 0.656988 0.175074
H56   H     H_    0.573855 0.126335 0.155617 0.174085
C61   C     C_R   0.796229 0.698575 0.947042 -0.038995
C62   C     C_R   0.796831 0.300889 0.446664 -0.045390
C63   C     C_R   0.297378 0.199282 0.944873 -0.051061
C64   C     C_R   0.296278 0.801000 0.448214 -0.032779
C65   C     C_R   0.784357 0.751820 0.050609 0.044462
C66   C     C_R   0.785217 0.247472 0.549793 0.049831
C67   C     C_R   0.284985 0.252065 0.049389 0.043871
C68   C     C_R   0.284529 0.747758 0.551777 0.058882
C69   C     C_R   0.846164 0.650614 0.989996 0.252968
C70   C     C_R   0.847202 0.348614 0.488584 0.237756
C71   C     C_R   0.347367 0.151340 0.987640 0.243817
C72   C     C_R   0.346275 0.849152 0.490164 0.233790
C73   C     C_R   0.881408 0.657374 0.132380 -0.549952
C74   C     C_R   0.883010 0.341383 0.630181 -0.538692
C75   C     C_R   0.382352 0.157853 0.130275 -0.544731
C76   C     C_R   0.381727 0.842402 0.632002 -0.534610
C77   C     C_R   0.866033 0.706849 0.237291 0.214123
C78   C     C_R   0.867066 0.292374 0.736133 0.207003
C79   C     C_R   0.365887 0.206364 0.236593 0.219022
C80   C     C_R   0.365828 0.793506 0.737869 0.221092
C81   C     C_R   0.818201 0.754105 0.196843 -0.278632
C82   C     C_R   0.819074 0.245239 0.695948 -0.276588
C83   C     C_R   0.318099 0.253670 0.196442 -0.279238
C84   C     C_R   0.318274 0.745902 0.697886 -0.282702
C85   C     C_R   0.758622 0.696438 0.805052 -0.018558
C86   C     C_R   0.758081 0.303846 0.306731 -0.024467
C87   C     C_R   0.259896 0.197321 0.802795 -0.021343
C88   C     C_R   0.258384 0.803174 0.307310 -0.026533
H57   H     H_    0.192796 0.208718 0.531299 0.128036
H58   H     H_    0.189633 0.792942 0.037008 0.113025
H59   H     H_    0.690477 0.707258 0.534042 0.130188
H60   H     H_    0.686444 0.295523 0.039050 0.151793
H61   H     H_    0.808139 0.793028 0.279261 0.216004
H62   H     H_    0.808795 0.206514 0.778660 0.213913
H63   H     H_    0.307744 0.292299 0.279461 0.218288
H64   H     H_    0.308840 0.706636 0.779866 0.221070
H65   H     H_    0.919508 0.622070 0.165438 0.170929
H66   H     H_    0.921731 0.376204 0.662135 0.173454
H67   H     H_    0.420602 0.122668 0.163101 0.170617
H68   H     H_    0.420096 0.877549 0.664357 0.170683
H69   H     H_    0.233134 0.342625 0.087610 0.196221
H70   H     H_    0.232813 0.657089 0.591113 0.188271
H71   H     H_    0.732916 0.842670 0.087571 0.194376
H72   H     H_    0.733931 0.156446 0.586312 0.194060
H73   H     H_    0.764529 0.655934 0.724858 0.161810
H74   H     H_    0.763216 0.345068 0.228986 0.155127
H75   H     H_    0.265896 0.157023 0.722040 0.167612
H76   H     H_    0.264174 0.843945 0.228978 0.161618
N1    N     N_R   0.687007 0.454711 0.702276 0.274753
O49   O     O_R   0.661190 0.505995 0.768165 -0.241005
O50   O     O_R   0.658927 0.430793 0.575416 -0.311353
N2    N     N_R   0.694830 0.546390 0.185285 0.270144
O51   O     O_R   0.675497 0.575522 0.056323 -0.294812
O52   O     O_R   0.665117 0.492759 0.227944 -0.257987
N3    N     N_R   0.191503 0.956600 0.675222 0.266315
O53   O     O_R   0.161887 0.009607 0.722204 -0.248383
O54   O     O_R   0.169276 0.926890 0.549276 -0.303024
N4    N     N_R   0.193534 0.036461 0.166006 0.284696
O55   O     O_R   0.168162 0.061398 0.037343 -0.275916
O56   O     O_R   0.168766 0.982327 0.220643 -0.249880
N5    N     N_3   0.730410 0.398415 0.928594 -0.169903
H77   H     H_    0.771794 0.372202 0.970530 0.095256
H78   H     H_    0.723982 0.438054 0.004129 0.235494
N6    N     N_3   0.715191 0.590244 0.443327 -0.209812
H79   H     H_    0.708105 0.545548 0.499579 0.232865
H80   H     H_    0.667684 0.610123 0.424816 0.182038
N7    N     N_3   0.216358 0.915306 0.931435 -0.103832
H81   H     H_    0.172439 0.888199 0.919808 0.204810
H82   H     H_    0.250877 0.886714 0.994077 0.084764
N8    N     N_3   0.214989 0.094975 0.406357 -0.209447
H83   H     H_    0.200573 0.053595 0.468489 0.248009
H84   H     H_    0.171441 0.121078 0.379278 0.189782
N9    N     N_R   0.191509 0.582338 0.963878 0.180400
O57   O     O_R   0.132798 0.583617 0.898580 -0.352162
O58   O     O_R   0.231803 0.631523 0.945370 -0.455909
N10   N     N_R   0.190098 0.420993 0.445649 0.200643
O59   O     O_R   0.127002 0.420134 0.412500 -0.356637
O60   O     O_R   0.229460 0.388729 0.355035 -0.443547
N11   N     N_R   0.691542 0.079657 0.945348 0.197695
O61   O     O_R   0.628563 0.081198 0.910922 -0.362706
O62   O     O_R   0.731738 0.109565 0.852294 -0.443927
N12   N     N_R   0.690858 0.920093 0.445076 0.198664
O63   O     O_R   0.627799 0.918358 0.411654 -0.361444
O64   O     O_R   0.730871 0.890361 0.351279 -0.443055
N13   N     N_R   0.334962 0.524714 0.028688 0.304829
O65   O     O_R   0.381462 0.482088 0.060566 -0.303079
O66   O     O_R   0.345801 0.570184 0.925527 -0.358608
N14   N     N_R   0.299018 0.405482 0.674175 0.232580
O67   O     O_R   0.305827 0.351143 0.596071 -0.396679
O68   O     O_R   0.318542 0.406835 0.820620 -0.357444
N15   N     N_R   0.799046 0.092850 0.179378 0.226912
O69   O     O_R   0.803397 0.148235 0.104429 -0.398813
O70   O     O_R   0.820035 0.090389 0.324800 -0.395269
N16   N     N_R   0.798179 0.905943 0.677790 0.226261
O71   O     O_R   0.803431 0.851091 0.600939 -0.397363
O72   O     O_R   0.818314 0.907604 0.823885 -0.396429
N17   N     N_3   0.935298 0.205240 0.392477 -0.195283
H85   H     H_    0.939041 0.250932 0.446831 0.106404
H86   H     H_    0.893385 0.207500 0.317497 0.169084
N18   N     N_3   0.934281 0.793779 0.896489 -0.197629
H87   H     H_    0.891733 0.790846 0.823690 0.164546
H88   H     H_    0.939133 0.748262 0.951244 0.102638
N19   N     N_3   0.430024 0.703527 0.350637 -0.195771
H89   H     H_    0.426240 0.752242 0.387006 0.123728
H90   H     H_    0.393418 0.696388 0.262881 0.147002
N20   N     N_3   0.433173 0.299295 0.877657 -0.190179
H91   H     H_    0.393298 0.294835 0.797323 0.180514
H92   H     H_    0.434348 0.255862 0.942436 0.102683
N21   N     N_R   0.998096 0.076813 0.344536 0.276221
O73   O     O_R   0.054718 0.065244 0.416479 -0.294445
O74   O     O_R   0.948136 0.037842 0.367790 -0.370657
N22   N     N_R   0.994701 0.923027 0.843169 0.274428
O75   O     O_R   0.051917 0.935674 0.911199 -0.279909
O76   O     O_R   0.944471 0.961279 0.869250 -0.374138
N23   N     N_R   0.491722 0.575263 0.334659 0.270973
O77   O     O_R   0.541321 0.539570 0.385993 -0.283716
O78   O     O_R   0.431727 0.560780 0.376425 -0.403034
N24   N     N_R   0.504835 0.423934 0.822544 0.288081
O79   O     O_R   0.557535 0.429623 0.913403 -0.256464
O80   O     O_R   0.463268 0.472631 0.811647 -0.295088
N25   N     N_R   0.053944 0.179497 0.849974 0.218857
O81   O     O_R   0.082334 0.212763 0.963509 -0.408433
O82   O     O_R   0.090834 0.144807 0.758139 -0.343947
N26   N     N_R   0.053281 0.819936 0.358350 0.217971
O83   O     O_R   0.081005 0.784411 0.468669 -0.395510
O84   O     O_R   0.090652 0.857272 0.273661 -0.335674
N27   N     N_R   0.557707 0.683824 0.867600 0.205433
O85   O     O_R   0.585953 0.723173 0.968985 -0.422892
O86   O     O_R   0.591195 0.633892 0.816271 -0.329139
N28   N     N_R   0.554660 0.316047 0.358331 0.208602
O87   O     O_R   0.582455 0.275801 0.458503 -0.419282
O88   O     O_R   0.590369 0.362422 0.297640 -0.322858

loop_
_geom_bond_atom_site_label_1
_geom_bond_atom_site_label_2
_geom_bond_distance
_ccdc_geom_bond_type
C2    H10   1.109097 S    
P13   C46   1.839547 S    
O5    Ba2   2.831218 S    
C26   N14   1.461844 S    
N18   H87   1.045200 S    
C88   H76   1.073756 S    
C15   H27   1.105018 S    
C22   N10   1.448301 S    
O18   C22   1.396798 S    
Ba2   O45   2.982842 S    
O17   C21   1.400402 S    
C35   C65   1.415647 A    
P6    O45   1.576271 S    
C66   C82   1.404321 A    
C80   C84   1.397328 A    
C15   H31   1.112000 S    
N14   O67   1.300174 A    
O42   C6    1.412484 S    
N4    O56   1.301020 A    
N19   H90   1.045482 S    
P4    O8    1.571861 S    
O8    Ba3   2.830304 S    
H3    C31   1.107946 S    
C36   H72   1.074555 S    
C16   C20   1.539258 S    
P9    O41   1.747669 S    
N5    H77   1.043945 S    
P11   O43   1.747184 S    
C5    C9    1.528473 S    
N6    H80   1.045946 S    
N24   O80   1.298830 A    
C45   C49   1.395177 A    
O20   C24   1.396093 S    
O40   C15   1.396480 S    
C43   H55   1.082158 S    
C44   C48   1.390948 A    
C13   H29   1.110913 S    
C47   C51   1.395033 A    
N28   O87   1.299193 A    
O10   Ba2   2.821413 S    
O13   P14   1.548456 D    
C62   C66   1.421886 A    
P12   O44   1.745876 S    
O28   Ba4   2.841229 S    
O9    P14   1.768187 S    
O6    Ba1   2.830304 S    
C87   H75   1.079692 S    
C2    N22   1.460725 S    
N22   O75   1.300390 A    
C63   C87   1.409729 A    
N13   O66   1.299481 A    
Ba1   O45   2.831337 S    
C4    H12   1.106593 S    
C49   H57   1.075693 S    
P11   C80   1.827306 S    
C50   C54   1.401541 A    
C33   H69   1.074655 S    
P5    C70   1.865598 S    
N11   O62   1.299439 A    
C16   H32   1.111765 S    
O1    Ba1   2.837424 S    
C12   H20   1.111239 S    
C27   N15   1.462753 S    
O29   Ba1   2.819526 S    
C23   H39   1.108895 S    
C11   H23   1.107008 S    
P12   C79   1.829893 S    
P10   O42   1.746904 S    
P2    Ba2   3.426594 S    
C51   C55   1.401638 A    
C4    C32   1.539348 S    
C9    H49   1.106314 S    
N4    O55   1.300458 A    
C3    C31   1.542428 S    
C38   C58   1.442661 A    
C27   H43   1.112493 S    
P3    O7    1.572249 S    
O4    Ba4   2.837243 S    
C25   H41   1.111915 S    
C26   H46   1.111728 S    
C26   H42   1.110938 S    
C52   H60   1.075209 S    
C7    H15   1.114936 S    
C41   C45   1.392574 A    
C34   C58   1.412395 A    
C36   C60   1.409222 A    
O21   P14   1.757076 S    
C29   N17   1.458207 S    
C35   H71   1.073922 S    
N24   O79   1.301012 A    
C18   N2    1.462587 S    
C73   H65   1.082649 S    
O19   C23   1.395793 S    
Ba3   Ba4   4.685975 S    
O26   Ba2   2.841229 S    
P9    O29   1.749833 S    
N2    O51   1.299519 A    
N9    O57   1.292224 A    
C22   H38   1.108912 S    
O22   C30   1.400543 S    
O2    Ba2   2.837243 S    
P12   O32   1.750890 S    
N25   O82   1.301352 A    
P7    O48   1.575883 S    
C74   C78   1.389351 A    
N8    H84   1.045191 S    
C3    H11   1.111257 S    
N1    O49   1.300366 A    
P8    Ba4   3.429284 S    
C7    N27   1.463080 S    
P5    O25   1.556179 D    
P3    C39   1.869078 S    
C28   N16   1.462785 S    
N26   O84   1.301376 A    
C71   C75   1.394514 A    
C33   C57   1.408390 A    
C24   N12   1.446551 S    
P16   C47   1.838477 S    
C37   C57   1.442048 A    
P2    O18   1.756141 S    
N21   O73   1.300504 A    
N1    O50   1.300784 A    
C76   C80   1.386990 A    
C32   N20   1.458737 S    
N3    O54   1.300723 A    
C67   C83   1.403839 A    
C17   N5    1.456744 S    
N12   O64   1.299305 A    
O38   C13   1.396798 S    
C46   C50   1.394548 A    
N27   O86   1.301787 A    
P8    C71   1.859731 S    
P5    O37   1.749493 S    
O32   Ba4   2.820477 S    
C13   H25   1.103566 S    
C30   N18   1.458162 S    
N20   H92   1.042612 S    
C33   C67   1.415285 A    
C17   H33   1.104539 S    
C5    H13   1.112062 S    
C20   N8    1.457731 S    
C19   H35   1.109337 S    
C62   C70   1.441693 A    
O14   P13   1.548903 D    
C8    H16   1.113739 S    
N10   O59   1.292953 A    
C61   C65   1.422139 A    
N17   H86   1.045169 S    
C64   C68   1.421985 A    
N18   H88   1.041170 S    
C51   H59   1.074858 S    
C70   C74   1.396571 A    
C16   H28   1.105627 S    
P5    O46   1.575883 S    
C39   C43   1.395846 A    
C55   C85   1.416860 A    
C41   H53   1.082142 S    
C56   C60   1.420814 A    
C8    N28   1.462272 S    
N14   O68   1.298720 A    
O30   Ba2   2.820477 S    
C77   C81   1.397491 A    
N16   O71   1.300311 A    
C12   H24   1.107875 S    
C21   C25   1.544918 S    
C9    H17   1.109208 S    
C52   C56   1.402342 A    
C23   C27   1.546075 S    
C11   H19   1.105428 S    
O15   P16   1.549183 D    
N3    O53   1.301112 A    
C8    C12   1.529054 S    
C6    N26   1.462863 S    
N11   O61   1.293090 A    
P7    Ba3   3.429340 S    
P1    Ba1   3.426542 S    
C34   H70   1.079356 S    
P1    O1    1.557391 D    
C40   C44   1.395185 A    
C27   H47   1.112334 S    
C50   H58   1.073595 S    
P6    O38   1.748535 S    
P3    O3    1.557391 D    
C28   H48   1.112362 S    
H1    C29   1.108287 S    
P4    O20   1.756791 S    
C14   H26   1.107191 S    
N28   O88   1.302034 A    
N20   H91   1.044406 S    
C34   C68   1.417236 A    
O25   Ba1   2.841044 S    
C42   C46   1.391581 A    
C65   C81   1.404791 A    
O41   C5    1.412783 S    
O22   P13   1.756696 S    
C54   C58   1.419897 A    
O44   C8    1.413220 S    
Ba4   O47   2.982842 S    
C9    H21   1.107988 S    
N22   O76   1.299714 A    
C5    N25   1.463040 S    
N13   O65   1.299485 A    
C75   C79   1.386446 A    
O16   P15   1.549006 D    
C53   C87   1.415954 A    
C6    C10   1.528861 S    
O12   Ba4   2.821413 S    
C35   C59   1.408935 A    
C11   H51   1.107084 S    
O24   C32   1.400943 S    
P9    O33   1.545712 D    
P10   O30   1.751914 S    
P7    C72   1.866807 S    
O12   P15   1.764181 S    
P11   O35   1.545733 D    
N7    H81   1.044044 S    
P12   O36   1.544676 D    
C61   C69   1.441268 A    
C72   C76   1.393809 A    
C10   H18   1.109221 S    
C19   N3    1.460742 S    
C1    H5    1.111122 S    
C20   H36   1.104755 S    
C3    H7    1.108904 S    
N23   O77   1.300728 A    
N8    H83   1.040624 S    
N19   H89   1.042487 S    
C64   C88   1.405730 A    
C81   H61   1.081620 S    
P6    O26   1.556439 D    
O23   P16   1.757970 S    
C86   H74   1.076223 S    
P1    O5    1.572249 S    
O24   P15   1.753241 S    
P8    O40   1.747799 S    
O7    Ba4   2.831218 S    
C15   C19   1.534980 S    
N5    H78   1.042497 S    
C75   H67   1.082682 S    
C37   C41   1.396103 A    
N6    H79   1.040336 S    
Ba1   Ba2   4.685975 S    
P10   C77   1.832554 S    
C74   H66   1.082478 S    
P4    Ba4   3.426594 S    
C39   C59   1.443489 A    
C24   C28   1.546071 S    
C4    N24   1.458554 S    
H4    C32   1.110285 S    
C3    N23   1.460530 S    
C10   H22   1.107908 S    
C19   N7    1.455484 S    
C1    H9    1.109317 S    
P3    Ba3   3.426542 S    
C7    C11   1.527449 S    
O27   Ba3   2.841044 S    
P1    C37   1.869468 S    
N2    O52   1.301393 A    
P5    Ba1   3.429340 S    
C48   C52   1.394124 A    
Ba3   O48   2.982734 S    
N25   O81   1.300400 A    
C6    H14   1.112693 S    
C20   N4    1.464636 S    
Ba1   O46   2.982734 S    
C18   N6    1.461143 S    
C36   C66   1.415847 A    
C84   H64   1.082099 S    
N27   O85   1.297839 A    
P1    O17   1.762271 S    
P3    O19   1.756580 S    
P4    O4    1.557130 D    
C82   H62   1.081490 S    
C54   C88   1.415797 A    
N15   O70   1.299629 A    
C42   H54   1.082362 S    
N7    H82   1.042328 S    
O3    Ba3   2.837424 S    
C21   H37   1.108080 S    
C13   C17   1.539908 S    
C40   C60   1.443207 A    
C73   C77   1.387264 A    
C63   C67   1.422045 A    
P2    C38   1.863445 S    
C61   C85   1.410488 A    
Ba2   O46   2.830423 S    
O10   P13   1.768170 S    
C68   C84   1.402715 A    
P2    O2    1.557130 D    
C28   H44   1.112453 S    
P7    O39   1.751742 S    
H2    C30   1.108402 S    
C23   N11   1.446409 S    
P6    Ba2   3.429284 S    
C76   H68   1.082646 S    
C4    H8    1.110339 S    
N10   O60   1.299214 A    
C55   C59   1.420816 A    
N17   H85   1.040963 S    
C79   C83   1.397001 A    
C25   N13   1.458604 S    
N9    O58   1.300567 A    
C43   C47   1.392348 A    
C44   H56   1.082121 S    
C21   N9    1.445919 S    
C53   C57   1.420501 A    
C85   H73   1.079591 S    
N23   O78   1.301305 A    
C10   H50   1.106168 S    
C1    C29   1.540595 S    
C12   H52   1.106347 S    
O23   C31   1.403163 S    
O37   C14   1.397795 S    
N15   O69   1.300317 A    
O39   C16   1.398253 S    
P10   O34   1.545049 D    
N16   O72   1.299481 A    
P11   O31   1.750332 S    
P2    O6    1.571861 S    
N26   O83   1.300253 A    
P6    C69   1.862122 S    
P7    O27   1.556179 D    
C18   H34   1.106595 S    
C25   H45   1.107832 S    
P8    O28   1.556439 D    
P9    C78   1.835031 S    
C14   C18   1.538953 S    
C49   C53   1.401188 A    
P8    O47   1.576271 S    
C63   C71   1.441371 A    
C2    H6    1.110743 S    
C17   N1    1.460477 S    
Ba3   O47   2.831337 S    
C83   H63   1.081850 S    
C2    C30   1.540799 S    
C62   C86   1.408461 A    
C31   N19   1.459725 S    
N21   O74   1.299813 A    
P14   C45   1.838654 S    
O43   C7    1.414519 S    
P4    C40   1.866217 S    
C69   C73   1.395667 A    
C56   C86   1.416515 A    
O11   Ba3   2.822365 S    
O9    Ba1   2.822365 S    
P15   C48   1.836081 S    
N12   O63   1.293055 A    
C38   C42   1.398041 A    
O11   P16   1.763679 S    
C64   C72   1.442414 A    
O31   Ba3   2.819526 S    
C78   C82   1.397134 A    
O21   C29   1.401092 S    
C22   C26   1.545211 S    
C1    N21   1.460696 S    
C24   H40   1.108881 S    
C14   H30   1.112124 S    
Ba4   O48   2.830423 S    
