data_mof_unit_46189.cif
_audit_creation_date              2012-12-11T14:21:00-0500
_audit_creation_method            fapswitch 2.2
_symmetry_space_group_name_H-M    P1
_symmetry_Int_Tables_number       1
_space_group_crystal_system       triclinic
_cell_length_a                    21.998892
_cell_length_b                    7.204545
_cell_length_c                    14.923316
_cell_angle_alpha                 89.958859
_cell_angle_beta                  106.907745
_cell_angle_gamma                 89.976112
_cell_volume                      2262.98663045

loop_
_atom_site_label
_atom_site_type_symbol
_atom_type_description
_atom_site_fract_x
_atom_site_fract_y
_atom_site_fract_z
_atom_type_partial_charge
O1    O     O_R   0.584770 0.505770 0.002090 -0.530971
O2    O     O_R   0.415230 0.005770 0.997910 -0.530451
O3    O     O_R   0.467060 0.173340 0.861950 -0.538282
O4    O     O_R   0.532940 0.673340 0.138050 -0.541775
C1    C     C_R   0.455086 0.344278 0.826032 0.692355
C2    C     C_R   0.544883 0.844098 0.174007 0.669873
O5    O     O_R   0.587510 0.175890 0.993210 -0.534830
O6    O     O_R   0.412490 0.675890 0.006790 -0.534884
O7    O     O_R   0.536540 0.008150 0.130100 -0.540356
O8    O     O_R   0.463460 0.508150 0.869900 -0.536291
C3    C     C_R   0.612977 0.344091 0.996889 0.724380
C4    C     C_R   0.386655 0.843990 0.001265 0.726589
O9    O     O_3   0.483140 0.340040 0.044760 -0.376732
O10   O     O_3   0.516860 0.840040 0.955240 -0.369435
V1    V     V_3+5 0.503130 0.064190 0.991700 1.478040
V2    V     V_3+5 0.496870 0.564190 0.008300 1.473565
C5    C     C_2   0.210956 0.727355 0.991872 -0.176029
C6    C     C_2   0.785557 0.229079 0.988158 -0.172800
C7    C     C_2   0.179436 0.887505 0.992873 -0.317850
C8    C     C_2   0.819365 0.387913 0.000539 -0.314678
H1    H     H_    0.186176 0.597226 0.993039 0.146091
H2    H     H_    0.809402 0.100919 0.979641 0.144577
H3    H     H_    0.201713 0.019767 0.987908 0.143117
H4    H     H_    0.797525 0.519743 0.007375 0.139363
C9    C     C_2   0.277093 0.712234 0.984484 -0.012103
C10   C     C_2   0.716886 0.211847 0.982905 -0.017363
C11   C     C_2   0.319415 0.855216 0.003429 -0.336888
C12   C     C_2   0.680825 0.355805 0.997825 -0.337002
H5    H     H_    0.304799 0.989327 0.022732 0.148519
H6    H     H_    0.701742 0.492312 0.012994 0.153203
C13   C     C_R   0.926592 0.888330 0.724186 -0.025647
C14   C     C_R   0.073372 0.387233 0.275798 -0.024876
C15   C     C_R   0.573368 0.850426 0.275376 -0.023468
C16   C     C_R   0.426539 0.351505 0.724745 -0.029128
C17   C     C_R   0.936352 0.915222 0.567925 -0.165123
C18   C     C_R   0.063221 0.402375 0.432187 -0.164419
C19   C     C_R   0.964317 0.911305 0.664364 -0.174479
C20   C     C_R   0.035367 0.401968 0.335690 -0.175432
C21   C     C_R   0.860708 0.870300 0.687758 -0.209859
C22   C     C_R   0.139386 0.373767 0.312203 -0.209821
C23   C     C_R   0.830739 0.877407 0.589977 0.083646
C24   C     C_R   0.169195 0.376734 0.410070 0.083393
C25   C     C_R   0.870167 0.899485 0.530381 0.139858
C26   C     C_R   0.129521 0.390671 0.469744 0.138716
C27   C     C_R   0.763294 0.865321 0.549617 0.056815
C28   C     C_R   0.236700 0.367775 0.450457 0.059741
C29   C     C_R   0.736608 0.874754 0.450013 0.059018
C30   C     C_R   0.263217 0.372250 0.550169 0.057186
C31   C     C_R   0.778234 0.895562 0.394169 -0.187387
C32   C     C_R   0.221371 0.385231 0.606095 -0.185295
C33   C     C_R   0.843460 0.907485 0.433740 -0.202973
C34   C     C_R   0.156076 0.394137 0.566488 -0.201445
C35   C     C_R   0.721657 0.844876 0.605470 -0.184421
C36   C     C_R   0.278549 0.355069 0.394530 -0.186595
C37   C     C_R   0.656431 0.832820 0.565885 -0.199573
C38   C     C_R   0.343834 0.345971 0.434114 -0.202754
C39   C     C_R   0.629741 0.840309 0.469224 0.137211
C40   C     C_R   0.370385 0.348983 0.530848 0.141097
C41   C     C_R   0.669175 0.862322 0.409635 0.082706
C42   C     C_R   0.330720 0.362966 0.590540 0.080314
C43   C     C_R   0.563568 0.824147 0.431647 -0.164254
C44   C     C_R   0.436674 0.336779 0.568367 -0.163637
C45   C     C_R   0.535630 0.827547 0.335189 -0.175120
C46   C     C_R   0.464531 0.336708 0.664848 -0.173044
C47   C     C_R   0.639232 0.868894 0.311834 -0.210126
C48   C     C_R   0.360537 0.365514 0.688397 -0.210086
H7    H     H_    0.873376 0.924051 0.387942 0.124076
H8    H     H_    0.125977 0.404492 0.612350 0.125861
H9    H     H_    0.665386 0.884463 0.261504 0.097435
H10   H     H_    0.334228 0.375403 0.738798 0.118047
H11   H     H_    0.484635 0.811668 0.307120 0.106376
H12   H     H_    0.515668 0.324744 0.692856 0.110051
H13   H     H_    0.626506 0.816479 0.611687 0.129992
H14   H     H_    0.373929 0.335742 0.388241 0.123828
H15   H     H_    0.966474 0.932838 0.522532 0.118573
H16   H     H_    0.032892 0.413536 0.477647 0.118393
H17   H     H_    0.015324 0.926927 0.692415 0.108387
H18   H     H_    0.984224 0.413590 0.307667 0.106567
H19   H     H_    0.834561 0.854603 0.738092 0.096345
H20   H     H_    0.165707 0.363931 0.261816 0.094657
H21   H     H_    0.762170 0.903669 0.318976 0.124353
H22   H     H_    0.237303 0.389193 0.681383 0.134845
H23   H     H_    0.737711 0.837240 0.680680 0.128685
H24   H     H_    0.262630 0.351494 0.319247 0.123518
H25   H     H_    0.533436 0.806607 0.477032 0.119071
H26   H     H_    0.466988 0.325590 0.522887 0.118370
O11   O     O_R   0.036450 0.233070 0.130130 -0.538323
O12   O     O_R   0.963550 0.733070 0.869870 -0.538323
O13   O     O_R   0.912470 0.560570 0.006790 -0.545255
O14   O     O_R   0.087530 0.060570 0.993210 -0.545062
C49   C     C_R   0.886957 0.392280 0.001921 0.738850
C50   C     C_R   0.112827 0.892109 0.996729 0.739270
O15   O     O_R   0.032920 0.562940 0.138050 -0.539067
O16   O     O_R   0.967080 0.062940 0.861950 -0.539212
O17   O     O_R   0.084790 0.730500 0.002090 -0.537447
O18   O     O_R   0.915210 0.230500 0.997910 -0.537854
C51   C     C_R   0.044846 0.394428 0.174458 0.684306
C52   C     C_R   0.955112 0.894621 0.825542 0.684485
O19   O     O_3   0.016820 0.396170 0.955260 -0.379021
O20   O     O_3   0.983180 0.896170 0.044740 -0.378922
V3    V     V_3+5 0.996880 0.672090 0.008300 1.419007
V4    V     V_3+5 0.003120 0.172090 0.991700 1.419060
C53   C     C_1   0.293881 0.531926 0.955824 0.317369
N1    N     N_1   0.307043 0.387679 0.932785 -0.387516
C54   C     C_1   0.690515 0.027813 0.959846 0.316549
N2    N     N_1   0.669721 0.880478 0.941303 -0.372014

loop_
_geom_bond_atom_site_label_1
_geom_bond_atom_site_label_2
_ccdc_geom_bond_type
C40   C44   A    
O18   V4    S    
C11   H5    S    
C6    C10   S    
O2    C4    A    
C16   C48   A    
C2    O7    A    
C36   H24   S    
O12   V3    S    
C15   C47   A    
C21   C23   A    
O5    C3    A    
C44   H26   S    
C13   C52   S    
C17   H15   S    
C17   C19   A    
C39   C41   A    
O16   C52   A    
C40   C42   A    
C14   C51   S    
C24   C28   A    
C27   C29   A    
C31   H21   S    
C43   C45   A    
O14   V4    S    
C44   C46   A    
C7    C50   S    
C18   H16   S    
C49   O18   A    
C8    H4    S    
C13   C21   A    
C31   C33   A    
O1    C3    A    
C32   C34   A    
C22   H20   S    
C14   C20   A    
O13   C49   A    
C17   C25   A    
C34   H8    S    
O6    C4    A    
C26   C34   A    
C30   C32   A    
C42   C48   A    
O6    V2    S    
C23   C25   A    
C24   C26   A    
C10   C54   S    
C30   C42   A    
C28   C30   A    
C35   C37   A    
C8    C49   S    
C36   C38   A    
C38   H14   S    
C4    C11   S    
C29   C31   A    
O15   V3    S    
C9    C53   S    
C20   H18   S    
C19   H17   S    
C27   C35   A    
C50   O17   A    
C5    H1    S    
C13   C19   A    
C21   H19   S    
O4    V2    S    
C7    H3    S    
O11   V4    S    
O14   C50   A    
C15   C45   A    
C1    C16   S    
C28   C36   A    
C16   C46   A    
O1    V2    S    
C33   H7    S    
O2    V1    S    
C43   H25   S    
O4    C2    A    
C45   H11   S    
C37   C39   A    
C18   C26   A    
C18   C20   A    
O15   C51   A    
C14   C22   A    
O3    V1    S    
C32   H22   S    
O13   V3    S    
C6    H2    S    
C22   C24   A    
O3    C1    A    
C39   C43   A    
C9    C11   D    
C54   N2    T    
C10   C12   D    
C2    C15   S    
C35   H23   S    
C5    C9    S    
C12   H6    S    
O7    V1    S    
C1    O8    A    
O8    V2    S    
C41   C47   A    
C25   C33   A    
C48   H10   S    
C3    C12   S    
C47   H9    S    
O5    V1    S    
O20   V3    S    
C5    C7    D    
C38   C40   A    
C6    C8    D    
C46   H12   S    
C29   C41   A    
C37   H13   S    
O19   V4    S    
O16   V4    S    
O9    V2    S    
C53   N1    T    
C23   C27   A    
O10   V1    S    
O12   C52   A    
O17   V3    S    
O11   C51   A    
