data_mof_unit_48735.cif
_audit_creation_date              2012-12-10T19:44:56-0500
_audit_creation_method            fapswitch 2.2
_symmetry_space_group_name_H-M    P1
_symmetry_Int_Tables_number       1
_space_group_crystal_system       triclinic
_cell_length_a                    15.059926
_cell_length_b                    10.854086
_cell_length_c                    13.667987
_cell_angle_alpha                 90.63653
_cell_angle_beta                  90.039339
_cell_angle_gamma                 90.041763
_cell_volume                      2234.05382195

loop_
_atom_site_label
_atom_site_type_symbol
_atom_type_description
_atom_site_fract_x
_atom_site_fract_y
_atom_site_fract_z
_atom_type_partial_charge
C1    C     C_R   0.498156 0.262011 0.499121 0.796548
C2    C     C_R   0.502906 0.737900 0.500839 0.797083
C3    C     C_R   0.046376 0.423896 0.667262 -0.207562
C4    C     C_R   0.953500 0.571070 0.331666 -0.225293
C5    C     C_R   0.345570 0.230189 0.218588 0.239066
C6    C     C_R   0.661928 0.763209 0.775302 0.238989
C7    C     C_R   0.371095 0.181064 0.309005 -0.098529
C8    C     C_R   0.633436 0.811607 0.685663 -0.093030
C9    C     C_R   0.450333 0.113569 0.317227 0.078160
C10   C     C_R   0.557166 0.886163 0.681337 0.086228
C11   C     C_R   0.502685 0.093273 0.233554 -0.151834
C12   C     C_R   0.511457 0.914641 0.768311 -0.170478
C13   C     C_R   0.476920 0.140967 0.143406 -0.185469
C14   C     C_R   0.540578 0.868082 0.857590 -0.196975
C15   C     C_R   0.398894 0.209600 0.135837 -0.128584
C16   C     C_R   0.615003 0.791862 0.861168 -0.103018
C17   C     C_R   0.481693 0.931541 0.415897 -0.240899
C18   C     C_R   0.522449 0.068391 0.583498 -0.240133
C19   C     C_R   0.505532 0.871700 0.502253 -0.085760
C20   C     C_R   0.497697 0.128132 0.497414 -0.084369
C21   C     C_R   0.527548 0.940893 0.587389 0.013659
C22   C     C_R   0.477158 0.058875 0.411953 0.012537
C23   C     C_R   0.328476 0.500232 0.499997 0.815055
C24   C     C_R   0.671505 0.498839 0.499917 0.811473
C25   C     C_R   0.562189 0.433156 0.792773 0.037297
C26   C     C_R   0.437287 0.565983 0.207316 0.043517
C27   C     C_R   0.438278 0.568293 0.793560 0.059397
C28   C     C_R   0.563412 0.435002 0.206433 0.042447
C29   C     C_R   0.436501 0.570725 0.896972 -0.071160
C30   C     C_R   0.566262 0.434997 0.103111 -0.096470
C31   C     C_R   0.500798 0.502274 0.948225 0.005005
C32   C     C_R   0.501302 0.502136 0.051871 0.012136
C33   C     C_R   0.564415 0.433338 0.895754 -0.044617
C34   C     C_R   0.436399 0.568414 0.104356 -0.034697
C35   C     C_R   0.373081 0.640474 0.949924 0.441877
C36   C     C_R   0.631845 0.369543 0.049838 0.447838
C37   C     C_R   0.372221 0.635683 0.053299 -0.315541
C38   C     C_R   0.628837 0.366476 0.946958 -0.294986
C39   C     C_R   0.814386 0.533219 0.415514 -0.258164
C40   C     C_R   0.185555 0.463373 0.583818 -0.239883
C41   C     C_R   0.768213 0.496666 0.499385 -0.068091
C42   C     C_R   0.231728 0.500161 0.500020 -0.073443
C43   C     C_R   0.814527 0.457687 0.582411 -0.255264
C44   C     C_R   0.185384 0.536659 0.416240 -0.256912
C45   C     C_R   0.907010 0.458443 0.583295 0.114337
C46   C     C_R   0.092898 0.535492 0.415270 0.115681
C47   C     C_R   0.953433 0.496524 0.499203 0.062131
C48   C     C_R   0.046490 0.497733 0.499477 0.059662
C49   C     C_R   0.906868 0.533534 0.414869 0.111204
C50   C     C_R   0.093052 0.461529 0.584057 0.106510
C51   C     C_R   0.953795 0.422146 0.666825 -0.212977
C52   C     C_R   0.046075 0.571753 0.331741 -0.211917
Cu1   Cu    Cu3+1 0.500010 0.499980 0.597420 0.938380
Cu2   Cu    Cu3+1 0.499990 0.500020 0.402580 0.936802
H1    H     H_    0.778404 0.562744 0.351126 0.146205
H2    H     H_    0.221581 0.434943 0.648481 0.156864
H3    H     H_    0.464086 0.878745 0.350850 0.159206
H4    H     H_    0.540480 0.121547 0.648207 0.159502
H5    H     H_    0.610430 0.380175 0.751420 0.118469
H6    H     H_    0.388093 0.617156 0.248720 0.117940
H7    H     H_    0.390685 0.621307 0.752278 0.168562
H8    H     H_    0.611517 0.382797 0.247616 0.158716
H9    H     H_    0.321335 0.684864 0.093758 0.143258
H10   H     H_    0.677681 0.312542 0.907132 0.148694
H11   H     H_    0.778647 0.425717 0.645995 0.138453
H12   H     H_    0.221250 0.567310 0.352194 0.140754
H13   H     H_    0.918791 0.392952 0.731848 0.142620
H14   H     H_    0.081024 0.600882 0.266671 0.145290
H15   H     H_    0.081463 0.395845 0.732575 0.146675
H16   H     H_    0.918323 0.600222 0.266780 0.144617
H17   H     H_    0.380344 0.246831 0.065534 0.137036
H18   H     H_    0.635942 0.755408 0.930924 0.128052
H19   H     H_    0.329763 0.195971 0.372943 0.116601
H20   H     H_    0.670220 0.790779 0.619378 0.115510
H21   H     H_    0.563566 0.040596 0.238286 0.144640
H22   H     H_    0.453410 0.973438 0.766930 0.127774
H23   H     H_    0.517765 0.125264 0.079337 0.157523
H24   H     H_    0.505613 0.891300 0.924322 0.127684
N1    N     N_R   0.499960 0.499900 0.743810 -0.194855
N2    N     N_R   0.500040 0.500100 0.256190 -0.189768
O1    O     O_R   0.500000 0.319630 0.582270 -0.590971
O2    O     O_R   0.500000 0.680370 0.417730 -0.590993
O3    O     O_R   0.499990 0.319660 0.417730 -0.572261
O4    O     O_R   0.500010 0.680340 0.582270 -0.576013
O5    O     O_R   0.370260 0.499960 0.582280 -0.590486
O6    O     O_R   0.629740 0.500040 0.417720 -0.596194
O7    O     O_R   0.370250 0.499990 0.417740 -0.595399
O8    O     O_R   0.629750 0.500010 0.582260 -0.596715
O9    O     O_3   0.307894 0.704460 0.899709 -0.624763
C53   C     C_3   0.306930 0.830915 0.927051 0.049426
H25   H     H_    0.320049 0.885597 0.860383 0.156499
H26   H     H_    0.358607 0.858346 0.981707 0.123241
C54   C     C_3   0.215199 0.865661 0.966498 -0.325712
H27   H     H_    0.164497 0.848908 0.908716 0.227735
H28   H     H_    0.198768 0.807188 0.030186 0.212222
C55   C     C_3   0.211944 0.000886 0.998343 -0.930564
H29   H     H_    0.260299 0.018704 0.058289 0.263267
H30   H     H_    0.144368 0.023697 0.025418 0.259513
H31   H     H_    0.227627 0.061444 0.935674 0.253945
O10   O     O_3   0.696340 0.302047 0.097446 -0.623985
C56   C     C_3   0.768664 0.379760 0.122647 0.040026
H32   H     H_    0.798098 0.344209 0.191348 0.173075
H33   H     H_    0.748834 0.477100 0.138648 0.114549
C57   C     C_3   0.839696 0.375767 0.042385 -0.343982
H34   H     H_    0.858294 0.278434 0.026799 0.229517
H35   H     H_    0.812908 0.416467 0.974271 0.205960
C58   C     C_3   0.922560 0.447541 0.072827 -0.926495
H36   H     H_    0.905814 0.545932 0.086181 0.250155
H37   H     H_    0.972734 0.442107 0.013445 0.258061
H38   H     H_    0.951755 0.408058 0.140231 0.263527
C59   C     C_3   0.261968 0.304424 0.211317 -0.896571
H39   H     H_    0.250044 0.335813 0.135350 0.232356
H40   H     H_    0.204392 0.247987 0.234643 0.234145
H41   H     H_    0.267323 0.386792 0.259582 0.244164
C60   C     C_3   0.741789 0.681077 0.778637 -0.902405
H42   H     H_    0.758133 0.654047 0.854715 0.225397
H43   H     H_    0.728050 0.596260 0.735642 0.245831
H44   H     H_    0.800060 0.729060 0.747040 0.237917

loop_
_geom_bond_atom_site_label_1
_geom_bond_atom_site_label_2
_ccdc_geom_bond_type
C54   H27   S    
C27   C29   A    
C18   C21   A    
C41   C43   A    
C44   H12   S    
C59   H39   S    
C16   H18   S    
C4    H16   S    
C7    H19   S    
Cu1   Cu2   S    
C56   H32   S    
C23   C42   S    
C4    C52   A    
Cu1   O4    S    
C3    H15   S    
C27   N1    A    
Cu2   O7    S    
C9    C22   S    
C45   C51   A    
C1    O1    A    
C60   H42   S    
C34   C37   A    
C55   H31   S    
C46   C52   A    
Cu1   N1    S    
Cu1   O1    S    
Cu2   O3    S    
C27   H7    S    
C2    O4    A    
C18   H4    S    
C39   H1    S    
C59   H40   S    
C47   C48   A    
C60   H43   S    
C55   H30   S    
C58   H36   S    
C31   C33   A    
C59   H41   S    
C38   H10   S    
C52   H14   S    
C48   C50   A    
C54   H28   S    
C23   O7    A    
C26   C34   A    
C24   C41   S    
C58   H37   S    
C42   C44   A    
C57   H35   S    
C57   H34   S    
C37   H9    S    
C3    C50   A    
C44   C46   A    
Cu2   N2    S    
C45   C47   A    
C10   C21   S    
C13   H23   S    
C47   C49   A    
C5    C7    A    
C3    C51   A    
C6    C8    A    
C5    C59   S    
C40   H2    S    
C26   N2    A    
C32   C34   A    
C43   C45   A    
C53   H26   S    
C31   C32   A    
C43   H11   S    
C60   H44   S    
C55   H29   S    
C8    H20   S    
C36   O10   S    
C51   H13   S    
C9    C11   A    
C10   C12   A    
C35   O9    S    
C8    C10   A    
C39   C49   A    
C12   C14   A    
C54   C55   S    
C13   C15   A    
C58   H38   S    
C14   C16   A    
C2    O2    A    
C36   C38   A    
Cu2   O2    S    
C53   C54   S    
Cu2   O6    S    
C7    C9    A    
C1    C20   S    
C35   C37   A    
C2    C19   S    
C25   N1    A    
C24   O8    A    
C17   C22   A    
C20   C22   A    
C1    O3    A    
C15   H17   S    
C29   C35   A    
C33   C38   A    
C30   C36   A    
C4    C49   A    
C12   H22   S    
C28   C30   A    
C29   C31   A    
C11   H21   S    
C30   C32   A    
C11   C13   A    
C53   H25   S    
C24   O6    A    
C40   C50   A    
C40   C42   A    
O10   C56   S    
C17   C19   A    
Cu1   O8    S    
C18   C20   A    
C14   H24   S    
C28   N2    A    
C6    C60   S    
C5    C15   A    
C6    C16   A    
C46   C48   A    
C39   C41   A    
C56   H33   S    
C23   O5    A    
C17   H3    S    
Cu1   O5    S    
C56   C57   S    
C25   H5    S    
O9    C53   S    
C26   H6    S    
C57   C58   S    
C25   C33   A    
C19   C21   A    
C28   H8    S    
