data_mof_unit_31946.cif
_audit_creation_date              2012-12-10T16:55:01-0500
_audit_creation_method            fapswitch 2.2
_symmetry_space_group_name_H-M    P1
_symmetry_Int_Tables_number       1
_space_group_crystal_system       triclinic
_cell_length_a                    7.810206
_cell_length_b                    8.575547
_cell_length_c                    15.714732
_cell_angle_alpha                 91.299708
_cell_angle_beta                  85.653199
_cell_angle_gamma                 93.240062
_cell_volume                      1047.63817721

loop_
_atom_site_label
_atom_site_type_symbol
_atom_type_description
_atom_site_fract_x
_atom_site_fract_y
_atom_site_fract_z
_atom_type_partial_charge
C1    C     C_R   0.545526 0.794188 0.501921 0.872354
C2    C     C_2   0.435194 0.042461 0.506384 -0.438617
C3    C     C_R   0.501607 0.499809 0.661468 0.892428
C4    C     C_R   0.455690 0.205853 0.505462 0.991299
C5    C     C_R   0.498292 0.499613 0.338548 0.885404
C6    C     C_3   0.348494 0.578504 0.956277 -0.430243
C7    C     C_3   0.669339 0.570723 0.947125 0.234265
C8    C     C_3   0.666365 0.566211 0.045509 -0.498461
C9    C     C_1   0.494195 0.496146 0.249867 -0.082765
C10   C     C_3   0.501889 0.486529 0.917007 0.078781
C11   C     C_2   0.023261 0.390488 0.401207 1.153709
C12   C     C_3   0.343307 0.577598 0.054413 -0.341698
C13   C     C_2   0.345875 0.212335 0.910681 1.019393
C14   C     C_3   0.494373 0.487040 0.082979 0.150491
C15   C     C_3   0.479818 0.315084 0.049025 0.176556
C16   C     C_3   0.487204 0.314015 0.949184 -0.244988
C17   C     C_1   0.493013 0.492031 0.174574 0.015772
C18   C     C_1   0.504335 0.491153 0.825343 0.010869
C19   C     C_1   0.504364 0.495504 0.750111 -0.069189
C20   C     C_2   0.570353 0.955969 0.515840 0.215429
Cl1   Cl    Cl    0.771785 0.022871 0.553513 -0.520150
Cl2   Cl    Cl    0.861444 0.490077 0.898682 -0.593404
Cl3   Cl    Cl    0.296312 0.206980 0.099842 -0.586290
H1    H     H_    0.352135 0.700105 0.079440 0.196705
H2    H     H_    0.776076 0.501942 0.065590 0.234204
H3    H     H_    0.608558 0.259190 0.926442 0.186848
H4    H     H_    0.120151 0.200448 0.341892 0.340619
H5    H     H_    0.286002 0.021039 0.839451 0.354905
H6    H     H_    0.224560 0.529340 0.934607 0.280408
H7    H     H_    0.217956 0.523609 0.080541 0.249793
H8    H     H_    0.593280 0.254783 0.068062 0.139667
H9    H     H_    0.310067 0.992388 0.490729 0.198369
H10   H     H_    0.986280 0.601610 0.571967 0.214051
H11   H     H_    0.361866 0.701626 0.934524 0.200541
H12   H     H_    0.675038 0.695113 0.927647 0.155629
H13   H     H_    0.682144 0.687750 0.071384 0.191152
N1    N     N_2   0.950340 0.457950 0.477370 -0.148748
N2    N     N_2   0.049660 0.542050 0.522630 -0.187927
O1    O     O_R   0.389240 0.738570 0.505550 -0.640026
O2    O     O_R   0.073875 0.236875 0.400584 -0.771862
O3    O     O_2   0.195275 0.244776 0.921734 -0.532012
O4    O     O_R   0.389860 0.080224 0.861842 -0.802610
O5    O     O_R   0.678400 0.711630 0.491050 -0.590598
O6    O     O_R   0.355360 0.513470 0.630110 -0.609896
O7    O     O_R   0.644510 0.486530 0.615610 -0.607838
O8    O     O_R   0.321600 0.288370 0.508950 -0.588853
O9    O     O_R   0.610760 0.261430 0.494450 -0.568771
O10   O     O_R   0.355490 0.513470 0.384390 -0.616560
O11   O     O_R   0.644640 0.486530 0.369890 -0.611673
O12   O     O_2   0.027588 0.462229 0.334667 -0.627710
Zn1   Zn    Zn3+2 0.306930 0.517990 0.509680 1.021469
Zn2   Zn    Zn3+2 0.693070 0.482010 0.490320 1.049784

loop_
_geom_bond_atom_site_label_1
_geom_bond_atom_site_label_2
_ccdc_geom_bond_type
C6    C10   S    
C7    C10   S    
C2    C4    S    
C5    C9    S    
N1    N2    D    
C7    Cl2   S    
C1    O5    A    
C12   H1    S    
O1    Zn1   S    
H10   N2    S    
H4    O2    S    
O11   Zn2   S    
C15   Cl3   S    
C13   O3    D    
C7    C8    S    
C11   O12   D    
C10   C16   S    
C3    C19   S    
C8    H2    S    
C14   C17   S    
C5    O11   A    
C4    O8    A    
O9    Zn2   S    
C10   C18   S    
O8    Zn1   S    
O6    Zn1   S    
H5    O4    S    
C13   O4    S    
C12   C14   S    
C6    C12   S    
C11   O2    S    
C3    O6    A    
C5    O10   A    
O5    Zn2   S    
C1    O1    A    
C2    C20   D    
C15   C16   S    
C6    H6    S    
C20   Cl1   S    
C2    H9    S    
C18   C19   T    
C8    H13   S    
C13   C16   S    
C9    C17   T    
C11   N1    S    
N1    Zn2   S    
C14   C15   S    
C4    O9    A    
C1    C20   S    
C8    C14   S    
N2    Zn1   S    
O7    Zn2   S    
C12   H7    S    
C7    H12   S    
C15   H8    S    
C3    O7    A    
O10   Zn1   S    
C6    H11   S    
C16   H3    S    
