data_mof_unit_30588.cif
_audit_creation_date              2012-10-26T19:40:08-0400
_audit_creation_method            fapswitch 2.2
_symmetry_space_group_name_H-M    P1
_symmetry_Int_Tables_number       1
_space_group_crystal_system       triclinic
_cell_length_a                    15.163482
_cell_length_b                    8.976975
_cell_length_c                    7.516241
_cell_angle_alpha                 102.249295
_cell_angle_beta                  94.069415
_cell_angle_gamma                 95.439009
_cell_volume                      990.961486398

loop_
_atom_site_label
_atom_site_type_symbol
_atom_type_description
_atom_site_fract_x
_atom_site_fract_y
_atom_site_fract_z
_atom_type_partial_charge
C1    C     C_R   0.496985 0.200119 0.453389 0.573949
C2    C     C_R   0.176824 0.371339 0.494197 0.213703
C3    C     C_R   0.768488 0.516785 0.503999 0.004943
C4    C     C_R   0.232563 0.508972 0.511320 0.011217
C5    C     C_R   0.806108 0.379757 0.489517 0.205326
C6    C     C_R   0.196475 0.649913 0.538008 0.209083
C7    C     C_R   0.898433 0.380516 0.506814 -0.042302
C8    C     C_R   0.104319 0.653276 0.553273 -0.033765
C9    C     C_R   0.954761 0.518480 0.533512 -0.085534
C10   C     C_R   0.047966 0.514855 0.532201 -0.082822
C11   C     C_R   0.917521 0.658777 0.554037 0.016285
C12   C     C_R   0.503894 0.799109 0.544986 0.554060
C13   C     C_R   0.083715 0.372175 0.499292 0.024853
C14   C     C_R   0.934392 0.242672 0.486230 -0.091915
C15   C     C_R   0.067081 0.792764 0.586216 -0.103917
C16   C     C_3   0.780968 0.804808 0.339667 -0.011369
C17   C     C_3   0.691962 0.854324 0.291963 -0.351502
C18   C     C_3   0.223281 0.174972 0.294412 0.007559
C19   C     C_3   0.229293 0.005741 0.271956 -0.334419
C20   C     C_3   0.732752 0.206606 0.249092 -0.141089
C21   C     C_3   0.287465 0.861549 0.692087 -0.146275
C22   C     C_3   0.008439 0.005125 0.250363 -0.136356
C23   C     C_R   0.024555 0.234772 0.466616 0.307610
C24   C     C_3   0.949660 0.001506 0.808176 -0.098010
C25   C     C_3   0.428966 0.938242 0.126023 -0.022770
C26   C     C_3   0.370019 0.787601 0.111880 -0.351668
C27   C     C_3   0.616385 0.047909 0.808208 -0.016579
C28   C     C_3   0.669107 0.203630 0.826887 -0.340808
C29   C     C_R   0.975158 0.796649 0.591994 0.273208
C30   C     C_2   0.496597 0.032268 0.424070 0.224667
C31   C     C_2   0.508842 0.966013 0.568819 0.223247
C32   C     C_R   0.329249 0.504418 0.503157 0.594483
C33   C     C_R   0.671220 0.511546 0.500456 0.599678
C34   C     C_R   0.823566 0.656520 0.532849 0.212006
Cu1   Cu    Cu3+1 0.510010 0.517380 0.684380 0.950554
Cu2   Cu    Cu3+1 0.489990 0.482620 0.315620 0.931722
H1    H     H_    0.891088 0.137550 0.471229 0.208648
H2    H     H_    0.285396 0.226732 0.252314 0.141981
H3    H     H_    0.166614 0.191856 0.200254 0.128292
H4    H     H_    0.174896 0.947134 0.329910 0.240963
H5    H     H_    0.225845 0.953799 0.124401 0.058707
H6    H     H_    0.291533 0.991379 0.348856 0.170284
H7    H     H_    0.776115 0.121020 0.186315 0.098373
H8    H     H_    0.740821 0.306806 0.183516 0.113321
H9    H     H_    0.662298 0.157400 0.218991 0.179644
H10   H     H_    0.238128 0.880672 0.794897 0.100243
H11   H     H_    0.317044 0.976103 0.679044 0.161654
H12   H     H_    0.108881 0.900584 0.606976 0.200365
H13   H     H_    0.342193 0.801827 0.738692 0.155368
H14   H     H_    0.055299 0.985832 0.144030 0.096716
H15   H     H_    0.952312 0.057350 0.193226 0.060761
H16   H     H_    0.983015 0.890239 0.268590 0.146910
H17   H     H_    0.020663 0.038432 0.858917 0.102506
H18   H     H_    0.918253 0.921158 0.885824 0.102733
H19   H     H_    0.914039 0.105334 0.831370 0.138492
H20   H     H_    0.451474 0.938187 0.989239 0.205025
H21   H     H_    0.390227 0.037290 0.156411 0.123257
H22   H     H_    0.351639 0.773071 0.247456 0.212853
H23   H     H_    0.429260 0.378182 0.949935 0.253574
H24   H     H_    0.308467 0.779251 0.021872 0.066474
H25   H     H_    0.404595 0.691568 0.049657 0.209760
H26   H     H_    0.651810 0.960595 0.720406 0.151248
H27   H     H_    0.616913 0.016817 0.942783 0.156220
H28   H     H_    0.740218 0.198427 0.868760 0.081887
H29   H     H_    0.664963 0.236370 0.693771 0.235971
H30   H     H_    0.641092 0.291698 0.927353 0.177039
H31   H     H_    0.571240 0.620618 0.048730 0.240489
H32   H     H_    0.788917 0.698528 0.235783 0.095132
H33   H     H_    0.833194 0.894978 0.326067 0.166464
H34   H     H_    0.681392 0.959951 0.390956 0.204473
H35   H     H_    0.687168 0.872026 0.150098 0.088951
H36   H     H_    0.640547 0.763284 0.302676 0.192725
N1    N     N_2   0.474890 0.456420 0.038520 -0.283095
N2    N     N_2   0.525110 0.543580 0.961480 -0.288546
O1    O     O_R   0.506510 0.286130 0.619770 -0.471849
O2    O     O_3   0.214582 0.236252 0.480272 -0.532852
O3    O     O_3   0.751905 0.242652 0.440610 -0.613231
O4    O     O_3   0.248372 0.779983 0.519602 -0.619556
O5    O     O_3   0.054311 0.092141 0.417380 -0.525207
O6    O     O_3   0.941491 0.936269 0.619878 -0.531059
O7    O     O_3   0.505577 0.947976 0.248645 -0.603363
O8    O     O_3   0.526707 0.054150 0.745040 -0.594291
O9    O     O_R   0.493490 0.713870 0.380230 -0.502753
O10   O     O_R   0.489600 0.256770 0.308360 -0.509091
O11   O     O_R   0.510400 0.743230 0.691640 -0.518136
O12   O     O_R   0.378710 0.514640 0.655720 -0.516008
O13   O     O_R   0.621290 0.485360 0.344280 -0.524239
O14   O     O_R   0.361800 0.485290 0.344300 -0.526285
O15   O     O_R   0.638200 0.514710 0.655700 -0.512754
O16   O     O_3   0.785005 0.787875 0.523193 -0.542238

loop_
_geom_bond_atom_site_label_1
_geom_bond_atom_site_label_2
_ccdc_geom_bond_type
Cu1   N2    S    
C16   O16   S    
N1    N2    D    
C28   H30   S    
Cu1   Cu2   S    
C25   H20   S    
C21   H13   S    
Cu2   O14   S    
C24   H19   S    
Cu1   O1    S    
C31   O8    S    
C20   O3    S    
C26   H25   S    
C22   O5    S    
C30   C31   D    
Cu1   O12   S    
C6    O4    S    
C3    C33   S    
Cu2   O9    S    
C24   H18   S    
C32   O14   A    
C13   C23   A    
C18   C19   S    
C2    C13   A    
C24   O6    S    
C7    C14   A    
C16   C17   S    
C21   O4    S    
C16   H32   S    
C12   O11   A    
C9    C10   A    
H23   N1    S    
C20   H9    S    
C19   H6    S    
C22   H14   S    
C17   H34   S    
C25   O7    S    
C25   H21   S    
C15   H12   S    
C20   H8    S    
C15   C29   A    
C11   C34   A    
Cu2   O13   S    
C1    O1    A    
C4    C6    A    
C19   H4    S    
C5    C7    A    
C6    C8    A    
C3    C34   A    
C25   C26   S    
C12   O9    A    
C1    O10   A    
C14   C23   A    
C2    C4    A    
C18   H3    S    
C34   O16   S    
C27   H26   S    
C33   O15   A    
C26   H22   S    
C32   O12   A    
H31   N2    S    
C9    C11   A    
C4    C32   S    
C27   H27   S    
C28   H28   S    
C17   H35   S    
C8    C15   A    
C12   C31   S    
C5    O3    S    
Cu1   O15   S    
C20   H7    S    
C2    O2    S    
C22   H16   S    
C21   H10   S    
C7    C9    A    
C18   O2    S    
C27   O8    S    
C16   H33   S    
C3    C5    A    
C10   C13   A    
C24   H17   S    
C30   O7    S    
C28   H29   S    
C18   H2    S    
C14   H1    S    
Cu1   O11   S    
C29   O6    S    
Cu2   O10   S    
C1    C30   S    
C33   O13   A    
Cu2   N1    S    
C11   C29   A    
C17   H36   S    
C8    C10   A    
C27   C28   S    
C23   O5    S    
C26   H24   S    
C19   H5    S    
C22   H15   S    
C21   H11   S    
