data_mof_unit_32018.cif
_audit_creation_date              2012-12-11T16:05:05-0500
_audit_creation_method            fapswitch 2.2
_symmetry_space_group_name_H-M    P1
_symmetry_Int_Tables_number       1
_space_group_crystal_system       triclinic
_cell_length_a                    10.672939
_cell_length_b                    10.644646
_cell_length_c                    16.933535
_cell_angle_alpha                 98.620216
_cell_angle_beta                  98.531616
_cell_angle_gamma                 61.515891
_cell_volume                      1665.27891213

loop_
_atom_site_label
_atom_site_type_symbol
_atom_type_description
_atom_site_fract_x
_atom_site_fract_y
_atom_site_fract_z
_atom_type_partial_charge
C1    C     C_R   0.355566 0.774228 0.398359 0.568414
C2    C     C_3   0.405365 0.683495 0.250903 -0.143239
C3    C     C_3   0.351453 0.807137 0.318089 0.043121
C4    C     C_R   0.371454 0.347260 0.358565 0.554759
C5    C     C_3   0.421570 0.881234 0.284618 0.060356
C6    C     C_3   0.280392 0.964887 0.234500 -0.124298
C7    C     C_3   0.210916 0.887797 0.268175 -0.150420
C8    C     C_3   0.263107 0.765610 0.200273 -0.114592
C9    C     C_3   0.332193 0.841974 0.167060 0.044266
C10   C     C_3   0.459759 0.261328 0.775214 -0.114097
C11   C     C_3   0.397794 0.402156 0.735141 -0.110277
C12   C     C_3   0.766780 0.285988 0.249263 -0.114403
C13   C     C_3   0.336970 0.334190 0.663342 0.055014
C14   C     C_3   0.398965 0.194198 0.702804 -0.111427
C15   C     C_3   0.256582 0.254385 0.741059 -0.111166
C16   C     C_R   0.777155 0.376778 0.401853 0.542848
C17   C     C_3   0.194801 0.395376 0.700414 -0.122028
C18   C     C_3   0.255455 0.462224 0.773773 -0.122182
C19   C     C_3   0.318257 0.321584 0.812765 0.053432
C20   C     C_1   0.817297 0.341727 0.709594 -0.045043
C21   C     C_1   0.843858 0.314921 0.778095 -0.048045
C22   C     C_1   0.338085 0.812096 0.709723 -0.047441
C23   C     C_3   0.831870 0.342430 0.324020 0.055099
C24   C     C_1   0.313353 0.839280 0.778518 -0.045407
C25   C     C_R   0.957919 0.284763 0.102380 0.555575
C26   C     C_R   0.319489 0.300121 0.120011 0.533697
C27   C     C_R   0.297379 0.885951 0.086582 0.538523
C28   C     C_R   0.356570 0.771318 0.627201 0.544860
C29   C     C_R   0.884977 0.299458 0.860884 0.552493
C30   C     C_R   0.308208 0.294247 0.891896 0.543218
C31   C     C_R   0.280149 0.884680 0.859038 0.542065
C32   C     C_R   0.366881 0.345516 0.585136 0.548672
C33   C     C_R   0.773956 0.379535 0.629625 0.540628
C34   C     C_3   0.983770 0.240574 0.302303 -0.150475
C35   C     C_1   0.345685 0.337410 0.274780 -0.037130
C36   C     C_1   0.333251 0.327683 0.203573 -0.048303
C37   C     C_3   0.919878 0.183190 0.225814 -0.121820
C38   C     C_2   0.513284 0.943738 0.330028 0.568947
C39   C     C_3   0.977034 0.358688 0.255922 -0.132571
C40   C     C_3   0.823881 0.461084 0.278557 -0.101442
C41   C     C_3   0.760492 0.403330 0.203070 -0.118376
C42   C     C_3   0.912965 0.301668 0.181393 0.054624
C43   C     C_3   0.474657 0.760260 0.216114 -0.140859
Cr1   Cr    Cr6+3 0.608340 0.611040 0.520430 1.050623
Cr2   Cr    Cr6+3 0.287650 0.601120 0.489350 1.029436
Cr3   Cr    Cr6+3 0.604040 0.287870 0.490280 1.033580
Cr4   Cr    Cr6+3 0.054020 0.052700 0.970850 1.023293
Cr5   Cr    Cr6+3 0.059230 0.375120 0.993390 1.022310
Cr6   Cr    Cr6+3 0.374950 0.061200 0.992340 1.038711
H1    H     H_    0.679877 0.256435 0.248540 0.148011
H2    H     H_    0.198735 0.571207 0.804944 0.132565
H3    H     H_    0.953388 0.072120 0.197938 0.139396
H4    H     H_    0.072702 0.177372 0.345955 0.115560
H5    H     H_    0.062153 0.390218 0.256537 0.117670
H6    H     H_    0.784072 0.575911 0.301148 0.145981
H7    H     H_    0.671299 0.465507 0.159314 0.120522
H8    H     H_    0.456651 0.567626 0.260089 0.111672
H9    H     H_    0.580968 0.712403 0.192543 0.124212
H10   H     H_    0.599436 0.991141 0.437257 0.344970
H11   H     H_    0.233139 0.080258 0.225207 0.107832
H12   H     H_    0.106897 0.933542 0.294131 0.130853
H13   H     H_    0.199226 0.716657 0.163989 0.135314
H14   H     H_    0.456395 0.463147 0.730640 0.114989
H15   H     H_    0.567923 0.208581 0.807471 0.131643
H16   H     H_    0.455781 0.084809 0.672071 0.136323
H17   H     H_    0.197988 0.193487 0.745758 0.114938
H18   H     H_    0.087167 0.448093 0.667620 0.133465
O1    O     O_R   0.751220 0.499230 0.435170 -0.517510
O2    O     O_R   0.412990 0.180750 0.091610 -0.489149
O3    O     O_R   0.366620 0.943130 0.065760 -0.492273
O4    O     O_R   0.477220 0.727600 0.436870 -0.463097
O5    O     O_R   0.160510 0.906330 0.879210 -0.511488
O6    O     O_R   0.930190 0.179050 0.889450 -0.492051
O7    O     O_R   0.909140 0.398170 0.896710 -0.502564
O8    O     O_R   0.186190 0.363460 0.918830 -0.501578
O9    O     O_R   0.401670 0.173200 0.913310 -0.514156
O10   O     O_R   0.356120 0.936130 0.900470 -0.494832
O11   O     O_3   0.162740 0.163010 0.985530 -0.281308
O12   O     O_R   0.297880 0.469080 0.560050 -0.501676
O13   O     O_R   0.258650 0.745120 0.411470 -0.521962
O14   O     O_R   0.297070 0.467240 0.395960 -0.508752
O15   O     O_R   0.488830 0.252610 0.387790 -0.477131
O16   O     O_R   0.724400 0.302390 0.420980 -0.503134
O17   O     O_R   0.752100 0.501210 0.612190 -0.510732
O18   O     O_R   0.478040 0.729440 0.600970 -0.493258
O19   O     O_R   0.259530 0.747110 0.588490 -0.507738
O20   O     O_2   0.574792 0.985028 0.293156 -0.508730
O21   O     O_R   0.530455 0.952193 0.413723 -0.686997
O22   O     O_R   0.489720 0.254590 0.564810 -0.515605
O23   O     O_R   0.725220 0.304230 0.585080 -0.498975
O24   O     O_3   0.500010 0.500010 0.500020 -0.271892
O25   O     O_R   0.171830 0.913880 0.057510 -0.529736
O26   O     O_R   0.940690 0.186050 0.054730 -0.498715
O27   O     O_R   0.920470 0.405720 0.075010 -0.511400
O28   O     O_R   0.196690 0.370460 0.084120 -0.523001

loop_
_geom_bond_atom_site_label_1
_geom_bond_atom_site_label_2
_ccdc_geom_bond_type
C11   C18   S    
C25   O26   A    
Cr5   O28   S    
C34   C37   S    
C41   C42   S    
C13   C32   S    
C35   C36   T    
C6    C9    S    
C2    H8    S    
C7    C8    S    
Cr3   O22   S    
C15   C19   S    
C12   C23   S    
C1    O4    A    
Cr5   O27   S    
C11   H14   S    
C5    C6    S    
C39   H5    S    
C29   O6    A    
C23   C40   S    
C12   C37   S    
Cr6   O11   S    
Cr1   O4    S    
C18   C19   S    
Cr4   O25   S    
Cr5   O11   S    
C37   C42   S    
H10   O21   S    
C7    H12   S    
C43   H9    S    
Cr3   O15   S    
C4    O14   A    
C8    C9    S    
C16   O1    A    
C10   C19   S    
C23   C34   S    
C5    C43   S    
C4    C35   S    
C25   O27   A    
Cr6   O2    S    
C13   C14   S    
Cr5   O8    S    
C18   H2    S    
C31   O10   A    
C39   C42   S    
Cr2   O14   S    
C9    C43   S    
C17   H18   S    
C34   C39   S    
C6    H11   S    
Cr4   O6    S    
C10   C14   S    
C39   C40   S    
C37   H3    S    
C29   O7    A    
Cr1   O17   S    
C15   H17   S    
C21   C29   S    
C16   O16   A    
C38   O21   S    
C1    C3    S    
C41   H7    S    
C12   C41   S    
Cr5   O7    S    
C30   O9    A    
C32   O22   A    
C2    C43   S    
C40   H6    S    
C17   C18   S    
Cr4   O26   S    
Cr6   O9    S    
C27   O25   A    
Cr2   O12   S    
C27   O3    A    
Cr1   O24   S    
C20   C33   S    
C26   C36   S    
C31   O5    A    
C16   C23   S    
Cr6   O3    S    
C28   O19   A    
C22   C24   T    
Cr1   O1    S    
Cr1   O18   S    
C9    C27   S    
C26   O28   A    
C15   C17   S    
C40   C41   S    
C2    C8    S    
C3    C5    S    
C25   C42   S    
C12   H1    S    
C6    C7    S    
Cr3   O23   S    
C3    C7    S    
C13   C17   S    
C38   O20   D    
C10   H15   S    
Cr2   O19   S    
C24   C31   S    
C33   O23   A    
C32   O12   A    
C30   O8    A    
C11   C13   S    
C14   H16   S    
Cr6   O10   S    
C2    C3    S    
Cr2   O13   S    
Cr2   O24   S    
C33   O17   A    
Cr4   O5    S    
C10   C11   S    
Cr3   O16   S    
C4    O15   A    
C20   C21   T    
C34   H4    S    
C28   O18   A    
C26   O2    A    
C14   C15   S    
C1    O13   A    
C22   C28   S    
Cr4   O11   S    
C5    C38   S    
C19   C30   S    
Cr3   O24   S    
C8    H13   S    
