data_mof_unit_8421.cif
_audit_creation_date              2012-12-10T18:19:58-0500
_audit_creation_method            fapswitch 2.2
_symmetry_space_group_name_H-M    P1
_symmetry_Int_Tables_number       1
_space_group_crystal_system       triclinic
_cell_length_a                    14.923046
_cell_length_b                    14.164166
_cell_length_c                    14.118423
_cell_angle_alpha                 89.972503
_cell_angle_beta                  88.743203
_cell_angle_gamma                 90.417677
_cell_volume                      2983.44857711

loop_
_atom_site_label
_atom_site_type_symbol
_atom_type_description
_atom_site_fract_x
_atom_site_fract_y
_atom_site_fract_z
_atom_type_partial_charge
C1    C     C_R   0.327260 0.499223 0.500107 0.990957
C2    C     C_R   0.958381 0.508562 0.326708 -0.255817
C3    C     C_R   0.575905 0.800029 0.472249 0.455730
C4    C     C_R   0.431368 0.200769 0.544878 0.441933
C5    C     C_R   0.424145 0.798997 0.528329 0.454319
C6    C     C_R   0.568869 0.201855 0.455356 0.443277
C7    C     C_R   0.425731 0.899516 0.535682 -0.091060
C8    C     C_R   0.572514 0.101831 0.459534 -0.067765
C9    C     C_R   0.574090 0.900514 0.463741 -0.097266
C10   C     C_R   0.427516 0.100750 0.540201 -0.067443
C11   C     C_R   0.499711 0.950265 0.499199 0.021488
C12   C     C_R   0.672746 0.500108 0.499185 0.993807
C13   C     C_R   0.499826 0.051046 0.499447 0.009746
C14   C     C_R   0.354096 0.950432 0.577001 -0.178666
C15   C     C_R   0.646508 0.051282 0.423699 -0.183630
C16   C     C_R   0.646659 0.952484 0.424396 -0.170491
C17   C     C_R   0.354036 0.049144 0.577183 -0.184182
C18   C     C_R   0.499201 0.499951 0.329340 0.905085
C19   C     C_R   0.500912 0.499929 0.670654 0.908281
C20   C     C_1   0.498905 0.499579 0.227870 -0.174378
C21   C     C_1   0.501383 0.499502 0.772122 -0.174541
C22   C     C_1   0.499198 0.498930 0.142562 0.001748
C23   C     C_R   0.953198 0.504365 0.499206 -0.054164
C24   C     C_1   0.501194 0.498857 0.857427 0.002875
C25   C     C_1   0.499897 0.498386 0.042658 0.012600
C26   C     C_1   0.500553 0.498359 0.957330 0.013053
C27   C     C_R   0.815081 0.511692 0.412052 0.038660
C28   C     C_R   0.185144 0.506343 0.587402 0.026984
C29   C     C_R   0.768089 0.499929 0.498085 -0.210651
C30   C     C_R   0.231923 0.496192 0.501258 -0.194920
C31   C     C_R   0.811067 0.486570 0.583805 0.365232
C32   C     C_R   0.188836 0.480144 0.415872 0.359524
C33   C     C_R   0.903953 0.501361 0.586141 -0.117307
C34   C     C_R   0.047050 0.502272 0.499655 -0.036032
C35   C     C_R   0.096139 0.495112 0.412757 -0.119065
C36   C     C_3   0.777640 0.372844 0.696981 0.138660
C37   C     C_3   0.717262 0.299978 0.649122 -0.368972
C38   C     C_3   0.728297 0.201748 0.691430 -0.981460
C39   C     C_3   0.221469 0.363226 0.306629 0.139237
C40   C     C_3   0.282329 0.292667 0.355834 -0.365228
C41   C     C_3   0.270825 0.193146 0.316476 -0.982824
C42   C     C_3   0.872038 0.612703 0.771948 0.146421
C43   C     C_3   0.944971 0.676528 0.813121 -0.404278
C44   C     C_3   0.906881 0.771320 0.844975 -0.941749
C45   C     C_R   0.908585 0.507735 0.411873 0.026454
C46   C     C_3   0.133742 0.594704 0.219783 0.145902
C47   C     C_3   0.063027 0.665591 0.188054 -0.408907
C48   C     C_3   0.106402 0.758909 0.157471 -0.939255
C49   C     C_3   0.717090 0.769948 0.526000 0.105024
C50   C     C_3   0.812534 0.773333 0.483471 -0.325590
C51   C     C_3   0.877022 0.825578 0.547983 -0.999278
C52   C     C_3   0.388436 0.266530 0.687337 0.168684
C53   C     C_3   0.335582 0.203505 0.757051 -0.428621
C54   C     C_3   0.345826 0.237710 0.858840 -0.918200
C55   C     C_3   0.278566 0.763761 0.489882 0.095186
C56   C     C_R   0.091622 0.505923 0.587172 0.039095
C57   C     C_3   0.187558 0.754239 0.541277 -0.319481
C58   C     C_3   0.110949 0.744975 0.472301 -0.985866
C59   C     C_3   0.614437 0.269684 0.314290 0.167421
C60   C     C_3   0.668707 0.208505 0.244926 -0.428714
C61   C     C_3   0.660009 0.243632 0.143277 -0.918008
C62   C     C_R   0.948958 0.512567 0.672366 0.469006
C63   C     C_R   0.051239 0.504448 0.326034 0.465601
C64   C     C_R   0.041794 0.512413 0.672092 -0.267826
H1    H     H_    0.073466 0.517242 0.739927 0.199872
H2    H     H_    0.734980 0.296553 0.572421 0.262641
H3    H     H_    0.798783 0.178095 0.682515 0.270848
H4    H     H_    0.684002 0.150971 0.654530 0.273915
H5    H     H_    0.709393 0.202085 0.767965 0.266200
H6    H     H_    0.235134 0.359499 0.229055 0.181920
H7    H     H_    0.150059 0.341559 0.317882 0.147065
H8    H     H_    0.353417 0.314683 0.345497 0.252019
H9    H     H_    0.265343 0.291134 0.432771 0.263560
H10   H     H_    0.200419 0.168654 0.326920 0.270642
H11   H     H_    0.315515 0.144069 0.354216 0.274664
H12   H     H_    0.926487 0.511519 0.258880 0.199500
H13   H     H_    0.288901 0.191689 0.239753 0.266049
H14   H     H_    0.814708 0.608838 0.823383 0.183085
H15   H     H_    0.845316 0.644240 0.706010 0.119947
H16   H     H_    0.975123 0.641036 0.874888 0.247880
H17   H     H_    0.998563 0.689393 0.758658 0.220546
H18   H     H_    0.875896 0.808200 0.784636 0.261568
H19   H     H_    0.961638 0.816417 0.872471 0.272323
H20   H     H_    0.855637 0.760765 0.902336 0.269597
H21   H     H_    0.183775 0.585870 0.161088 0.179771
H22   H     H_    0.171610 0.622988 0.280608 0.132654
H23   H     H_    0.297411 0.914411 0.609636 0.167787
H24   H     H_    0.025480 0.635529 0.127851 0.244877
H25   H     H_    0.014892 0.679930 0.247351 0.226467
H26   H     H_    0.143271 0.790682 0.217254 0.261339
H27   H     H_    0.053723 0.808816 0.135448 0.271614
H28   H     H_    0.153567 0.747626 0.096633 0.269133
H29   H     H_    0.712842 0.712277 0.579264 0.153117
H30   H     H_    0.704256 0.836692 0.565939 0.117557
H31   H     H_    0.837089 0.700510 0.471297 0.227711
H32   H     H_    0.812936 0.809583 0.413779 0.233235
H33   H     H_    0.849518 0.895127 0.569759 0.270825
H34   H     H_    0.705246 0.087720 0.395642 0.173999
H35   H     H_    0.941063 0.839244 0.509120 0.275847
H36   H     H_    0.890176 0.782625 0.611805 0.264843
H37   H     H_    0.370213 0.340566 0.703503 0.203578
H38   H     H_    0.461707 0.259251 0.700388 0.116031
H39   H     H_    0.263368 0.203840 0.739356 0.244419
H40   H     H_    0.360849 0.130131 0.752390 0.221531
H41   H     H_    0.417592 0.238011 0.878203 0.260825
H42   H     H_    0.308272 0.189746 0.907924 0.266726
H43   H     H_    0.318613 0.310118 0.867135 0.280249
H44   H     H_    0.284219 0.709636 0.433247 0.166275
H45   H     H_    0.704081 0.917235 0.393611 0.172114
H46   H     H_    0.280825 0.833631 0.453523 0.106998
H47   H     H_    0.187670 0.691547 0.587869 0.262875
H48   H     H_    0.175362 0.816581 0.587233 0.204200
H49   H     H_    0.100899 0.812707 0.434482 0.266707
H50   H     H_    0.048769 0.724922 0.512013 0.278191
H51   H     H_    0.125045 0.688832 0.419942 0.259450
H52   H     H_    0.632780 0.344310 0.299493 0.201432
H53   H     H_    0.541484 0.261192 0.299633 0.116585
H54   H     H_    0.740580 0.210090 0.263996 0.244041
H55   H     H_    0.643741 0.134568 0.248428 0.221291
H56   H     H_    0.295740 0.084667 0.606267 0.173776
H57   H     H_    0.588612 0.242674 0.122551 0.260954
H58   H     H_    0.698611 0.196993 0.094407 0.266863
H59   H     H_    0.686978 0.316684 0.136239 0.279948
H60   H     H_    0.762994 0.371212 0.774459 0.182157
H61   H     H_    0.849073 0.351780 0.687413 0.146607
H62   H     H_    0.646122 0.321115 0.658103 0.252436
I1    I     I_    0.742922 0.535808 0.284400 -0.420418
I2    I     I_    0.257967 0.524483 0.715996 -0.433520
N1    N     N_R   0.500000 0.750030 0.500000 -0.173917
N2    N     N_R   0.500000 0.249970 0.500000 -0.192342
O1    O     O_R   0.367850 0.580280 0.500020 -0.577400
O2    O     O_3   0.239909 0.457305 0.335668 -0.655551
O3    O     O_3   0.903812 0.519564 0.758793 -0.634626
O4    O     O_3   0.095629 0.504595 0.238744 -0.637382
O5    O     O_3   0.654886 0.752447 0.452822 -0.590458
O6    O     O_3   0.363761 0.248911 0.592423 -0.633297
O7    O     O_3   0.347598 0.750010 0.556372 -0.592176
O8    O     O_3   0.637446 0.251094 0.409438 -0.633139
O9    O     O_R   0.632150 0.419720 0.499980 -0.589610
O10   O     O_R   0.632150 0.580280 0.499980 -0.571646
O11   O     O_R   0.367850 0.419720 0.500020 -0.587606
O12   O     O_R   0.500000 0.580290 0.373720 -0.574181
O13   O     O_R   0.500000 0.419710 0.626280 -0.641509
O14   O     O_R   0.500000 0.580290 0.626280 -0.570552
O15   O     O_R   0.500000 0.419710 0.373720 -0.641972
O16   O     O_3   0.759918 0.465840 0.664822 -0.650901
Zn1   Zn    Zn3+2 0.500000 0.607200 0.500000 1.026482
Zn2   Zn    Zn3+2 0.500000 0.392800 0.500000 0.954492

loop_
_geom_bond_atom_site_label_1
_geom_bond_atom_site_label_2
_ccdc_geom_bond_type
C51   H33   S    
C34   C56   A    
C8    C13   A    
C23   C45   A    
C12   C29   S    
C27   C29   A    
C36   H61   S    
C6    N2    A    
C44   H19   S    
C28   C56   A    
C53   C54   S    
C52   C53   S    
C7    C11   A    
C52   H38   S    
C19   O14   A    
C54   H43   S    
C42   O3    S    
C62   O3    S    
C36   C37   S    
C36   H60   S    
C9    C16   A    
C24   C26   S    
C14   H23   S    
C44   H18   S    
C41   H13   S    
C50   H31   S    
C57   H48   S    
C46   O4    S    
C39   O2    S    
C10   C17   A    
C15   C16   A    
C40   H9    S    
C60   H55   S    
C61   H57   S    
C34   C35   A    
C62   C64   A    
O11   Zn2   S    
C41   H10   S    
C31   O16   S    
C27   I1    S    
C7    C14   A    
C59   H52   S    
C23   C33   A    
C48   H27   S    
C58   H49   S    
C12   O10   A    
C60   H54   S    
C49   H30   S    
C3    O5    S    
C17   H56   S    
C4    O6    S    
C46   H21   S    
C27   C45   A    
C5    N1    A    
C49   O5    S    
C38   H5    S    
C59   C60   S    
C59   H53   S    
C48   H26   S    
C47   H25   S    
C14   C17   A    
O14   Zn1   S    
O10   Zn1   S    
C16   H45   S    
C2    C45   A    
C51   H35   S    
O13   Zn2   S    
C52   H37   S    
O9    Zn2   S    
C31   C33   A    
C54   H42   S    
N2    Zn2   S    
C63   O4    S    
C18   O12   A    
C39   C40   S    
C5    C7    A    
C33   C62   A    
C4    N2    A    
C59   O8    S    
C1    O1    A    
C25   C26   T    
C22   C25   S    
C60   C61   S    
C6    O8    S    
C43   C44   S    
C32   C35   A    
C37   C38   S    
C3    C9    A    
C41   H11   S    
C47   C48   S    
C23   C34   A    
C37   H2    S    
C56   C64   A    
C50   C51   S    
C12   O9    A    
O1    Zn1   S    
C9    C11   A    
C36   O16   S    
C40   C41   S    
C20   C22   T    
C42   H14   S    
C8    C15   A    
C55   C57   S    
C55   H46   S    
C58   H51   S    
C52   O6    S    
C42   C43   S    
C15   H34   S    
C4    C10   A    
C32   O2    S    
O15   Zn2   S    
C2    H12   S    
C2    C63   A    
C37   H62   S    
C51   H36   S    
C46   C47   S    
C19   O13   A    
C40   H8    S    
C54   H41   S    
C19   C21   S    
C3    N1    A    
C18   O15   A    
O12   Zn1   S    
C38   H4    S    
C44   H20   S    
C10   C13   A    
C6    C8    A    
C5    O7    S    
C55   O7    S    
C55   H44   S    
C61   H59   S    
C47   H24   S    
C28   C30   A    
C43   H16   S    
C29   C31   A    
C64   H1    S    
C30   C32   A    
C11   C13   A    
C50   H32   S    
C57   C58   S    
C57   H47   S    
C53   H39   S    
C43   H17   S    
C1    C30   S    
C39   H6    S    
C18   C20   S    
N1    Zn1   S    
C1    O11   A    
C42   H15   S    
C38   H3    S    
C49   C50   S    
C48   H28   S    
C21   C24   T    
C58   H50   S    
C39   H7    S    
C61   H58   S    
C35   C63   A    
C53   H40   S    
C49   H29   S    
C28   I2    S    
C46   H22   S    
