data_mof_unit_53003.cif
_audit_creation_date              2012-12-10T17:38:15-0500
_audit_creation_method            fapswitch 2.2
_symmetry_space_group_name_H-M    P1
_symmetry_Int_Tables_number       1
_space_group_crystal_system       triclinic
_cell_length_a                    12.311276
_cell_length_b                    13.162203
_cell_length_c                    19.280547
_cell_angle_alpha                 76.83197
_cell_angle_beta                  101.108822
_cell_angle_gamma                 116.221833
_cell_volume                      2713.88733739

loop_
_atom_site_label
_atom_site_type_symbol
_atom_type_description
_atom_site_fract_x
_atom_site_fract_y
_atom_site_fract_z
_atom_type_partial_charge
C1    C     C_R   0.855287 0.285927 0.510802 0.844228
C2    C     C_R   0.991572 0.484740 0.710693 -0.231094
C3    C     C_R   0.985005 0.430066 0.078507 0.462756
C4    C     C_R   0.976816 0.427203 0.937679 0.429773
C5    C     C_R   0.030171 0.383277 0.210036 0.351914
C6    C     C_R   0.022645 0.392045 0.280640 -0.147477
C7    C     C_R   0.987324 0.475329 0.292681 -0.302824
C8    C     C_R   0.946367 0.539558 0.232576 -0.082134
C9    C     C_R   0.951849 0.529134 0.162717 0.319549
C10   C     C_R   0.991529 0.449231 0.151605 -0.093856
C11   C     C_R   0.275082 0.018693 0.422767 -0.023522
C12   C     C_R   0.998590 0.498067 0.632942 0.832971
C13   C     C_R   0.229091 0.836115 0.498880 -0.175684
C14   C     C_R   0.804854 0.100865 0.594928 -0.064726
C15   C     C_R   0.712461 0.017445 0.634691 -0.159674
C16   C     C_R   0.591778 0.986932 0.607454 -0.122716
C17   C     C_R   0.560048 0.028584 0.536058 0.040162
C18   C     C_R   0.651001 0.121995 0.497835 0.008472
C19   C     C_R   0.438502 0.983129 0.503374 -0.045601
C20   C     C_R   0.401804 0.051243 0.443708 -0.009530
C21   C     C_R   0.492322 0.149860 0.408246 0.305306
C22   C     C_R   0.616633 0.173332 0.429488 0.321064
C23   C     C_R   0.144955 0.713307 0.496886 0.890059
C24   C     C_R   0.354006 0.868556 0.524424 -0.036320
C25   C     C_R   0.191752 0.923275 0.463890 -0.186274
C26   C     C_R   0.773660 0.163580 0.529985 -0.096448
C27   C     C_R   0.347971 0.332322 0.621052 0.355274
C28   C     C_R   0.751692 0.648187 0.403815 0.146478
C29   C     C_R   0.639574 0.651717 0.371720 -0.183936
C30   C     C_R   0.532189 0.574103 0.401414 -0.087629
C31   C     C_R   0.539895 0.510833 0.470263 -0.048654
C32   C     C_R   0.650146 0.496496 0.495143 0.218785
C33   C     C_R   0.440906 0.459642 0.514139 -0.134443
C34   C     C_R   0.996482 0.494227 0.367605 0.877810
C35   C     C_R   0.445051 0.379988 0.577025 0.005204
C36   C     C_R   0.545070 0.350164 0.593852 0.388264
C37   C     C_R   0.647430 0.412708 0.555667 -0.248735
C38   C     C_R   0.340543 0.490413 0.499676 0.078457
C39   C     C_R   0.248562 0.360459 0.600054 0.091895
C40   C     C_R   0.046190 0.417861 0.757616 -0.133254
C41   C     C_R   0.036612 0.392641 0.830782 0.380692
C42   C     C_R   0.975000 0.439514 0.859573 -0.107369
C43   C     C_R   0.920327 0.508363 0.813839 0.370140
C44   C     C_R   0.926644 0.529810 0.738728 -0.127632
Cu1   Cu    Cu3+1 0.098280 0.475420 0.516260 1.018779
Cu2   Cu    Cu3+1 0.901720 0.524580 0.483740 1.037702
H1    H     H_    0.093613 0.380315 0.737090 0.197266
H2    H     H_    0.523668 0.929273 0.642848 0.168962
H3    H     H_    0.733652 0.975929 0.687531 0.194293
H4    H     H_    0.174649 0.323952 0.633267 0.153555
H5    H     H_    0.337626 0.558463 0.457142 0.177242
H6    H     H_    0.723160 0.392248 0.575449 0.180741
N1    N     N_R   0.873969 0.401646 0.966641 -0.132024
N2    N     N_R   0.878042 0.403219 0.035806 -0.181656
N3    N     N_R   0.087527 0.452976 0.050106 -0.158853
N4    N     N_R   0.083456 0.451611 0.980788 -0.197730
N5    N     N_R   0.246290 0.438200 0.540910 -0.225116
N6    N     N_R   0.754310 0.561190 0.459520 -0.221227
O1    O     O_R   0.972510 0.318130 0.520450 -0.568411
O2    O     O_R   0.806530 0.359650 0.492990 -0.588418
O3    O     O_R   0.083010 0.479220 0.613590 -0.584796
O4    O     O_R   0.917030 0.520740 0.586130 -0.588510
O5    O     O_R   0.193470 0.640350 0.507010 -0.576332
O6    O     O_R   0.027490 0.681870 0.479550 -0.528615
O7    O     O_R   0.082970 0.479260 0.413870 -0.562604
O8    O     O_R   0.916990 0.520780 0.386410 -0.518993
O9    O     O_3   0.458886 0.223847 0.354898 -0.672613
H7    H     H_    0.527540 0.301030 0.350873 0.356357
C45   C     C_2   0.229102 0.056871 0.349206 0.991145
O10   O     O_2   0.264727 0.044632 0.297958 -0.511418
O11   O     O_R   0.143614 0.103121 0.337750 -0.715264
H8    H     H_    0.112391 0.115115 0.285337 0.344732
C46   C     C_2   0.397815 0.781209 0.566307 0.862219
O12   O     O_2   0.351311 0.720436 0.620319 -0.576299
O13   O     O_R   0.492632 0.769506 0.543898 -0.733179
H9    H     H_    0.514295 0.707459 0.576556 0.329002
C47   C     C_2   0.931715 0.123518 0.625395 0.852810
O14   O     O_2   0.005189 0.132233 0.587378 -0.561963
O15   O     O_R   0.965366 0.128266 0.698521 -0.758041
H10   H     H_    0.053534 0.141301 0.713386 0.360341
O16   O     O_3   0.704974 0.244574 0.384254 -0.700237
H11   H     H_    0.666220 0.249514 0.334282 0.359444
O17   O     O_3   0.542099 0.259506 0.647703 -0.685966
H12   H     H_    0.617016 0.247326 0.651054 0.322001
O18   O     O_3   0.348665 0.262343 0.685972 -0.659775
H13   H     H_    0.428209 0.301143 0.713477 0.380139
O19   O     O_3   0.087705 0.320722 0.871688 -0.665239
H14   H     H_    0.051058 0.287222 0.917506 0.347503
C48   C     C_2   0.863217 0.746469 0.378407 0.882199
O20   O     O_2   0.941508 0.732320 0.357071 -0.582058
O21   O     O_R   0.871660 0.857645 0.371788 -0.743861
H15   H     H_    0.943441 0.917314 0.345915 0.357478
C49   C     C_2   0.416511 0.538177 0.353377 0.869387
O22   O     O_2   0.368431 0.440479 0.339842 -0.516180
O23   O     O_R   0.363902 0.615197 0.322906 -0.715673
H16   H     H_    0.285452 0.579535 0.291276 0.342962
C50   C     C_2   0.633751 0.733618 0.305141 0.948987
O24   O     O_2   0.583282 0.796342 0.302778 -0.488111
O25   O     O_R   0.687912 0.740333 0.245952 -0.738593
H17   H     H_    0.678868 0.799903 0.204309 0.353119
O26   O     O_3   0.866229 0.556884 0.845101 -0.667984
H18   H     H_    0.856956 0.622391 0.811721 0.351589
C51   C     C_2   0.866320 0.599468 0.690878 0.869648
O27   O     O_2   0.926282 0.687921 0.653037 -0.514858
O28   O     O_R   0.741185 0.564621 0.690217 -0.751701
H19   H     H_    0.710213 0.618524 0.655084 0.333666
O29   O     O_3   0.070394 0.307803 0.196322 -0.680459
H20   H     H_    0.126602 0.294756 0.237842 0.355861
C52   C     C_2   0.032086 0.301609 0.340162 0.936500
O30   O     O_2   0.942940 0.210764 0.351216 -0.514435
O31   O     O_R   0.141939 0.320089 0.383272 -0.696535
H21   H     H_    0.135787 0.253604 0.423417 0.384396
C53   C     C_2   0.893759 0.617392 0.239141 1.048181
O32   O     O_2   0.795161 0.578084 0.262514 -0.545456
O33   O     O_R   0.951441 0.734256 0.211886 -0.679970
H22   H     H_    0.903620 0.778719 0.214909 0.367146
O34   O     O_3   0.915916 0.597970 0.106262 -0.656269
H23   H     H_    0.956830 0.609506 0.063872 0.350597
C54   C     C_2   0.083129 0.927931 0.484127 0.942618
O35   O     O_2   0.016329 0.848542 0.524590 -0.517453
O36   O     O_R   0.062723 0.027329 0.462430 -0.700145
H24   H     H_    0.986506 0.019857 0.479851 0.384734

loop_
_geom_bond_atom_site_label_1
_geom_bond_atom_site_label_2
_ccdc_geom_bond_type
C40   H1    S    
O19   H14   S    
C49   O22   D    
C4    N1    A    
O23   H16   S    
C9    O34   S    
C41   C42   A    
C19   C20   A    
C18   C26   A    
C32   N6    A    
C43   C44   A    
C2    C12   S    
C34   O8    A    
C50   O24   D    
C7    C8    A    
C47   O14   D    
Cu1   N5    S    
O26   H18   S    
Cu2   O4    S    
C36   C37   A    
Cu2   O8    S    
C30   C49   S    
C1    O1    A    
O18   H13   S    
C5    C6    A    
C3    N2    A    
C24   C46   S    
C11   C25   A    
C36   O17   S    
O33   H22   S    
C39   N5    A    
C4    N4    A    
C13   C23   S    
C45   O11   S    
C46   O12   D    
C14   C47   S    
C27   O18   S    
C33   C35   A    
C3    N3    A    
Cu1   O1    S    
O25   H17   S    
C2    C44   A    
C8    C9    A    
O29   H20   S    
C31   C33   A    
C28   C48   S    
C48   O21   S    
C9    C10   A    
C54   O36   S    
C49   O23   S    
C21   C22   A    
Cu2   N6    S    
C46   O13   S    
C16   H2    S    
C25   C54   S    
C34   O7    A    
C50   O25   S    
C44   C51   S    
O16   H11   S    
C47   O15   S    
C41   O19   S    
C23   O5    A    
C11   C20   A    
O9    H7    S    
C22   O16   S    
C1    O2    A    
C27   C39   A    
O21   H15   S    
C37   H6    S    
C16   C17   A    
C38   H5    S    
C27   C35   A    
Cu1   Cu2   S    
Cu1   O5    S    
C13   C24   A    
Cu2   O6    S    
C35   C36   A    
O13   H9    S    
C43   O26   S    
C29   C30   A    
C38   N5    A    
C12   O4    A    
O17   H12   S    
N3    N4    A    
C17   C18   A    
C51   O28   S    
C32   C37   A    
C14   C26   A    
O36   H24   S    
C8    C53   S    
C40   C41   A    
Cu1   O7    S    
C1    C26   S    
C6    C52   S    
C42   C43   A    
C28   C29   A    
C7    C34   S    
C53   O32   D    
C5    O29   S    
C23   O6    A    
O31   H21   S    
Cu2   O2    S    
C18   C22   A    
C31   C32   A    
C13   C25   A    
C54   O35   D    
C11   C45   S    
N1    N2    A    
C6    C7    A    
C28   N6    A    
O28   H19   S    
C33   C38   A    
C29   C50   S    
C52   O31   S    
C19   C24   A    
O11   H8    S    
C3    C10   S    
C52   O30   D    
C12   O3    A    
C30   C31   A    
C4    C42   S    
Cu1   O3    S    
C17   C19   A    
C15   H3    S    
C45   O10   D    
O15   H10   S    
C2    C40   A    
C5    C10   A    
C39   H4    S    
C20   C21   A    
C51   O27   D    
C14   C15   A    
C48   O20   D    
O34   H23   S    
C21   O9    S    
C15   C16   A    
C53   O33   S    
