data_mof_unit_33548.cif
_audit_creation_date              2012-12-11T15:36:29-0500
_audit_creation_method            fapswitch 2.2
_symmetry_space_group_name_H-M    P1
_symmetry_Int_Tables_number       1
_space_group_crystal_system       triclinic
_cell_length_a                    15.036424
_cell_length_b                    15.037516
_cell_length_c                    34.777613
_cell_angle_alpha                 91.480105
_cell_angle_beta                  91.456783
_cell_angle_gamma                 60.133421
_cell_volume                      6816.20853626

loop_
_atom_site_label
_atom_site_type_symbol
_atom_type_description
_atom_site_fract_x
_atom_site_fract_y
_atom_site_fract_z
_atom_type_partial_charge
C1    C     C_R   0.610752 0.302336 0.443891 0.564384
C2    C     C_R   0.663651 0.053719 0.761884 -0.121019
C3    C     C_R   0.105019 0.761543 0.888850 -0.198417
C4    C     C_R   0.140673 0.747908 0.851592 -0.159140
C5    C     C_R   0.147697 0.667120 0.828583 -0.001239
C6    C     C_R   0.137377 0.587580 0.845322 0.012534
C7    C     C_R   0.106182 0.599367 0.884045 0.272593
C8    C     C_R   0.243945 0.603292 0.768117 -0.146138
C9    C     C_R   0.249300 0.601306 0.728311 -0.132049
C10   C     C_R   0.165759 0.672290 0.706386 0.040940
C11   C     C_R   0.077071 0.747347 0.724552 -0.083652
C12   C     C_R   0.069624 0.749659 0.764805 0.008566
C13   C     C_R   0.608967 0.140901 0.785400 0.013393
C14   C     C_R   0.655574 0.761926 0.164706 -0.132682
C15   C     C_R   0.153779 0.674126 0.786629 0.035062
C16   C     C_R   0.183535 0.739986 0.643862 0.283155
C17   C     C_R   0.218950 0.717421 0.605858 -0.109046
C18   C     C_R   0.216943 0.557349 0.607470 -0.145975
C19   C     C_R   0.185634 0.577484 0.645491 -0.179333
C20   C     C_R   0.173613 0.666019 0.664349 0.036723
C21   C     C_R   0.239374 0.624314 0.587968 -0.022812
C22   C     C_R   0.675539 0.073867 0.904873 0.002389
C23   C     C_R   0.604341 0.053915 0.885336 -0.146230
C24   C     C_R   0.542419 0.195197 0.639495 -0.131304
C25   C     C_R   0.578387 0.081712 0.846932 -0.146182
C26   C     C_3   0.530044 0.831683 0.420973 -0.255640
C27   C     C_3   0.575245 0.903738 0.423627 -0.309539
C28   C     C_3   0.505172 0.002256 0.445867 -0.453832
C29   C     C_3   0.004544 0.849013 0.292783 -0.261052
C30   C     C_3   0.940026 0.801748 0.305535 -0.290553
C31   C     C_3   0.886323 0.848730 0.343502 -0.455717
C32   C     C_3   0.105309 0.501303 0.336475 -0.142816
C33   C     C_3   0.524948 0.185029 0.073498 -0.249952
C34   C     C_3   0.451922 0.301667 0.074119 -0.309229
C35   C     C_R   0.824299 0.611618 0.158798 -0.082241
C36   C     C_3   0.361496 0.332040 0.046304 -0.460418
C37   C     C_3   0.539936 0.368161 0.202200 -0.271600
C38   C     C_3   0.609474 0.410330 0.190846 -0.274943
C39   C     C_3   0.548833 0.512424 0.170279 -0.428827
C40   C     C_3   0.867036 0.225639 0.392483 -0.117336
C41   C     C_3   0.497580 0.807426 0.920971 -0.245042
C42   C     C_3   0.476649 0.754471 0.953863 -0.284108
C43   C     C_3   0.376287 0.827686 0.973788 -0.452097
C44   C     C_3   0.407171 0.716051 0.732078 -0.123339
C45   C     C_3   0.855809 0.401090 0.224602 -0.161438
C46   C     C_R   0.541426 0.226952 0.602151 -0.127308
C47   C     C_3   0.180236 0.460446 0.922345 -0.122494
C48   C     C_3   0.973706 0.835169 0.783523 -0.251915
C49   C     C_3   0.905815 0.797119 0.801009 -0.304783
C50   C     C_3   0.845971 0.863320 0.835377 -0.439046
C51   C     C_3   0.086690 0.913611 0.647987 -0.141190
C52   C     C_3   0.155285 0.492345 0.822391 -0.230432
C53   C     C_3   0.061500 0.511526 0.797783 -0.296092
C54   C     C_3   0.077358 0.413168 0.777903 -0.460003
C55   C     C_3   0.737338 0.967661 0.698384 -0.257341
C56   C     C_3   0.674413 0.927306 0.676624 -0.291528
C57   C     C_R   0.703301 0.221853 0.614687 -0.127727
C58   C     C_3   0.743610 0.832353 0.652470 -0.450864
C59   C     C_3   0.740863 0.208402 0.828476 -0.249141
C60   C     C_3   0.840131 0.128025 0.809159 -0.297440
C61   C     C_3   0.892529 0.178380 0.789172 -0.455767
C62   C     C_R   0.704612 0.188964 0.652064 -0.124660
C63   C     C_R   0.622824 0.178088 0.664812 0.028796
C64   C     C_R   0.619885 0.244362 0.589766 0.023068
C65   C     C_R   0.045595 0.739244 0.048492 0.534041
C66   C     C_R   0.741440 0.679112 0.181612 0.060691
C67   C     C_R   0.746894 0.746580 0.063961 0.544370
C68   C     C_R   0.749324 0.043050 0.050031 0.532679
C69   C     C_R   0.019614 0.721079 0.940113 0.548644
C70   C     C_R   0.717305 0.729560 0.954832 0.530869
C71   C     C_R   0.823327 0.629710 0.119665 -0.135211
C72   C     C_R   0.721780 0.023710 0.941797 0.537083
C73   C     C_R   0.758803 0.573658 0.238524 0.287531
C74   C     C_R   0.747132 0.569026 0.278239 -0.102369
C75   C     C_R   0.728886 0.651984 0.302856 -0.012080
C76   C     C_R   0.723297 0.739857 0.287406 -0.144559
C77   C     C_R   0.621852 0.131192 0.827557 0.026641
C78   C     C_R   0.729937 0.746991 0.247921 -0.173638
C79   C     C_R   0.744778 0.665522 0.223329 0.043127
C80   C     C_R   0.631362 0.736455 0.362874 -0.098646
C81   C     C_R   0.595416 0.611381 0.450255 0.532229
C82   C     C_R   0.601962 0.731374 0.400467 -0.001681
C83   C     C_R   0.725021 0.548170 0.399374 -0.143615
C84   C     C_R   0.758425 0.556396 0.363582 -0.139951
C85   C     C_R   0.707640 0.648924 0.343925 0.021086
C86   C     C_R   0.641975 0.633081 0.417231 0.023169
C87   C     C_R   0.102969 0.729393 0.084614 0.021127
C88   C     C_R   0.688363 0.158100 0.847803 0.002665
C89   C     C_R   0.156171 0.633932 0.102652 -0.130774
C90   C     C_R   0.184095 0.628238 0.141404 -0.119323
C91   C     C_R   0.158868 0.717981 0.162846 0.033256
C92   C     C_R   0.114043 0.812329 0.143982 -0.126699
C93   C     C_R   0.304155 0.591285 0.442313 0.546802
C94   C     C_R   0.087007 0.817907 0.105051 -0.130020
C95   C     C_R   0.257447 0.633348 0.222462 -0.130806
C96   C     C_R   0.263696 0.622337 0.262173 -0.090729
C97   C     C_R   0.182691 0.691237 0.285488 0.072964
C98   C     C_R   0.094434 0.773853 0.268674 0.009350
C99   C     C_R   0.714248 0.128960 0.886297 -0.124660
C100  C     C_R   0.089272 0.784194 0.228514 -0.105359
C101  C     C_R   0.170043 0.713531 0.205218 0.016089
C102  C     C_R   0.193391 0.590576 0.343292 0.278464
C103  C     C_R   0.224239 0.566370 0.382054 -0.122504
C104  C     C_R   0.243071 0.716956 0.389111 -0.146509
C105  C     C_R   0.605230 0.300323 0.553715 0.545036
C106  C     C_R   0.215969 0.739594 0.350594 -0.181897
C107  C     C_R   0.194301 0.675245 0.327339 0.042183
C108  C     C_R   0.251654 0.627847 0.404806 -0.023170
C109  C     C_R   0.719885 0.105265 0.085828 0.028317
C110  C     C_R   0.551207 0.237133 0.768651 -0.131216
C111  C     C_R   0.799364 0.097360 0.110253 -0.137826
C112  C     C_R   0.780926 0.126916 0.148725 -0.143294
C113  C     C_R   0.683079 0.163626 0.163639 0.013251
C114  C     C_R   0.601818 0.178831 0.138986 -0.101966
C115  C     C_R   0.617768 0.155625 0.099535 -0.001630
C116  C     C_R   0.600115 0.268706 0.223828 0.010502
C117  C     C_R   0.587885 0.607460 0.558736 0.542445
C118  C     C_R   0.591498 0.271446 0.263961 -0.101843
C119  C     C_R   0.651566 0.183713 0.285846 0.017576
C120  C     C_R   0.719587 0.091517 0.267604 -0.135564
C121  C     C_R   0.553912 0.247034 0.729024 -0.127956
C122  C     C_R   0.727957 0.086823 0.227806 -0.135921
C123  C     C_R   0.669315 0.174575 0.205573 0.036414
C124  C     C_R   0.734847 0.171318 0.349689 -0.114881
C125  C     C_R   0.726608 0.202366 0.388688 0.276868
C126  C     C_R   0.543988 0.259246 0.384747 -0.183509
C127  C     C_R   0.552485 0.232631 0.345957 -0.146615
C128  C     C_R   0.647045 0.191986 0.327965 -0.019490
C129  C     C_R   0.298094 0.589154 0.552047 0.549299
C130  C     C_R   0.629337 0.249053 0.406104 0.031681
C131  C     C_R   0.694888 0.688197 0.918958 0.018182
C132  C     C_R   0.615032 0.161104 0.705715 0.033023
C133  C     C_R   0.779731 0.610707 0.899020 -0.139850
C134  C     C_R   0.771404 0.589470 0.860483 -0.131433
C135  C     C_R   0.677915 0.644360 0.840861 0.017623
C136  C     C_R   0.590005 0.712263 0.861434 -0.110548
C137  C     C_R   0.596444 0.734199 0.900621 -0.003325
C138  C     C_R   0.590884 0.636473 0.779763 -0.106998
C139  C     C_R   0.582099 0.640082 0.739441 0.291464
C140  C     C_R   0.660470 0.639899 0.717949 0.039797
C141  C     C_R   0.739440 0.715701 0.102961 0.017155
C142  C     C_R   0.744659 0.638397 0.736645 -0.179787
C143  C     C_R   0.669484 0.062696 0.722095 0.009274
C144  C     C_R   0.750714 0.638590 0.776626 -0.138721
C145  C     C_R   0.673859 0.637765 0.798514 -0.012344
C146  C     C_R   0.726509 0.557829 0.654198 -0.121532
C147  C     C_R   0.709579 0.550312 0.614912 -0.131227
C148  C     C_R   0.552804 0.714971 0.618120 -0.127135
C149  C     C_R   0.569333 0.721826 0.657355 -0.087922
C150  C     C_R   0.653906 0.641371 0.675800 0.060384
C151  C     C_R   0.620106 0.626770 0.596916 0.017674
C152  C     C_R   0.079822 0.692027 0.904390 0.004762
C153  C     C_R   0.654297 0.779927 0.125616 -0.131881
Cr1   Cr    Cr6+3 0.426010 0.422500 0.497000 1.001464
Cr2   Cr    Cr6+3 0.651300 0.426310 0.501970 1.024129
Cr3   Cr    Cr6+3 0.422670 0.651170 0.501050 1.002817
Cr4   Cr    Cr6+3 0.905130 0.911420 0.992650 0.999193
Cr5   Cr    Cr6+3 0.911860 0.682710 0.002320 1.016771
Cr6   Cr    Cr6+3 0.682710 0.906840 0.004710 0.992718
H1    H     H_    0.588608 0.846751 0.113573 0.129609
H2    H     H_    0.890185 0.579109 0.102941 0.125010
H3    H     H_    0.384422 0.698893 0.759837 0.114496
H4    H     H_    0.348438 0.724863 0.710243 0.197827
H5    H     H_    0.835804 0.366682 0.248404 0.107661
H6    H     H_    0.923839 0.408975 0.232604 0.108481
H7    H     H_    0.877698 0.346869 0.199756 0.137820
H8    H     H_    0.249857 0.422382 0.904213 0.090661
H9    H     H_    0.169766 0.399386 0.935010 0.133304
H10   H     H_    0.192483 0.503366 0.946498 0.125685
H11   H     H_    0.898251 0.849095 0.860424 0.172198
H12   H     H_    0.808813 0.945603 0.828452 0.162716
H13   H     H_    0.020399 0.844984 0.215282 0.098182
H14   H     H_    0.786423 0.844332 0.843445 0.153643
H15   H     H_    0.851585 0.797487 0.778616 0.140967
H16   H     H_    0.951716 0.717885 0.811236 0.174687
H17   H     H_    0.996135 0.875515 0.805401 0.147707
H18   H     H_    0.926426 0.894918 0.762178 0.112900
H19   H     H_    0.016464 0.906623 0.649388 0.102648
H20   H     H_    0.099250 0.928397 0.618005 0.112086
H21   H     H_    0.073120 0.981320 0.665835 0.135895
H22   H     H_    0.144828 0.381628 0.758802 0.151112
H23   H     H_    0.089315 0.355058 0.799563 0.152008
H24   H     H_    0.232773 0.496495 0.393720 0.122542
H25   H     H_    0.008343 0.429996 0.760207 0.141773
H26   H     H_    0.993171 0.541644 0.816387 0.165661
H27   H     H_    0.046954 0.568332 0.775252 0.164467
H28   H     H_    0.223622 0.463930 0.804094 0.123382
H29   H     H_    0.173926 0.428072 0.841967 0.174363
H30   H     H_    0.786815 0.850431 0.631576 0.152784
H31   H     H_    0.798675 0.769352 0.671269 0.147172
H32   H     H_    0.696272 0.806117 0.636189 0.154080
H33   H     H_    0.632707 0.907065 0.697487 0.160142
H34   H     H_    0.617208 0.987106 0.657300 0.168225
H35   H     H_    0.095544 0.882322 0.159776 0.096884
H36   H     H_    0.782543 0.984445 0.677973 0.140785
H37   H     H_    0.793977 0.906019 0.717322 0.124513
H38   H     H_    0.841316 0.230548 0.766409 0.158049
H39   H     H_    0.912331 0.222680 0.810312 0.151586
H40   H     H_    0.964161 0.118309 0.775616 0.137148
H41   H     H_    0.893623 0.074357 0.831137 0.154941
H42   H     H_    0.823291 0.082944 0.787413 0.169467
H43   H     H_    0.688772 0.265216 0.807180 0.153727
H44   H     H_    0.759526 0.252450 0.850221 0.132475
H45   H     H_    0.263910 0.765736 0.405857 0.140038
H46   H     H_    0.877708 0.060955 0.100430 0.122269
H47   H     H_    0.484246 0.247962 0.329515 0.129568
H48   H     H_    0.540823 0.343298 0.278525 0.107319
H49   H     H_    0.820697 0.488552 0.350423 0.088982
H50   H     H_    0.844458 0.115033 0.167479 0.102182
H51   H     H_    0.891197 0.547378 0.171549 0.125813
H52   H     H_    0.765869 0.023303 0.284137 0.106937
H53   H     H_    0.780754 0.014222 0.214205 0.107822
H54   H     H_    0.808392 0.136393 0.335682 0.099823
H55   H     H_    0.526348 0.205885 0.150661 0.099446
H56   H     H_    0.468421 0.294859 0.397226 0.141445
H57   H     H_    0.855425 0.571381 0.912228 0.165497
H58   H     H_    0.513703 0.787679 0.673699 0.112085
H59   H     H_    0.746845 0.502831 0.289538 0.100374
H60   H     H_    0.533676 0.631758 0.796483 0.099385
H61   H     H_    0.839527 0.533750 0.845474 0.114766
H62   H     H_    0.761597 0.472929 0.412100 0.130162
H63   H     H_    0.804631 0.639078 0.720261 0.105367
H64   H     H_    0.814460 0.641626 0.790460 0.108899
H65   H     H_    0.792534 0.495453 0.668185 0.103175
H66   H     H_    0.763009 0.481750 0.599264 0.122443
H67   H     H_    0.516925 0.752581 0.846355 0.090661
H68   H     H_    0.483658 0.775651 0.605048 0.130069
H69   H     H_    0.091266 0.830166 0.904640 0.132070
H70   H     H_    0.176718 0.520885 0.661007 0.113155
H71   H     H_    0.319044 0.544366 0.714472 0.129749
H72   H     H_    0.309880 0.548191 0.784557 0.103363
H73   H     H_    0.169596 0.564484 0.087589 0.117096
H74   H     H_    0.154162 0.805785 0.839503 0.112556
H75   H     H_    0.013501 0.802892 0.707263 0.099985
H76   H     H_    0.236491 0.769623 0.591374 0.128009
H77   H     H_    0.590479 0.813877 0.181995 0.107997
H78   H     H_    0.231133 0.485343 0.594436 0.139249
H79   H     H_    0.574152 0.010544 0.898839 0.126453
H80   H     H_    0.769512 0.144374 0.901153 0.122869
H81   H     H_    0.766779 0.176735 0.671633 0.101327
H82   H     H_    0.511319 0.322618 0.716613 0.122251
H83   H     H_    0.507602 0.304910 0.786435 0.102758
H84   H     H_    0.046259 0.892551 0.091888 0.121271
H85   H     H_    0.528268 0.059926 0.831664 0.110794
H86   H     H_    0.705440 0.979027 0.774775 0.109352
H87   H     H_    0.478567 0.187670 0.649147 0.101126
H88   H     H_    0.711025 0.804256 0.305658 0.109486
H89   H     H_    0.476033 0.243416 0.583715 0.123568
H90   H     H_    0.764420 0.235088 0.606097 0.122857
H91   H     H_    0.721823 0.816962 0.236380 0.113339
H92   H     H_    0.592481 0.808838 0.348073 0.101371
H93   H     H_    0.428728 0.043699 0.431462 0.148660
H94   H     H_    0.495790 0.984541 0.475803 0.149603
H95   H     H_    0.216706 0.804780 0.338380 0.109554
H96   H     H_    0.539385 0.052902 0.446892 0.151240
H97   H     H_    0.651352 0.864171 0.438441 0.168063
H98   H     H_    0.585892 0.925082 0.394466 0.158552
H99   H     H_    0.455385 0.869767 0.405143 0.139147
H100  H     H_    0.515576 0.819647 0.450833 0.178608
H101  H     H_    0.944097 0.831348 0.366907 0.164793
H102  H     H_    0.837138 0.933099 0.341279 0.155325
H103  H     H_    0.837727 0.815536 0.351083 0.139541
H104  H     H_    0.881730 0.814155 0.282852 0.154325
H105  H     H_    0.988444 0.717759 0.309328 0.198796
H106  H     H_    0.331971 0.559417 0.274859 0.115650
H107  H     H_    0.033222 0.874815 0.317935 0.146134
H108  H     H_    0.954287 0.919426 0.276234 0.117586
H109  H     H_    0.043074 0.566865 0.352641 0.106728
H110  H     H_    0.148231 0.434256 0.355444 0.112688
H111  H     H_    0.067885 0.478542 0.313431 0.139006
H112  H     H_    0.389052 0.308658 0.016409 0.145460
H113  H     H_    0.316660 0.295108 0.054447 0.148885
H114  H     H_    0.310466 0.416541 0.047331 0.140326
H115  H     H_    0.421414 0.328563 0.103485 0.151942
H116  H     H_    0.494280 0.341145 0.065790 0.165705
H117  H     H_    0.320499 0.578557 0.205050 0.096231
H118  H     H_    0.547346 0.162099 0.043188 0.161691
H119  H     H_    0.483996 0.145263 0.083110 0.138644
H120  H     H_    0.510587 0.503081 0.143976 0.141296
H121  H     H_    0.490076 0.570925 0.189643 0.149646
H122  H     H_    0.601610 0.539924 0.161775 0.190765
H123  H     H_    0.645783 0.422017 0.217242 0.203871
H124  H     H_    0.670964 0.354922 0.171579 0.178356
H125  H     H_    0.500771 0.358003 0.176489 0.135297
H126  H     H_    0.478178 0.426388 0.220714 0.127191
H127  H     H_    0.815629 0.301118 0.378935 0.099235
H128  H     H_    0.218566 0.554424 0.155206 0.103924
H129  H     H_    0.920411 0.170053 0.370962 0.101265
H130  H     H_    0.914205 0.238213 0.414632 0.136400
H131  H     H_    0.379752 0.894712 0.986221 0.152577
H132  H     H_    0.310885 0.854847 0.953029 0.145087
H133  H     H_    0.363255 0.787323 0.997393 0.142311
H134  H     H_    0.471821 0.687438 0.942181 0.156436
H135  H     H_    0.539869 0.726327 0.975584 0.174234
H136  H     H_    0.498899 0.877041 0.931382 0.168819
H137  H     H_    0.431413 0.835758 0.900457 0.119187
H138  H     H_    0.406397 0.790538 0.734045 0.098825
O1    O     O_R   0.324990 0.503440 0.453910 -0.524022
O2    O     O_R   0.675430 0.831160 0.051290 -0.519681
O3    O     O_R   0.698870 0.998880 0.039560 -0.502255
O4    O     O_R   0.522030 0.339050 0.458320 -0.519700
O5    O     O_R   0.811290 0.006780 0.950620 -0.518564
O6    O     O_R   0.980960 0.812920 0.953200 -0.512828
O7    O     O_R   0.001480 0.656720 0.955830 -0.470246
O8    O     O_R   0.809240 0.683250 0.968050 -0.500179
O9    O     O_R   0.652500 0.818540 0.967340 -0.525063
O10   O     O_R   0.677620 0.987170 0.961730 -0.505641
O11   O     O_3   0.833240 0.833660 0.999890 -0.229949
O12   O     O_R   0.639980 0.519500 0.542640 -0.502353
O13   O     O_R   0.676180 0.324490 0.458320 -0.462892
O14   O     O_R   0.643570 0.521510 0.464260 -0.506041
O15   O     O_R   0.504630 0.675350 0.460920 -0.528639
O16   O     O_R   0.339850 0.642450 0.459830 -0.497409
O17   O     O_R   0.321120 0.501280 0.538470 -0.518003
O18   O     O_R   0.518440 0.337050 0.536710 -0.504041
O19   O     O_R   0.672300 0.322330 0.542880 -0.515939
O20   O     O_3   0.173120 0.527350 0.319195 -0.573675
O21   O     O_3   0.812176 0.185063 0.410566 -0.548513
O22   O     O_3   0.502943 0.634299 0.720313 -0.568017
O23   O     O_R   0.500750 0.673190 0.545480 -0.522523
O24   O     O_3   0.770452 0.495231 0.213533 -0.590737
O25   O     O_3   0.091722 0.524686 0.900381 -0.565173
O26   O     O_3   0.173578 0.826382 0.662848 -0.583335
O27   O     O_R   0.336260 0.640450 0.538210 -0.499364
O28   O     O_3   0.499990 0.499990 0.500010 -0.233413
O29   O     O_R   0.834210 0.019400 0.034570 -0.520970
O30   O     O_R   0.002210 0.824620 0.031030 -0.503934
O31   O     O_R   0.024400 0.669340 0.039790 -0.524384
O32   O     O_R   0.830490 0.694950 0.045870 -0.501375

loop_
_geom_bond_atom_site_label_1
_geom_bond_atom_site_label_2
_ccdc_geom_bond_type
Cr2   O12   S    
C126  C127  A    
C69   O7    A    
C18   C21   A    
C19   C20   A    
C148  C151  A    
C114  C115  A    
C129  O17   A    
C66   C79   S    
C103  H24   S    
C104  H45   S    
C92   H35   S    
C5    C6    A    
C106  C107  A    
C138  C145  A    
C43   H131  S    
C73   C74   A    
C70   O9    A    
C146  C150  A    
C26   H100  S    
C77   C88   A    
C10   C20   S    
Cr4   O30   S    
C80   H92   S    
C50   H12   S    
C52   H28   S    
C51   H19   S    
C81   C86   S    
C18   H78   S    
Cr6   O11   S    
C124  H54   S    
C119  C128  S    
Cr3   O15   S    
C35   C71   A    
C59   C60   S    
C29   H107  S    
C32   H110  S    
Cr4   O6    S    
Cr5   O7    S    
Cr3   O27   S    
C65   C87   S    
C13   C77   S    
C27   H98   S    
C129  O27   A    
C37   H126  S    
C144  C145  A    
C35   C66   A    
C40   H129  S    
C17   C21   A    
C95   H117  S    
C75   C76   A    
C125  O21   S    
Cr1   O18   S    
C110  H83   S    
Cr2   O28   S    
C16   C20   A    
C92   C94   A    
C26   C27   S    
C40   H130  S    
C149  H58   S    
C63   C132  S    
C19   H70   S    
C37   H125  S    
C38   H124  S    
C80   C82   A    
C24   C63   A    
C87   C89   A    
C78   H91   S    
C122  H53   S    
C57   H90   S    
C67   C141  S    
C49   H16   S    
C146  C147  A    
C25   H85   S    
C71   H2    S    
C4    C5    A    
C139  C140  A    
C6    C7    A    
C34   H116  S    
C47   O25   S    
C31   H102  S    
C24   C46   A    
C112  H50   S    
C46   H89   S    
C116  C118  A    
C5    C15   S    
C88   C99   A    
C60   H41   S    
Cr6   O9    S    
C7    C152  A    
C97   C107  S    
C83   C86   A    
C46   C64   A    
Cr5   O11   S    
C22   C23   A    
C6    C52   S    
C3    H69   S    
Cr5   O31   S    
C1    O13   A    
C87   C94   A    
C116  C123  A    
C100  H13   S    
C114  H55   S    
C111  C112  A    
C53   H27   S    
C61   H40   S    
C97   C98   A    
C37   C116  S    
C53   C54   S    
C121  H82   S    
C68   O3    A    
C2    H86   S    
C76   C78   A    
C18   C19   A    
C109  C111  A    
C110  C121  A    
C38   C39   S    
Cr1   O28   S    
C81   O15   A    
C39   H121  S    
C42   H135  S    
C93   O16   A    
C58   H31   S    
C31   H101  S    
C44   H4    S    
C45   H7    S    
C71   C141  A    
C55   H37   S    
C43   H133  S    
Cr6   O2    S    
C91   C101  S    
C51   H20   S    
C105  O19   A    
C22   C72   S    
C47   H10   S    
C33   H119  S    
C73   C79   A    
C117  O12   A    
C55   C143  S    
C28   H94   S    
C68   O29   A    
C91   C92   A    
C23   H79   S    
C81   O14   A    
Cr1   O4    S    
C9    H71   S    
C83   H62   S    
C147  C151  A    
C94   H84   S    
C29   C30   S    
C72   O5    A    
C146  H65   S    
C84   H49   S    
C83   C84   A    
C139  O22   S    
C74   H59   S    
C62   C63   A    
C36   H113  S    
C54   H22   S    
C102  C107  A    
C117  C151  S    
C21   C129  S    
C41   H136  S    
C138  H60   S    
C121  C132  A    
C3    C4    A    
C65   O31   A    
C58   H32   S    
C40   O21   S    
C52   C53   S    
C69   O6    A    
C67   O2    A    
C69   C152  S    
C136  C137  A    
C32   O20   S    
C134  C135  A    
C153  H1    S    
C118  H48   S    
C47   H9    S    
C59   H43   S    
C141  C153  A    
C134  H61   S    
Cr3   O23   S    
C100  C101  A    
C56   C58   S    
C34   C36   S    
C102  C103  A    
C10   C11   A    
C102  O20   S    
Cr1   O1    S    
Cr4   O29   S    
C52   H29   S    
C65   O30   A    
C95   C101  A    
Cr6   O10   S    
C48   H17   S    
C55   C56   S    
C56   H33   S    
C41   C42   S    
C106  H95   S    
C32   H111  S    
C28   H96   S    
Cr4   O5    S    
C12   C48   S    
C104  C106  A    
C147  H66   S    
C135  C136  A    
C59   H44   S    
C3    C152  A    
C29   C98   S    
C50   H14   S    
C35   H51   S    
C140  C142  A    
C93   C108  S    
C30   C31   S    
C8    H72   S    
C126  C130  A    
C62   H81   S    
C30   H104  S    
C144  H64   S    
C75   C85   S    
C16   C17   A    
C135  C145  S    
C111  H46   S    
C41   C137  S    
C124  C128  A    
C99   H80   S    
C132  C143  A    
Cr2   O13   S    
C26   C82   S    
Cr3   O16   S    
C44   H3    S    
C49   H15   S    
C33   C115  S    
C57   C62   A    
C84   C85   A    
C1    C130  S    
C51   O26   S    
C82   C86   A    
C60   C61   S    
C28   H93   S    
C70   O8    A    
C80   C85   A    
C131  C137  A    
C113  C123  S    
C12   C15   A    
C50   H11   S    
C48   C49   S    
C8    C15   A    
C98   C100  A    
C133  C134  A    
C29   H108  S    
C54   H25   S    
C93   O1    A    
C76   H88   S    
C42   C43   S    
C61   H38   S    
C127  C128  A    
C36   H114  S    
C104  C108  A    
C113  C114  A    
C96   H106  S    
Cr5   O32   S    
C22   C99   A    
C133  H57   S    
C45   H5    S    
C61   H39   S    
C119  C120  A    
C117  O23   A    
C149  C150  A    
Cr1   O17   S    
C90   C91   A    
C112  C113  A    
C68   C109  S    
C89   H73   S    
C138  C139  A    
C38   H123  S    
C39   H120  S    
C60   H42   S    
C90   H128  S    
C44   H138  S    
C89   C90   A    
C45   H6    S    
C55   H36   S    
C4    H74   S    
C24   H87   S    
C95   C96   A    
C105  O18   A    
C14   H77   S    
C64   C105  S    
C16   O26   S    
C33   H118  S    
C34   H115  S    
C37   C38   S    
C31   H103  S    
C25   C77   A    
C127  H47   S    
C39   H122  S    
C45   O24   S    
C2    C13   A    
C53   H26   S    
C118  C119  A    
C72   O10   A    
C59   C88   S    
C125  C130  A    
Cr5   O8    S    
C8    C9    A    
Cr4   O11   S    
C26   H99   S    
C54   H23   S    
C103  C108  A    
C30   H105  S    
Cr3   O28   S    
C120  H52   S    
C7    O25   S    
C2    C143  A    
C1    O4    A    
C148  H68   S    
C48   H18   S    
C120  C122  A    
C17   H76   S    
Cr2   O14   S    
C74   C75   A    
C148  C149  A    
C78   C79   A    
C43   H132  S    
C13   C110  A    
C47   H8    S    
Cr2   O19   S    
C42   H134  S    
C96   C97   A    
C58   H30   S    
C33   C34   S    
C14   C66   A    
C49   C50   S    
C14   C153  A    
Cr6   O3    S    
C51   H21   S    
C140  C150  S    
C57   C64   A    
C9    C10   A    
C136  H67   S    
C131  C133  A    
C11   C12   A    
C67   O32   A    
C73   O24   S    
C11   H75   S    
C27   H97   S    
C40   H127  S    
C70   C131  S    
C36   H112  S    
C32   H109  S    
C142  C144  A    
C23   C25   A    
C44   O22   S    
C126  H56   S    
C109  C115  A    
C56   H34   S    
C41   H137  S    
C27   C28   S    
C122  C123  A    
C142  H63   S    
C124  C125  A    
