data_mof_unit_56704.cif
_audit_creation_date              2012-12-11T16:44:18-0500
_audit_creation_method            fapswitch 2.2
_symmetry_space_group_name_H-M    P1
_symmetry_Int_Tables_number       1
_space_group_crystal_system       triclinic
_cell_length_a                    27.352779
_cell_length_b                    7.187147
_cell_length_c                    22.777274
_cell_angle_alpha                 89.999903
_cell_angle_beta                  101.577144
_cell_angle_gamma                 90.0
_cell_volume                      4386.65076342

loop_
_atom_site_label
_atom_site_type_symbol
_atom_type_description
_atom_site_fract_x
_atom_site_fract_y
_atom_site_fract_z
_atom_type_partial_charge
O1    O     O_R   0.707300 0.594030 0.176840 -0.529779
O2    O     O_R   0.292700 0.405970 0.823160 -0.529779
O3    O     O_R   0.792700 0.094030 0.323160 -0.529779
O4    O     O_R   0.207300 0.905970 0.676840 -0.529779
O5    O     O_R   0.697330 0.262360 0.295660 -0.528747
O6    O     O_R   0.302670 0.737640 0.704340 -0.528747
O7    O     O_R   0.802670 0.762360 0.204340 -0.528746
O8    O     O_R   0.197330 0.237640 0.795660 -0.528747
C1    C     C_R   0.685468 0.433073 0.312825 0.667900
C2    C     C_R   0.314532 0.566927 0.687175 0.667901
C3    C     C_R   0.814532 0.933073 0.187175 0.667900
C4    C     C_R   0.185468 0.066927 0.812825 0.667900
O9    O     O_R   0.701410 0.264250 0.175600 -0.538172
O10   O     O_R   0.298590 0.735750 0.824400 -0.538173
O11   O     O_R   0.798590 0.764250 0.324400 -0.538173
O12   O     O_R   0.201410 0.235750 0.675600 -0.538173
O13   O     O_R   0.796800 0.094950 0.202240 -0.535080
O14   O     O_R   0.203200 0.905050 0.797760 -0.535079
O15   O     O_R   0.703200 0.594950 0.297760 -0.535079
O16   O     O_R   0.296800 0.405050 0.702240 -0.535079
C5    C     C_R   0.689589 0.432416 0.153449 0.713672
C6    C     C_R   0.310411 0.567584 0.846551 0.713672
C7    C     C_R   0.810411 0.932416 0.346550 0.713672
C8    C     C_R   0.189589 0.067584 0.653449 0.713673
O17   O     O_3   0.781290 0.427390 0.258880 -0.370657
O18   O     O_3   0.218710 0.572610 0.741120 -0.370657
O19   O     O_3   0.718710 0.927390 0.241120 -0.370657
O20   O     O_3   0.281290 0.072610 0.758880 -0.370657
V1    V     V_3+5 0.744190 0.152150 0.248350 1.467193
V2    V     V_3+5 0.255810 0.847850 0.751650 1.467193
V3    V     V_3+5 0.755810 0.652150 0.251650 1.467193
V4    V     V_3+5 0.244190 0.347850 0.748350 1.467193
C9    C     C_R   0.154400 0.064169 0.595024 -0.047350
C10   C     C_R   0.845600 0.935831 0.404975 -0.047350
C11   C     C_R   0.345599 0.564170 0.904976 -0.047351
C12   C     C_R   0.654400 0.435831 0.095024 -0.047350
C13   C     C_R   0.136890 0.146991 0.489963 -0.168992
C14   C     C_R   0.863110 0.853009 0.510036 -0.168992
C15   C     C_R   0.363112 0.647015 0.010034 -0.168993
C16   C     C_R   0.636889 0.353001 0.989965 -0.168994
C17   C     C_R   0.170236 0.132170 0.544543 -0.150322
C18   C     C_R   0.829764 0.867830 0.455456 -0.150322
C19   C     C_R   0.329765 0.632186 0.955455 -0.150320
C20   C     C_R   0.670236 0.367829 0.044544 -0.150323
C21   C     C_R   0.104129 0.012256 0.590503 -0.222936
C22   C     C_R   0.895871 0.987744 0.409496 -0.222937
C23   C     C_R   0.395870 0.512247 0.909498 -0.222938
C24   C     C_R   0.604129 0.487744 0.090503 -0.222937
C25   C     C_R   0.068794 0.030565 0.535367 0.089050
C26   C     C_R   0.931206 0.969435 0.464633 0.089051
C27   C     C_R   0.431206 0.530565 0.964633 0.089050
C28   C     C_R   0.568794 0.469433 0.035367 0.089051
C29   C     C_R   0.086540 0.098622 0.484998 0.139518
C30   C     C_R   0.913460 0.901378 0.515002 0.139518
C31   C     C_R   0.413461 0.598639 0.015000 0.139517
C32   C     C_R   0.586540 0.401368 0.984999 0.139517
C33   C     C_R   0.016592 0.987264 0.528514 0.057501
C34   C     C_R   0.983408 0.012736 0.471485 0.057501
C35   C     C_R   0.483407 0.487258 0.971486 0.057502
C36   C     C_R   0.516592 0.512739 0.028514 0.057502
C37   C     C_R   0.003580 0.079828 0.423212 -0.187847
C38   C     C_R   0.996420 0.920172 0.576788 -0.187847
C39   C     C_R   0.496421 0.579850 0.076786 -0.187849
C40   C     C_R   0.503579 0.420153 0.923214 -0.187849
C41   C     C_R   0.053955 0.121225 0.429967 -0.199369
C42   C     C_R   0.946045 0.878775 0.570033 -0.199369
C43   C     C_R   0.446047 0.621253 0.070031 -0.199370
C44   C     C_R   0.553954 0.378756 0.929969 -0.199371
H1    H     H_    0.067538 0.173239 0.391504 0.124540
H2    H     H_    0.932462 0.826761 0.608496 0.124540
H3    H     H_    0.432465 0.673282 0.108492 0.124541
H4    H     H_    0.567535 0.326735 0.891507 0.124541
H5    H     H_    0.906264 0.035773 0.368910 0.094650
H6    H     H_    0.093736 0.964227 0.631089 0.094650
H7    H     H_    0.593736 0.535771 0.131089 0.094650
H8    H     H_    0.406263 0.464207 0.868913 0.094653
H9    H     H_    0.791498 0.823831 0.452484 0.135635
H10   H     H_    0.208502 0.176169 0.547516 0.135635
H11   H     H_    0.708502 0.323831 0.047517 0.135636
H12   H     H_    0.291500 0.676193 0.952482 0.135634
H13   H     H_    0.150374 0.200193 0.451602 0.117466
H14   H     H_    0.849626 0.799807 0.548398 0.117466
H15   H     H_    0.349628 0.700232 0.048394 0.117466
H16   H     H_    0.650373 0.299795 0.951604 0.117467
H17   H     H_    0.981323 0.102891 0.379197 0.123785
H18   H     H_    0.018677 0.897108 0.620803 0.123785
H19   H     H_    0.518680 0.602926 0.120799 0.123786
H20   H     H_    0.481320 0.397081 0.879201 0.123785
C45   C     C_R   0.857717 0.110458 0.113988 -0.034589
C46   C     C_R   0.142283 0.889542 0.886012 -0.034589
C47   C     C_R   0.642283 0.610457 0.386012 -0.034589
C48   C     C_R   0.357717 0.389542 0.613988 -0.034589
C49   C     C_R   0.894089 0.118752 0.078698 -0.184470
C50   C     C_R   0.105911 0.881248 0.921303 -0.184469
C51   C     C_R   0.605911 0.618751 0.421302 -0.184470
C52   C     C_R   0.394089 0.381248 0.578698 -0.184470
H21   H     H_    0.897068 0.243653 0.052913 0.109978
H22   H     H_    0.102932 0.756347 0.947088 0.109979
H23   H     H_    0.602932 0.743653 0.447087 0.109978
H24   H     H_    0.397068 0.256347 0.552913 0.109978
C53   C     C_R   0.925863 0.968132 0.075157 0.081182
C54   C     C_R   0.074137 0.031868 0.924843 0.081181
C55   C     C_R   0.574137 0.468132 0.424843 0.081182
C56   C     C_R   0.425863 0.531868 0.575157 0.081182
C57   C     C_R   0.920029 0.805256 0.107287 -0.146873
C58   C     C_R   0.079971 0.194744 0.892713 -0.146872
C59   C     C_R   0.579971 0.305255 0.392713 -0.146872
C60   C     C_R   0.420029 0.694745 0.607287 -0.146872
H25   H     H_    0.944113 0.686543 0.105742 0.104831
H26   H     H_    0.055887 0.313457 0.894258 0.104831
H27   H     H_    0.555887 0.186542 0.394258 0.104831
H28   H     H_    0.444113 0.813458 0.605742 0.104831
C61   C     C_R   0.883798 0.794946 0.142953 -0.147036
C62   C     C_R   0.116202 0.205053 0.857047 -0.147036
C63   C     C_R   0.616202 0.294946 0.357047 -0.147036
C64   C     C_R   0.383798 0.705054 0.642953 -0.147036
H29   H     H_    0.881112 0.668087 0.167747 0.141027
H30   H     H_    0.118887 0.331913 0.832253 0.141027
H31   H     H_    0.618888 0.168086 0.332253 0.141027
H32   H     H_    0.381112 0.831913 0.667747 0.141027
C65   C     C_R   0.852188 0.946875 0.147548 -0.092246
C66   C     C_R   0.147812 0.053125 0.852452 -0.092246
C67   C     C_R   0.647812 0.446874 0.352452 -0.092246
C68   C     C_R   0.352188 0.553125 0.647548 -0.092246
C69   C     C_R   0.974487 0.832216 0.002339 -0.151858
C70   C     C_R   0.025513 0.167784 0.997662 -0.151858
C71   C     C_R   0.525513 0.332216 0.497662 -0.151858
C72   C     C_R   0.474487 0.667784 0.502338 -0.151858
H33   H     H_    0.954565 0.702087 0.002530 0.109032
H34   H     H_    0.045435 0.297913 0.997470 0.109032
H35   H     H_    0.545436 0.202088 0.497471 0.109032
H36   H     H_    0.454564 0.797912 0.502529 0.109032
C73   C     C_R   0.009440 0.849147 0.965365 -0.153873
C74   C     C_R   0.990560 0.150853 0.034635 -0.153874
C75   C     C_R   0.490560 0.349147 0.534635 -0.153873
C76   C     C_R   0.509440 0.650853 0.465364 -0.153874
H37   H     H_    0.015595 0.730901 0.938292 0.105773
H38   H     H_    0.984405 0.269098 0.061709 0.105774
H39   H     H_    0.484406 0.230902 0.561710 0.105774
H40   H     H_    0.515594 0.769098 0.438290 0.105774
C77   C     C_R   0.035534 0.017029 0.962617 0.092358
C78   C     C_R   0.964466 0.982970 0.037383 0.092359
C79   C     C_R   0.464466 0.517029 0.537383 0.092358
C80   C     C_R   0.535534 0.482971 0.462617 0.092359
C81   C     C_1   0.826562 0.273186 0.113180 0.285762
N1    N     N_1   0.801929 0.404416 0.112400 -0.370659
C82   C     C_1   0.173438 0.726815 0.886820 0.285761
N2    N     N_1   0.198072 0.595585 0.887601 -0.370658
C83   C     C_1   0.673438 0.773185 0.386820 0.285762
N3    N     N_1   0.698071 0.904415 0.387600 -0.370659
C84   C     C_1   0.326562 0.226815 0.613180 0.285762
N4    N     N_1   0.301929 0.095585 0.612400 -0.370659

loop_
_geom_bond_atom_site_label_1
_geom_bond_atom_site_label_2
_ccdc_geom_bond_type
O17   V3    S    
C25   C29   A    
O1    C5    A    
O19   V1    S    
C9    C21   A    
C16   H16   S    
O3    C7    A    
C82   N2    T    
C10   C18   A    
C48   C52   A    
C73   H37   S    
C76   H40   S    
O15   V3    S    
C55   C80   S    
C81   N1    T    
C25   C33   A    
C33   C38   A    
C5    C12   S    
C45   C81   S    
C6    C11   S    
C38   H18   S    
C35   C40   A    
C26   C30   A    
C58   C62   A    
C36   C39   A    
C40   C44   A    
C57   C61   A    
C71   C75   A    
C23   H8    S    
C14   C18   A    
C2    C68   S    
C72   C76   A    
C58   H26   S    
O4    C8    A    
C51   H23   S    
C70   H34   S    
O1    V3    S    
O13   V1    S    
C31   C43   A    
O2    V4    S    
O3    V1    S    
C28   C36   A    
C1    O15   A    
C15   C31   A    
C2    O16   A    
C16   C32   A    
O2    C6    A    
C84   N4    T    
C54   C58   A    
C10   C22   A    
C54   C77   S    
C11   C19   A    
C16   C20   A    
C43   H3    S    
C44   H4    S    
C13   C29   A    
C34   C37   A    
O11   C7    A    
C11   C23   A    
C35   C36   A    
O12   C8    A    
C47   C67   A    
C14   H14   S    
C45   C49   A    
C46   C66   A    
C24   H7    S    
C13   H13   S    
C3    C65   S    
O10   V2    S    
C72   H36   S    
C51   C55   A    
C46   C50   A    
O5    V1    S    
C53   C57   A    
C39   C43   A    
O7    V3    S    
C38   C42   A    
C26   C34   A    
C63   C67   A    
C4    C66   S    
C49   C53   A    
C17   H10   S    
C47   C83   S    
O18   V4    S    
C23   C27   A    
C19   H12   S    
C32   C44   A    
C64   H32   S    
C21   H6    S    
O8    V4    S    
C75   H39   S    
O5    C1    A    
C46   C82   S    
C37   C41   A    
C74   C78   A    
C53   C78   S    
O7    C3    A    
C14   C30   A    
C21   C25   A    
C69   C78   A    
O8    C4    A    
C7    C10   S    
C48   C84   S    
C56   C79   S    
O9    C5    A    
C59   C63   A    
C62   H30   S    
C37   H17   S    
C61   H29   S    
O6    V2    S    
C63   H31   S    
C52   C56   A    
C69   H33   S    
O14   V2    S    
C12   C20   A    
C27   C35   A    
O9    V1    S    
C49   H21   S    
C56   C60   A    
C29   C41   A    
O16   V4    S    
C69   C73   A    
C57   H25   S    
C3    O13   A    
C64   C68   A    
C39   H19   S    
C59   H27   S    
C20   H11   S    
C74   H38   S    
C15   C19   A    
O11   V3    S    
C30   C42   A    
O12   V4    S    
C22   C26   A    
C70   C77   A    
C73   C77   A    
C8    C9    S    
C9    C17   A    
O10   C6    A    
C48   C68   A    
C15   H15   S    
C76   C80   A    
C83   N3    T    
C60   C64   A    
C33   C34   A    
C42   H2    S    
C45   C65   A    
C41   H1    S    
C52   H24   S    
O20   V2    S    
C75   C79   A    
C1    C67   S    
C12   C24   A    
C27   C31   A    
C71   C80   A    
C13   C17   A    
C72   C79   A    
C71   H35   S    
O6    C2    A    
C47   C51   A    
C62   C66   A    
C60   H28   S    
C24   C28   A    
C61   C65   A    
C70   C74   A    
C18   H9    S    
C4    O14   A    
C50   H22   S    
C55   C59   A    
C40   H20   S    
C22   H5    S    
O4    V2    S    
C28   C32   A    
C50   C54   A    
