data_mof_unit_16535.cif
_audit_creation_date              2012-12-10T19:50:31-0500
_audit_creation_method            fapswitch 2.2
_symmetry_space_group_name_H-M    P1
_symmetry_Int_Tables_number       1
_space_group_crystal_system       triclinic
_cell_length_a                    18.22168
_cell_length_b                    18.224187
_cell_length_c                    18.415295
_cell_angle_alpha                 119.777202
_cell_angle_beta                  90.685181
_cell_angle_gamma                 119.485925
_cell_volume                      4346.14327978

loop_
_atom_site_label
_atom_site_type_symbol
_atom_type_description
_atom_site_fract_x
_atom_site_fract_y
_atom_site_fract_z
_atom_type_partial_charge
C1    C     C_R   0.639840 0.779751 0.639913 0.827379
C2    C     C_R   0.255500 0.947426 0.161199 0.453276
C3    C     C_R   0.205830 0.891646 0.195823 -0.191547
C4    C     C_R   0.360718 0.220178 0.360256 0.823943
C5    C     C_R   0.222848 0.946241 0.287507 0.055318
C6    C     C_3   0.159443 0.939632 0.338484 -0.450110
C7    C     C_3   0.217695 0.056904 0.397785 -0.437910
C8    C     C_R   0.790118 0.559063 0.341322 -0.059010
C9    C     C_R   0.697530 0.508869 0.305850 0.006689
C10   C     C_R   0.660466 0.465439 0.215522 -0.204844
C11   C     C_R   0.713194 0.462755 0.160685 -0.204466
C12   C     C_3   0.832542 0.543696 0.747133 -0.145459
C13   C     C_R   0.802682 0.499867 0.194611 -0.021529
C14   C     C_R   0.838690 0.545993 0.284713 -0.071420
C15   C     C_3   0.884023 0.523113 0.330920 0.280586
C16   C     C_R   0.362899 0.502834 0.642817 0.866059
C17   C     C_3   0.842850 0.556328 0.401921 0.325825
C18   C     C_R   0.786882 0.947784 0.714576 0.044556
C19   C     C_R   0.694983 0.890918 0.697150 -0.065101
C20   C     C_R   0.657014 0.945953 0.737481 -0.214111
C21   C     C_R   0.711193 0.054255 0.791673 -0.223390
C22   C     C_R   0.804053 0.108977 0.806218 -0.043706
C23   C     C_3   0.783716 0.597443 0.779549 -0.163569
C24   C     C_R   0.838815 0.051785 0.766531 0.001037
C25   C     C_3   0.921425 0.059510 0.750082 -0.037819
C26   C     C_3   0.861855 0.939680 0.690736 0.298992
C27   C     C_R   0.304423 0.592627 0.340529 -0.008214
C28   C     C_R   0.640455 0.501532 0.360423 0.836514
C29   C     C_R   0.326486 0.521814 0.304345 -0.101790
C30   C     C_R   0.308943 0.463558 0.212246 -0.306690
C31   C     C_R   0.249240 0.455319 0.155760 0.483349
C32   C     C_R   0.210120 0.510322 0.193870 -0.203942
C33   C     C_R   0.242576 0.581848 0.285829 -0.114302
C34   C     C_3   0.751917 0.552867 0.834653 -0.175522
C35   C     C_3   0.194832 0.600441 0.352565 0.989220
C36   C     C_3   0.270288 0.623027 0.416086 -0.589058
C37   C     C_R   0.263690 0.547681 0.714623 0.058414
C38   C     C_R   0.315298 0.509632 0.706457 -0.198489
C39   C     C_R   0.319797 0.479042 0.763585 0.124202
C40   C     C_R   0.363705 0.505004 0.359166 0.835372
C41   C     C_R   0.264578 0.477472 0.817952 0.131895
C42   C     C_R   0.207044 0.508976 0.816551 -0.157685
C43   C     C_R   0.213893 0.548474 0.767950 0.005543
C44   C     C_3   0.180189 0.597907 0.748256 -0.493251
C45   C     C_3   0.666189 0.455348 0.753918 -0.118127
C46   C     C_3   0.237568 0.599119 0.687827 0.368012
C47   C     C_R   0.859511 0.499187 0.139526 0.776748
C48   C     C_R   0.143486 0.502957 0.863897 0.857614
C49   C     C_R   0.141424 0.779824 0.139755 0.805762
C50   C     C_R   0.860099 0.220159 0.859984 0.825755
C51   C     C_R   0.143021 0.500748 0.140593 0.817102
C52   C     C_R   0.641749 0.500116 0.641850 0.773237
C53   C     C_R   0.858082 0.499842 0.858450 0.781641
C54   C     C_3   0.746844 0.446175 0.666485 -0.198886
C55   C     C_3   0.715167 0.401836 0.721668 -0.156903
C56   C     C_3   0.698870 0.499942 0.699526 0.050311
C57   C     C_3   0.800042 0.499387 0.801409 0.046254
C58   C     C_3   0.881434 0.379348 0.222012 0.102741
C59   C     C_3   0.805758 0.284105 0.133597 -0.343006
C60   C     C_3   0.841025 0.243548 0.059059 -0.962109
C61   C     C_3   0.802488 0.523780 0.507132 0.156806
C62   C     C_3   0.891609 0.554240 0.557552 -0.402886
C63   C     C_3   0.941422 0.662000 0.644827 -0.982246
C64   C     C_3   0.886087 0.840315 0.565006 0.133361
C65   C     C_3   0.984970 0.912847 0.579902 -0.344311
C66   C     C_3   0.026171 0.853779 0.535343 -0.975435
C67   C     C_R   0.275575 0.052593 0.341224 0.125196
C68   C     C_3   0.158139 0.294588 0.022048 0.163046
C69   C     C_3   0.182216 0.227060 0.026728 -0.412149
C70   C     C_3   0.104579 0.113042 0.965809 -0.945998
C71   C     C_3   0.240844 0.759340 0.368031 0.108421
C72   C     C_3   0.333358 0.849726 0.439220 -0.424761
C73   C     C_3   0.376315 0.938135 0.428329 -0.917893
C74   C     C_3   0.095601 0.421893 0.308626 0.002510
C75   C     C_3   0.055534 0.333110 0.209792 -0.385565
C76   C     C_3   0.993869 0.227826 0.193520 -0.939524
C77   C     C_3   0.183013 0.590483 0.567786 0.101178
C78   C     C_R   0.312492 0.108579 0.305113 -0.142033
C79   C     C_3   0.134909 0.642222 0.609064 -0.430600
C80   C     C_3   0.129759 0.693397 0.565782 -0.879303
C81   C     C_3   0.312587 0.873730 0.062033 0.099833
C82   C     C_3   0.346455 0.881982 0.989109 -0.323779
C83   C     C_3   0.399715 0.835110 0.960362 -0.973290
C84   C     C_R   0.306940 0.055526 0.215761 -0.302277
H1    H     H_    0.687850 0.321546 0.698823 0.145416
H2    H     H_    0.743037 0.400198 0.596740 0.126161
H3    H     H_    0.680301 0.094587 0.821568 0.173215
H4    H     H_    0.972290 0.093614 0.811538 0.088372
H5    H     H_    0.877465 0.904728 0.718438 0.029193
H6    H     H_    0.335883 0.418324 0.183332 0.188026
H7    H     H_    0.318261 0.706084 0.470753 0.188639
H8    H     H_    0.902123 0.579053 0.746258 0.160007
H9    H     H_    0.254423 0.575444 0.440970 0.172605
H10   H     H_    0.106621 0.545226 0.712388 0.224139
H11   H     H_    0.204518 0.675716 0.807112 0.171870
H12   H     H_    0.161233 0.905235 0.373601 0.201195
H13   H     H_    0.296561 0.677499 0.711284 0.057058
H14   H     H_    0.811192 0.677788 0.802461 0.136640
H15   H     H_    0.754817 0.596501 0.904546 0.139276
H16   H     H_    0.597074 0.418954 0.756052 0.171791
H17   H     H_    0.340291 0.097220 0.187182 0.193918
H18   H     H_    0.091287 0.905754 0.298543 0.204125
H19   H     H_    0.915798 0.355555 0.245787 0.185981
H20   H     H_    0.931738 0.437808 0.212372 0.157549
H21   H     H_    0.761957 0.221971 0.142197 0.232381
H22   H     H_    0.763880 0.303515 0.113646 0.235398
H23   H     H_    0.183391 0.091255 0.392459 0.202121
H24   H     H_    0.784402 0.182057 0.995000 0.265660
H25   H     H_    0.871966 0.209454 0.070874 0.264856
H26   H     H_    0.890892 0.306465 0.053891 0.249249
H27   H     H_    0.746486 0.465835 0.513169 0.134559
H28   H     H_    0.798026 0.591017 0.537968 0.181889
H29   H     H_    0.878579 0.497351 0.571915 0.204729
H30   H     H_    0.935463 0.553234 0.516281 0.248823
H31   H     H_    0.964481 0.721084 0.631032 0.256263
H32   H     H_    0.000466 0.678323 0.684541 0.270978
H33   H     H_    0.896870 0.668204 0.684555 0.272873
H34   H     H_    0.253209 0.089808 0.466824 0.214818
H35   H     H_    0.849617 0.782659 0.492234 0.163641
H36   H     H_    0.877979 0.795008 0.592077 0.111215
H37   H     H_    0.990463 0.956137 0.551650 0.261900
H38   H     H_    0.023504 0.969061 0.652363 0.224185
H39   H     H_    0.025766 0.813668 0.565154 0.256441
H40   H     H_    0.096718 0.908646 0.545286 0.280544
H41   H     H_    0.988555 0.796495 0.462747 0.259727
H42   H     H_    0.132996 0.263299 0.950985 0.198727
H43   H     H_    0.101488 0.288519 0.046825 0.107090
H44   H     H_    0.242111 0.238472 0.006564 0.250343
H45   H     H_    0.590394 0.431290 0.186685 0.167023
H46   H     H_    0.197708 0.249125 0.095839 0.216112
H47   H     H_    0.043962 0.100014 0.984934 0.258898
H48   H     H_    0.123175 0.066190 0.971767 0.277736
H49   H     H_    0.089032 0.087117 0.895433 0.259037
H50   H     H_    0.201973 0.790189 0.365885 0.183026
H51   H     H_    0.247548 0.725130 0.301539 0.149204
H52   H     H_    0.327055 0.878472 0.506365 0.239883
H53   H     H_    0.377852 0.823462 0.433683 0.223124
H54   H     H_    0.382377 0.910946 0.361206 0.260154
H55   H     H_    0.444297 0.001147 0.479092 0.268624
H56   H     H_    0.683289 0.429107 0.091555 0.168355
H57   H     H_    0.335418 0.969409 0.437539 0.266558
H58   H     H_    0.049332 0.398240 0.343329 0.184800
H59   H     H_    0.156165 0.431227 0.335446 0.122850
H60   H     H_    0.019078 0.343013 0.170721 0.228052
H61   H     H_    0.110991 0.333951 0.185730 0.200387
H62   H     H_    0.030730 0.217239 0.231716 0.271117
H63   H     H_    0.969963 0.165959 0.121649 0.257449
H64   H     H_    0.934809 0.220594 0.213709 0.266503
H65   H     H_    0.145845 0.535253 0.495450 0.172525
H66   H     H_    0.252721 0.649529 0.579178 0.133785
H67   H     H_    0.958699 0.573292 0.355963 0.072864
H68   H     H_    0.066311 0.583335 0.599530 0.237447
H69   H     H_    0.171918 0.702663 0.681416 0.214651
H70   H     H_    0.197814 0.748743 0.570974 0.275703
H71   H     H_    0.100654 0.736700 0.600028 0.259381
H72   H     H_    0.087040 0.634146 0.494551 0.289409
H73   H     H_    0.278983 0.793155 0.041838 0.160623
H74   H     H_    0.372214 0.925612 0.123450 0.106837
H75   H     H_    0.288826 0.841818 0.930708 0.228130
H76   H     H_    0.389836 0.964627 0.014123 0.216312
H77   H     H_    0.459350 0.876628 0.017488 0.271955
H78   H     H_    0.893218 0.635590 0.462666 0.007864
H79   H     H_    0.422509 0.841649 0.906932 0.261237
H80   H     H_    0.357257 0.752145 0.934249 0.269074
H81   H     H_    0.585895 0.905874 0.727110 0.169540
I1    I     I_    0.970337 0.134419 0.683830 -0.304318
I2    I     I_    0.416982 0.448159 0.778371 -0.317830
I3    I     I_    0.276972 0.438245 0.907585 -0.234163
O1    O     O_3   0.500000 0.500000 0.500000 -0.486632
O2    O     O_R   0.945260 0.268310 0.884540 -0.633902
O3    O     O_R   0.117230 0.560570 0.177940 -0.648385
O4    O     O_R   0.676910 0.731570 0.616180 -0.644096
O5    O     O_R   0.821960 0.439250 0.882690 -0.640586
O6    O     O_R   0.117230 0.439140 0.056500 -0.623293
O7    O     O_R   0.943400 0.560680 0.882690 -0.641421
O8    O     O_R   0.115380 0.731510 0.054650 -0.602953
O9    O     O_R   0.823040 0.268340 0.883770 -0.648891
O10   O     O_R   0.945260 0.560610 0.176860 -0.649120
O11   O     O_R   0.116150 0.439180 0.884540 -0.598593
O12   O     O_R   0.384580 0.439270 0.616180 -0.609797
O13   O     O_R   0.384580 0.268400 0.445300 -0.635676
O14   O     O_R   0.383810 0.560730 0.615410 -0.650526
O15   O     O_R   0.554700 0.439300 0.323100 -0.648851
O16   O     O_R   0.382730 0.560770 0.443450 -0.643093
O17   O     O_R   0.678000 0.560660 0.617260 -0.681741
O18   O     O_R   0.382730 0.439340 0.322020 -0.655124
O19   O     O_R   0.556550 0.439230 0.617260 -0.622659
O20   O     O_3   0.843228 0.415623 0.285230 -0.575831
O21   O     O_3   0.789077 0.478830 0.415490 -0.581360
O22   O     O_3   0.846780 0.895439 0.598758 -0.586388
O23   O     O_R   0.676910 0.560700 0.445300 -0.671388
O24   O     O_3   0.233936 0.397915 0.065209 -0.595977
O25   O     O_3   0.192127 0.688874 0.390394 -0.655636
O26   O     O_3   0.105949 0.511016 0.321663 -0.660533
O27   O     O_3   0.182576 0.532536 0.597884 -0.618739
O28   O     O_3   0.249374 0.898657 0.072956 -0.616023
O29   O     O_R   0.554700 0.731600 0.615410 -0.655209
O30   O     O_R   0.383810 0.268430 0.323100 -0.644599
O31   O     O_3   0.999960 0.499910 0.999960 -0.493671
O32   O     O_R   0.823040 0.439210 0.054650 -0.643803
O33   O     O_R   0.115380 0.560640 0.883770 -0.649974
O34   O     O_R   0.116150 0.731480 0.176860 -0.658042
Zn1   Zn    Zn3+2 0.457170 0.413230 0.543930 0.997759
Zn2   Zn    Zn3+2 0.456070 0.586770 0.542830 0.964646
Zn3   Zn    Zn3+2 0.456070 0.413270 0.369320 0.966580
Zn4   Zn    Zn3+2 0.630690 0.586730 0.543930 0.940647
Zn5   Zn    Zn3+2 0.042790 0.586680 0.956030 0.978081
Zn6   Zn    Zn3+2 0.043880 0.586640 0.130630 0.942674
Zn7   Zn    Zn3+2 0.043880 0.413140 0.957130 0.996492
Zn8   Zn    Zn3+2 0.869270 0.413190 0.956030 0.962449

loop_
_geom_bond_atom_site_label_1
_geom_bond_atom_site_label_2
_ccdc_geom_bond_type
C74   H59   S    
C74   O26   S    
C75   C76   S    
C37   C43   A    
O16   Zn2   S    
C27   C29   A    
O6    Zn7   S    
C41   C42   A    
C2    C84   A    
C19   C20   A    
C18   C26   S    
O7    Zn5   S    
C30   H6    S    
O12   Zn1   S    
C71   H50   S    
C21   H3    S    
C81   C82   S    
C3    C49   S    
C53   O5    A    
C23   C56   S    
C39   C41   A    
C73   H57   S    
C27   C33   A    
C26   H5    S    
C20   H81   S    
C12   C23   S    
C81   O28   S    
C37   C38   A    
C64   H35   S    
O14   Zn2   S    
O8    Zn5   S    
C28   O15   A    
C70   H48   S    
C62   H30   S    
C47   O10   A    
C71   H51   S    
C30   C31   A    
C63   H33   S    
C16   O14   A    
C71   O25   S    
C40   O18   A    
C73   H54   S    
C68   O24   S    
C41   I3    S    
O19   Zn1   S    
O29   Zn2   S    
C18   C19   A    
O31   Zn6   S    
C60   H25   S    
C35   O26   S    
C54   C55   S    
C36   H9    S    
C35   C36   S    
C69   H44   S    
C8    C9    A    
O10   Zn6   S    
C70   H49   S    
C37   C46   S    
C18   C24   A    
C52   O19   A    
C65   H37   S    
C4    O13   A    
C29   C30   A    
C9    C10   A    
C61   C62   S    
C60   H24   S    
C5    C67   A    
C22   C50   S    
C63   H31   S    
C22   C24   A    
C4    O30   A    
C83   H77   S    
C76   H62   S    
C59   C60   S    
O34   Zn6   S    
C13   C14   A    
O30   Zn3   S    
C61   O21   S    
C84   H17   S    
C7    H34   S    
O13   Zn1   S    
C67   C78   A    
C15   H67   S    
C44   C46   S    
C80   H72   S    
C77   C79   S    
C26   O22   S    
C38   C39   A    
C54   C56   S    
C1    C19   S    
C83   H80   S    
C81   H73   S    
C74   C75   S    
C58   O20   S    
C59   H22   S    
C46   O27   S    
C50   O9    A    
C60   H26   S    
C24   C25   S    
C45   C56   S    
C62   H29   S    
C10   C11   A    
C77   H65   S    
O1    Zn4   S    
C54   H2    S    
C53   C57   S    
C68   C69   S    
C42   C48   S    
C73   H55   S    
C17   O21   S    
C25   C26   S    
C31   O24   S    
C25   H4    S    
C75   H61   S    
O31   Zn7   S    
O23   Zn4   S    
O9    Zn8   S    
C55   H1    S    
C51   O6    A    
C11   H56   S    
C32   C51   S    
C4    C78   S    
C62   C63   S    
C79   H69   S    
C72   H52   S    
C82   H76   S    
C31   C32   A    
C23   C34   S    
O5    Zn8   S    
O31   Zn5   S    
C34   H15   S    
O33   Zn5   S    
C17   H78   S    
C50   O2    A    
C34   C45   S    
C59   H21   S    
C65   H38   S    
C68   H43   S    
C45   C55   S    
C63   H32   S    
C36   H7    S    
C49   O8    A    
C72   H53   S    
C46   H13   S    
C82   C83   S    
C6    H12   S    
C55   C57   S    
C43   C44   S    
O15   Zn3   S    
C66   H40   S    
C7    H23   S    
C47   O32   A    
C58   C59   S    
C58   H20   S    
C52   O17   A    
C12   C57   S    
C61   H27   S    
C28   O23   A    
C68   H42   S    
C53   O7    A    
C80   H71   S    
C13   C47   S    
C69   H46   S    
C15   C17   S    
C83   H79   S    
C49   O34   A    
C8    C14   A    
C81   H74   S    
O18   Zn3   S    
C14   C15   S    
O17   Zn4   S    
C12   H8    S    
C1    O29   A    
C72   C73   S    
C3    C5    A    
C45   H16   S    
C77   H66   S    
C64   O22   S    
C76   H63   S    
C80   H70   S    
C6    C7    S    
C27   C36   S    
C15   O20   S    
O11   Zn7   S    
C1    O4    A    
C8    C17   S    
C64   H36   S    
C66   H41   S    
O31   Zn8   S    
C64   C65   S    
C51   O3    A    
C2    C3    A    
C77   O27   S    
C10   H45   S    
C71   C72   S    
C44   H11   S    
C32   C33   A    
O1    Zn2   S    
O1    Zn3   S    
C82   H75   S    
C11   C13   A    
C5    C6    S    
O2    Zn7   S    
C52   C56   S    
C34   C57   S    
C48   O33   A    
C29   C40   S    
O4    Zn4   S    
C70   H47   S    
C33   C35   S    
O1    Zn1   S    
C2    O28   S    
C6    H18   S    
C39   I2    S    
C69   C70   S    
O32   Zn8   S    
C44   H10   S    
C75   H60   S    
C35   O25   S    
C7    C67   S    
C79   C80   S    
C78   C84   A    
C74   H58   S    
C23   H14   S    
C20   C21   A    
C76   H64   S    
C65   C66   S    
C42   C43   A    
C66   H39   S    
C58   H19   S    
O3    Zn6   S    
C21   C22   A    
C61   H28   S    
C9    C28   S    
C48   O11   A    
C12   C54   S    
C16   O12   A    
C25   I1    S    
C16   C38   S    
C79   H68   S    
C40   O16   A    
