data_mof_unit_54822.cif
_audit_creation_date              2012-12-10T17:16:40-0500
_audit_creation_method            fapswitch 2.2
_symmetry_space_group_name_H-M    P1
_symmetry_Int_Tables_number       1
_space_group_crystal_system       triclinic
_cell_length_a                    10.226361
_cell_length_b                    10.685441
_cell_length_c                    11.010813
_cell_angle_alpha                 91.718691
_cell_angle_beta                  91.916991
_cell_angle_gamma                 81.367294
_cell_volume                      1188.51000195

loop_
_atom_site_label
_atom_site_type_symbol
_atom_type_description
_atom_site_fract_x
_atom_site_fract_y
_atom_site_fract_z
_atom_type_partial_charge
C1    C     C_R   0.447642 0.513258 0.270406 0.889852
C2    C     C_R   0.495244 0.738110 0.479752 0.876810
C3    C     C_R   0.651311 0.103425 0.295144 0.152931
C4    C     C_R   0.235907 0.920765 0.477038 0.176674
C5    C     C_R   0.768249 0.028702 0.251578 0.223989
C6    C     C_R   0.149371 0.981555 0.566477 0.166872
C7    C     C_R   0.790948 0.900187 0.277302 -0.224409
C8    C     C_R   0.189042 0.080903 0.637351 -0.219668
C9    C     C_R   0.696249 0.845397 0.334925 -0.255959
C10   C     C_R   0.303717 0.128774 0.610825 -0.203582
C11   C     C_R   0.587197 0.920260 0.389521 0.065553
C12   C     C_R   0.550880 0.493878 0.732368 0.931998
C13   C     C_R   0.387276 0.071405 0.518979 0.031560
C14   C     C_R   0.577118 0.052657 0.384694 0.009386
C15   C     C_R   0.366562 0.953121 0.474305 0.062874
C16   C     C_R   0.482478 0.869754 0.442705 -0.200778
C17   C     C_R   0.490555 0.126005 0.468599 -0.209987
C18   C     C_3   0.586656 0.215632 0.222827 -0.355621
C19   C     C_3   0.546142 0.175336 0.094226 -0.925555
C20   C     C_3   0.180344 0.842395 0.374560 -0.406727
C21   C     C_3   0.248026 0.843830 0.252858 -0.869100
C22   C     C_3   0.871130 0.082310 0.180258 -0.423930
C23   C     C_2   0.421386 0.509425 0.144275 -0.398171
C24   C     C_3   0.903452 0.010235 0.059930 -0.884394
C25   C     C_3   0.018259 0.939625 0.593047 -0.472412
C26   C     C_3   0.901326 0.040645 0.561330 -0.819821
C27   C     C_3   0.315804 0.538168 0.900891 -0.308311
C28   C     C_3   0.283544 0.403958 0.872564 -0.828858
C29   C     C_3   0.578622 0.662160 0.100338 -0.371057
C30   C     C_3   0.544352 0.784076 0.029166 -0.898679
C31   C     C_2   0.567551 0.506855 0.863710 -0.417777
C32   C     C_2   0.488217 0.565529 0.064738 0.140869
C33   C     C_2   0.462388 0.535674 0.937745 0.194959
C34   C     C_2   0.074786 0.498899 0.479289 0.175867
C35   C     C_2   0.925865 0.521070 0.496177 0.088090
C36   C     C_R   0.498806 0.258847 0.495123 0.860255
H1    H     H_    0.127696 0.125698 0.709475 0.153857
H2    H     H_    0.493846 0.260317 0.264575 0.202038
H3    H     H_    0.653813 0.287204 0.218652 0.231020
H4    H     H_    0.255807 0.942435 0.228134 0.258483
H5    H     H_    0.347494 0.786656 0.256179 0.258778
H6    H     H_    0.188942 0.801364 0.180539 0.240073
H7    H     H_    0.179939 0.743685 0.402074 0.245894
H8    H     H_    0.075750 0.883592 0.355676 0.199450
H9    H     H_    0.966530 0.918060 0.076476 0.249545
H10   H     H_    0.812301 0.992421 0.009153 0.260986
H11   H     H_    0.959236 0.066323 0.002538 0.248182
H12   H     H_    0.876934 0.839288 0.243506 0.157247
H13   H     H_    0.840842 0.183489 0.160381 0.204757
H14   H     H_    0.963677 0.076944 0.236937 0.200736
H15   H     H_    0.901765 0.125909 0.621387 0.255376
H16   H     H_    0.905904 0.067564 0.465420 0.261282
H17   H     H_    0.807361 0.002878 0.573613 0.256935
H18   H     H_    0.004712 0.851100 0.542635 0.207875
H19   H     H_    0.016357 0.919168 0.691303 0.208419
H20   H     H_    0.275020 0.352439 0.956995 0.219382
H21   H     H_    0.187619 0.407481 0.822766 0.240551
H22   H     H_    0.361514 0.346897 0.818652 0.258248
H23   H     H_    0.710957 0.743945 0.331531 0.179821
H24   H     H_    0.249458 0.580617 0.973970 0.167978
H25   H     H_    0.286844 0.606062 0.827974 0.233655
H26   H     H_    0.564253 0.766116 0.931218 0.260423
H27   H     H_    0.438529 0.824134 0.039576 0.262299
H28   H     H_    0.606074 0.855011 0.064362 0.268838
H29   H     H_    0.567461 0.689652 0.196934 0.206561
H30   H     H_    0.683457 0.620901 0.086291 0.199185
H31   H     H_    0.806840 0.619311 0.623643 0.241925
H32   H     H_    0.835352 0.703916 0.498764 0.209771
H33   H     H_    0.062658 0.467441 0.295879 0.149775
H34   H     H_    0.327277 0.208199 0.665146 0.170251
H35   H     H_    0.138983 0.340305 0.377381 0.173436
H36   H     H_    0.965614 0.284822 0.474793 0.175970
H37   H     H_    0.922724 0.322735 0.324779 0.145894
H38   H     H_    0.051803 0.535961 0.701590 0.176111
H39   H     H_    0.082705 0.685529 0.669632 0.178458
H40   H     H_    0.667976 0.501747 0.900723 0.134587
H41   H     H_    0.349492 0.448878 0.116774 0.146431
H42   H     H_    0.488727 0.257109 0.047519 0.258488
H43   H     H_    0.633670 0.142313 0.039255 0.275570
H44   H     H_    0.483624 0.099001 0.097526 0.265324
N1    N     N_2   0.157300 0.551390 0.551120 -0.068166
N2    N     N_2   0.842700 0.448610 0.448880 -0.072227
N3    N     N_3   0.875103 0.635783 0.560178 -0.499176
N4    N     N_3   0.126201 0.438484 0.369385 -0.402981
N5    N     N_3   0.890979 0.324260 0.413944 -0.388215
N6    N     N_3   0.120230 0.589345 0.668825 -0.401037
O1    O     O_R   0.568940 0.489660 0.307530 -0.635417
O2    O     O_R   0.431060 0.510340 0.692470 -0.583903
O3    O     O_R   0.348880 0.522640 0.340350 -0.596255
O4    O     O_R   0.651120 0.477360 0.659650 -0.623414
O5    O     O_R   0.610030 0.300280 0.483580 -0.588515
O6    O     O_R   0.389970 0.699720 0.516420 -0.610185
O7    O     O_R   0.389970 0.333270 0.516400 -0.609213
O8    O     O_R   0.610030 0.666730 0.483600 -0.651325
Zn1   Zn    Zn3+2 0.646940 0.477980 0.478080 0.925002
Zn2   Zn    Zn3+2 0.353060 0.522020 0.521920 0.951419

loop_
_geom_bond_atom_site_label_1
_geom_bond_atom_site_label_2
_ccdc_geom_bond_type
C1    O1    A    
O2    Zn2   S    
H31   N3    S    
C30   H28   S    
H36   N5    S    
C28   H20   S    
O4    Zn1   S    
C28   H21   S    
C27   C33   S    
C24   H9    S    
C12   O4    A    
C18   C19   S    
C29   C32   S    
C27   H24   S    
C11   C14   A    
C6    C25   S    
C15   C16   A    
O6    Zn2   S    
C3    C18   S    
C34   C35   S    
C27   H25   S    
C36   O7    A    
C5    C22   S    
O1    Zn1   S    
C31   C33   D    
C17   C36   S    
C2    C16   S    
N1    N6    S    
C22   H14   S    
C30   H27   S    
C24   H11   S    
C14   C17   A    
O8    Zn1   S    
C34   N4    S    
C20   H8    S    
C35   N2    D    
C12   O2    A    
C2    O8    A    
C25   H18   S    
C4    C6    A    
C5    C7    A    
N1    Zn2   S    
C35   N3    S    
C6    C8    A    
C25   C26   S    
C23   H41   S    
C21   H6    S    
C9    H23   S    
C19   H42   S    
C2    O6    A    
C18   H3    S    
C29   C30   S    
C26   H16   S    
C11   C16   A    
H39   N6    S    
H38   N6    S    
C19   H43   S    
C9    C11   A    
H37   N5    S    
C3    C14   A    
C22   H13   S    
C21   H5    S    
C10   H34   S    
C36   O5    A    
C34   N1    D    
C1    C23   S    
O7    Zn2   S    
C13   C15   A    
C12   C31   S    
C29   H29   S    
C8    H1    S    
C26   H17   S    
C20   H7    S    
H35   N4    S    
C7    C9    A    
C1    O3    A    
N2    Zn1   S    
H32   N3    S    
C25   H19   S    
C23   C32   D    
C3    C5    A    
C10   C13   A    
C28   H22   S    
N2    N5    S    
C13   C17   A    
C24   H10   S    
C32   C33   S    
O3    Zn2   S    
C30   H26   S    
C18   H2    S    
H33   N4    S    
C26   H15   S    
C7    H12   S    
C31   H40   S    
C21   H4    S    
C4    C15   A    
C22   C24   S    
C19   H44   S    
O5    Zn1   S    
C29   H30   S    
C4    C20   S    
C20   C21   S    
C8    C10   A    
C27   C28   S    
