data_mof_unit_18551.cif
_audit_creation_date              2012-12-10T17:23:14-0500
_audit_creation_method            fapswitch 2.2
_symmetry_space_group_name_H-M    P1
_symmetry_Int_Tables_number       1
_space_group_crystal_system       triclinic
_cell_length_a                    15.8631
_cell_length_b                    10.857436
_cell_length_c                    9.578049
_cell_angle_alpha                 90.466313
_cell_angle_beta                  91.29969
_cell_angle_gamma                 92.508131
_cell_volume                      1647.5790296

loop_
_atom_site_label
_atom_site_type_symbol
_atom_type_description
_atom_site_fract_x
_atom_site_fract_y
_atom_site_fract_z
_atom_type_partial_charge
C1    C     C_R   0.506952 0.263141 0.500508 0.801990
C2    C     C_R   0.546919 0.065737 0.884778 -0.140914
C3    C     C_R   0.505062 0.951065 0.890954 -0.141567
C4    C     C_R   0.339929 0.499659 0.498371 0.830021
C5    C     C_R   0.480759 0.888563 0.767828 -0.165497
C6    C     C_R   0.498839 0.940027 0.635382 0.092470
C7    C     C_R   0.524242 0.065820 0.631473 0.094836
C8    C     C_R   0.515110 0.129422 0.503389 -0.122303
C9    C     C_R   0.502103 0.062899 0.378519 -0.198176
C10   C     C_R   0.494927 0.935683 0.379918 -0.197867
C11   C     C_R   0.492882 0.872457 0.506827 -0.120009
C12   C     C_3   0.083251 0.503916 0.497081 -0.046037
C13   C     C_R   0.611841 0.665356 0.148797 -0.265690
C14   C     C_R   0.666739 0.747729 0.078974 0.499095
C15   C     C_R   0.664524 0.747031 0.934794 -0.263437
C16   C     C_R   0.495658 0.737679 0.501459 0.775787
C17   C     C_R   0.611688 0.663725 0.860741 -0.243675
C18   C     C_R   0.555194 0.580422 0.927680 0.201308
C19   C     C_R   0.555160 0.580825 0.077150 0.155888
C20   C     C_R   0.447731 0.422998 0.071306 -0.060793
C21   C     C_R   0.447739 0.423056 0.923271 -0.068471
C22   C     C_R   0.660113 0.500526 0.501644 0.796296
C23   C     C_3   0.978080 0.603749 0.578588 0.061323
C24   C     C_3   0.972744 0.400126 0.570601 -0.055774
C25   C     C_3   0.021409 0.404006 0.433356 0.423015
C26   C     C_1   0.250319 0.500633 0.494176 -0.184071
C27   C     C_1   0.749824 0.501220 0.506312 -0.191608
C28   C     C_3   0.034653 0.501003 0.635220 0.057932
C29   C     C_3   0.983159 0.224795 0.309445 -0.329529
C30   C     C_3   0.758815 0.792773 0.266784 -0.356428
C31   C     C_3   0.935209 0.286019 0.643605 -0.378907
C32   C     C_3   0.003145 0.197814 0.690429 -0.331016
C33   C     C_3   0.963855 0.073422 0.732863 -0.882678
C34   C     C_3   0.917245 0.503125 0.512616 -0.039399
C35   C     C_3   0.979021 0.507191 0.135214 -0.352936
C36   C     C_3   0.066947 0.721022 0.368050 -0.370770
C37   C     C_3   0.000057 0.807573 0.313659 -0.345417
C38   C     C_3   0.037741 0.901240 0.212175 -0.871795
C39   C     C_3   0.948757 0.716543 0.658402 -0.383505
C40   C     C_3   0.900462 0.680182 0.790100 -0.349474
C41   C     C_3   0.891521 0.790612 0.887093 -0.848513
C42   C     C_3   0.081478 0.490980 0.776604 -0.376865
C43   C     C_3   0.128637 0.611795 0.821838 -0.349902
C44   C     C_3   0.192342 0.590445 0.940086 -0.851462
C45   C     C_3   0.027976 0.607833 0.440879 -0.060243
C46   C     C_3   0.967270 0.507085 0.376153 0.421440
C47   C     C_1   0.174857 0.501899 0.492466 0.003306
C48   C     C_1   0.825385 0.501973 0.510708 -0.002961
C49   C     C_R   0.556445 0.123265 0.756313 -0.162121
Cu1   Cu    Cu3+1 0.499990 0.499990 0.640660 0.920848
Cu2   Cu    Cu3+1 0.500010 0.500010 0.359340 0.937073
H1    H     H_    0.493015 0.909103 0.991135 0.136124
H2    H     H_    0.590607 0.211580 0.756171 0.163634
H3    H     H_    0.569740 0.111834 0.979835 0.146098
H4    H     H_    0.922092 0.270595 0.296084 0.187489
H5    H     H_    0.974807 0.146076 0.381644 0.180108
H6    H     H_    0.999043 0.187092 0.205858 0.187166
H7    H     H_    0.782820 0.699005 0.249749 0.192123
H8    H     H_    0.716704 0.794189 0.357814 0.160700
H9    H     H_    0.813942 0.855614 0.293074 0.185666
H10   H     H_    0.919432 0.085654 0.819397 0.263277
H11   H     H_    0.929568 0.028125 0.642533 0.248893
H12   H     H_    0.445208 0.802516 0.779644 0.171142
H13   H     H_    0.014332 0.012699 0.768974 0.243345
H14   H     H_    0.047982 0.182769 0.605244 0.251108
H15   H     H_    0.039296 0.237784 0.781627 0.207926
H16   H     H_    0.900171 0.316292 0.736078 0.192737
H17   H     H_    0.889284 0.238046 0.570185 0.200290
H18   H     H_    0.034942 0.451100 0.154728 0.193888
H19   H     H_    0.999946 0.602492 0.107698 0.185049
H20   H     H_    0.944268 0.465891 0.043473 0.180040
H21   H     H_    0.087216 0.960980 0.265989 0.268493
H22   H     H_    0.065685 0.853509 0.122406 0.250528
H23   H     H_    0.489366 0.886928 0.280757 0.165124
H24   H     H_    0.987253 0.959796 0.171466 0.241332
H25   H     H_    0.947840 0.754193 0.259020 0.248867
H26   H     H_    0.973444 0.858289 0.402243 0.202155
H27   H     H_    0.110496 0.772003 0.442864 0.191456
H28   H     H_    0.104843 0.688111 0.280128 0.201187
H29   H     H_    0.954668 0.830170 0.919844 0.249848
H30   H     H_    0.855268 0.862345 0.833638 0.258334
H31   H     H_    0.857686 0.760747 0.982045 0.276313
H32   H     H_    0.836544 0.641479 0.760295 0.226154
H33   H     H_    0.933557 0.608701 0.848646 0.219665
H34   H     H_    0.404926 0.359950 0.124520 0.136440
H35   H     H_    0.004968 0.777263 0.685435 0.193178
H36   H     H_    0.906351 0.768685 0.589202 0.181431
H37   H     H_    0.160203 0.549071 0.031352 0.247675
H38   H     H_    0.241497 0.528247 0.904490 0.261713
H39   H     H_    0.223594 0.679820 0.973072 0.241159
H40   H     H_    0.162743 0.653332 0.732504 0.226606
H41   H     H_    0.083062 0.678508 0.859257 0.217054
H42   H     H_    0.036138 0.461964 0.857265 0.168186
H43   H     H_    0.127475 0.417268 0.766953 0.203030
H44   H     H_    0.614848 0.672599 0.258416 0.211064
H45   H     H_    0.704393 0.812177 0.878665 0.175692
H46   H     H_    0.617140 0.670347 0.750948 0.223255
H47   H     H_    0.404939 0.359979 0.865709 0.142635
H48   H     H_    0.497248 0.109116 0.279009 0.162212
N1    N     N_R   0.500800 0.501210 0.147910 -0.182257
N2    N     N_R   0.500830 0.501290 0.852040 -0.191824
O1    O     O_R   0.499990 0.319640 0.618810 -0.588304
O2    O     O_3   0.717834 0.838186 0.146582 -0.574932
O3    O     O_3   0.922837 0.508610 0.246842 -0.587810
O4    O     O_R   0.500000 0.319660 0.381240 -0.579275
O5    O     O_R   0.379070 0.499980 0.618770 -0.576938
O6    O     O_R   0.379080 0.500000 0.381190 -0.569588
O7    O     O_R   0.500000 0.680340 0.618760 -0.611013
O8    O     O_R   0.500010 0.680360 0.381190 -0.600001
O9    O     O_R   0.620920 0.500000 0.618810 -0.597887
O10   O     O_R   0.620930 0.500020 0.381230 -0.582505
O11   O     O_3   0.051157 0.303537 0.357093 -0.588070

loop_
_geom_bond_atom_site_label_1
_geom_bond_atom_site_label_2
_ccdc_geom_bond_type
C27   C48   T    
C23   C45   S    
C1    C8    S    
C40   H33   S    
C29   O11   S    
C39   H36   S    
C41   H29   S    
C7    C8    A    
C45   C46   S    
C31   H16   S    
C13   H44   S    
C36   C37   S    
C5    C6    A    
C49   H2    S    
C42   H42   S    
Cu1   O9    S    
C5    H12   S    
C18   C19   A    
C25   O11   S    
C35   H19   S    
C8    C9    A    
C22   O9    A    
C30   H9    S    
C30   O2    S    
C34   C46   S    
C9    C10   A    
C21   N2    A    
C35   H20   S    
Cu2   O8    S    
C13   C14   A    
C20   H34   S    
Cu1   O7    S    
C40   H32   S    
C12   C47   S    
C16   O8    A    
Cu1   Cu2   S    
C38   H24   S    
C31   H17   S    
C4    O6    A    
C38   H21   S    
C13   C19   A    
C4    O5    A    
C24   C25   S    
C7    C49   A    
C35   O3    S    
C2    H3    S    
C6    C11   A    
C33   H11   S    
C29   H4    S    
C37   H26   S    
C24   C34   S    
C18   N2    A    
C43   C44   S    
C37   C38   S    
C2    C49   A    
C11   C16   S    
C31   C32   S    
C20   N1    A    
Cu2   O4    S    
C23   C34   S    
C41   H30   S    
C30   H8    S    
C17   C18   A    
C36   C45   S    
C23   C28   S    
C26   C47   T    
C33   H10   S    
C40   C41   S    
C37   H25   S    
C29   H6    S    
Cu1   O1    S    
C22   C27   S    
C34   C48   S    
C42   C43   S    
C15   H45   S    
C44   H39   S    
C32   H15   S    
Cu2   N1    S    
C15   C17   A    
Cu2   O10   S    
C42   H43   S    
C24   C28   S    
C12   C45   S    
C3    C5    A    
C36   H28   S    
C4    C26   S    
C3    H1    S    
C6    C7    A    
C29   H5    S    
C9    H48   S    
C43   H41   S    
C12   C25   S    
C32   C33   S    
C2    C3    A    
C24   C31   S    
C36   H27   S    
C19   N1    A    
C21   H47   S    
C10   H23   S    
C14   O2    S    
C46   O3    S    
C33   H13   S    
C23   C39   S    
C41   H31   S    
C30   H7    S    
C28   C42   S    
C43   H40   S    
C1    O1    A    
C10   C11   A    
C16   O7    A    
C39   C40   S    
C20   C21   A    
C35   H18   S    
Cu1   N2    S    
Cu2   O6    S    
C22   O10   A    
Cu1   O5    S    
C14   C15   A    
C39   H35   S    
C12   C28   S    
C44   H37   S    
C17   H46   S    
C25   C46   S    
C44   H38   S    
C1    O4    A    
C32   H14   S    
C38   H22   S    
