data_mof_unit_62836.cif
_audit_creation_date              2013-03-05T16:19:08-0500
_audit_creation_method            fapswitch 2.2
_symmetry_space_group_name_H-M    P1
_symmetry_Int_Tables_number       1
_space_group_crystal_system       triclinic
_cell_length_a                    18.889385
_cell_length_b                    18.650878
_cell_length_c                    18.923674
_cell_angle_alpha                 109.268163
_cell_angle_beta                  109.349196
_cell_angle_gamma                 109.218933
_cell_volume                      5168.40641188

loop_
_atom_site_label
_atom_site_type_symbol
_atom_site_description
_atom_site_fract_x
_atom_site_fract_y
_atom_site_fract_z
_atom_type_partial_charge
O1    O     O_R   0.909480 0.462010 0.051860 -0.521493
O2    O     O_R   0.910180 0.357650 0.948150 -0.595287
C1    C     C_R   0.880500 0.380925 0.999108 0.826070
O3    O     O_R   0.910060 0.552180 0.962250 -0.575470
O4    O     O_R   0.910760 0.447820 0.858550 -0.584695
C2    C     C_R   0.886058 0.504497 0.882511 0.855951
Cu1   Cu    Cu3+1 0.999590 0.561790 0.061400 1.093622
Cu2   Cu    Cu3+1 0.000410 0.438210 0.938600 1.005814
O5    O     O_R   0.089820 0.642350 0.051850 -0.580212
O6    O     O_R   0.090520 0.537990 0.948140 -0.585047
O7    O     O_R   0.089240 0.552180 0.141450 -0.541186
O8    O     O_R   0.089940 0.447820 0.037750 -0.576538
C3    C     C_R   0.119253 0.618622 0.000997 0.748242
C4    C     C_R   0.119601 0.501607 0.117531 0.786806
C5    C     C_2   0.751425 0.496837 0.675505 0.296217
C6    C     C_2   0.676229 0.486219 0.673958 0.135969
C7    C     C_2   0.812827 0.485057 0.737740 -0.229260
C8    C     C_2   0.829423 0.517002 0.819503 -0.253745
H1    H     H_    0.845782 0.452191 0.716442 0.168321
H2    H     H_    0.802552 0.556988 0.842264 0.176979
C9    C     C_R   0.818289 0.319498 0.075518 0.116552
C10   C     C_R   0.814487 0.312811 0.998523 -0.041045
C11   C     C_R   0.749793 0.235410 0.920967 -0.176696
H3    H     H_    0.747450 0.226365 0.860513 0.169845
C12   C     C_R   0.684485 0.171410 0.920603 -0.192601
H4    H     H_    0.632970 0.113757 0.860141 0.150766
C13   C     C_R   0.685467 0.183178 0.998197 -0.042487
C14   C     C_R   0.755959 0.254708 0.075441 0.043867
C15   C     C_3   0.757200 0.318486 0.149158 -0.528639
C16   C     C_3   0.825307 0.390038 0.148964 0.249784
H5    H     H_    0.694952 0.318771 0.130902 0.234159
H6    H     H_    0.782776 0.312335 0.207581 0.174859
H7    H     H_    0.889664 0.427665 0.207751 0.163906
C17   C     C_R   0.180664 0.497221 0.250584 0.076556
C18   C     C_R   0.188689 0.504149 0.182648 -0.214155
C19   C     C_R   0.265031 0.510661 0.179608 0.417788
C20   C     C_R   0.327351 0.508411 0.244212 -0.161748
H8    H     H_    0.385576 0.514082 0.242298 0.191053
C21   C     C_R   0.314779 0.499321 0.310868 -0.138965
C22   C     C_R   0.239597 0.492692 0.310494 0.016106
C23   C     C_3   0.193009 0.486940 0.360220 -0.537979
C24   C     C_3   0.125290 0.491978 0.291499 0.642031
H9    H     H_    0.169553 0.422885 0.358232 0.208891
H10   H     H_    0.229936 0.544915 0.425622 0.207164
C25   C     C_R   0.173962 0.696437 0.933381 0.080187
C26   C     C_R   0.188300 0.685155 0.004567 -0.172609
C27   C     C_R   0.271690 0.741899 0.079146 0.403074
C28   C     C_R   0.335104 0.806417 0.077182 -0.169787
H11   H     H_    0.398445 0.849177 0.133822 0.192557
C29   C     C_R   0.316688 0.815974 0.003163 -0.180992
C30   C     C_R   0.234497 0.759410 0.933039 0.123962
C31   C     C_3   0.177040 0.734971 0.843124 -0.400741
C32   C     C_3   0.107568 0.663405 0.843878 -0.465199
H12   H     H_    0.161959 0.787003 0.839925 0.213125
H13   H     H_    0.199544 0.708949 0.798383 0.206383
H14   H     H_    0.052665 0.674405 0.841666 0.200994
H15   H     H_    0.089613 0.596043 0.799273 0.212185
O9    O     O_R   0.549550 0.461960 0.407200 -0.523468
O10   O     O_R   0.445180 0.357580 0.407200 -0.585670
C33   C     C_R   0.495892 0.381088 0.377500 0.787732
O11   O     O_R   0.638540 0.552110 0.586390 -0.540894
O12   O     O_R   0.534170 0.447730 0.586390 -0.549575
C34   C     C_R   0.614267 0.496988 0.612908 0.808055
Cu3   Cu    Cu3+1 0.558560 0.561730 0.496790 1.070568
Cu4   Cu    Cu3+1 0.434970 0.438120 0.496790 1.037692
O13   O     O_R   0.548350 0.642270 0.586380 -0.587256
O14   O     O_R   0.443970 0.537890 0.586380 -0.586219
O15   O     O_R   0.459360 0.552110 0.407190 -0.586861
O16   O     O_R   0.354990 0.447740 0.407190 -0.581152
C35   C     C_R   0.496772 0.618707 0.615561 0.817280
C36   C     C_R   0.379299 0.499801 0.378436 0.801631
O17   O     O_R   0.448700 0.909820 0.858480 -0.577966
O18   O     O_R   0.552410 0.909770 0.962140 -0.573787
C37   C     C_R   0.500917 0.881485 0.882425 0.781535
O19   O     O_R   0.538310 0.090150 0.948110 -0.571693
O20   O     O_R   0.642020 0.090090 0.051780 -0.580350
C38   C     C_R   0.618510 0.118548 0.999577 0.793368
Cu5   Cu    Cu3+1 0.438600 0.999980 0.938570 1.013422
Cu6   Cu    Cu3+1 0.561400 0.999920 0.061330 0.994197
O21   O     O_R   0.447590 0.090130 0.037760 -0.562671
O22   O     O_R   0.551300 0.090080 0.141420 -0.577446
O23   O     O_R   0.357980 0.909810 0.948120 -0.585303
O24   O     O_R   0.461690 0.909750 0.051790 -0.587021
C39   C     C_R   0.496652 0.116301 0.117928 0.810647
C40   C     C_R   0.381658 0.881474 0.000639 0.793428
C41   C     C_R   0.563699 0.300879 0.326435 -0.043525
C42   C     C_R   0.492248 0.312911 0.309075 -0.212226
C43   C     C_R   0.413610 0.248226 0.231393 0.408109
C44   C     C_R   0.412038 0.178618 0.170220 0.399849
C45   C     C_R   0.489960 0.176412 0.184529 -0.250189
C46   C     C_R   0.562469 0.234021 0.265867 0.037986
C47   C     C_3   0.654931 0.286850 0.292579 -0.481095
C48   C     C_3   0.656582 0.361462 0.359569 0.200120
H16   H     H_    0.695158 0.261429 0.321527 0.181254
H17   H     H_    0.662891 0.297893 0.240910 0.211804
H18   H     H_    0.699241 0.380836 0.427220 0.127383
C49   C     C_R   0.532103 0.770495 0.703234 0.122545
C50   C     C_R   0.498682 0.684364 0.684798 -0.186286
C51   C     C_R   0.465455 0.662454 0.736128 -0.164182
H19   H     H_    0.439117 0.596137 0.724897 0.203192
C52   C     C_R   0.465564 0.725835 0.802523 0.393225
C53   C     C_R   0.499495 0.813097 0.817332 -0.178796
C54   C     C_R   0.531545 0.831379 0.765645 0.075849
C55   C     C_3   0.570730 0.901913 0.747684 -0.473882
C56   C     C_3   0.570944 0.832221 0.675913 -0.399243
H20   H     H_    0.525725 0.925024 0.723178 0.214417
H21   H     H_    0.636271 0.953951 0.801757 0.199004
H22   H     H_    0.525835 0.814979 0.610005 0.207838
H23   H     H_    0.636651 0.844206 0.688294 0.208738
O25   O     O_3   0.769201 0.514948 0.616189 -0.714012
H24   H     H_    0.826340 0.520490 0.627035 0.333648
O26   O     O_3   0.282979 0.521666 0.117665 -0.682096
H25   H     H_    0.243476 0.537898 0.086157 0.327429
O27   O     O_3   0.045002 0.415236 0.238772 -0.749945
H26   H     H_    0.021343 0.407603 0.277029 0.320774
N1    N     N_R   0.119117 0.571509 0.324309 0.131390
O28   O     O_R   0.188300 0.647861 0.371907 -0.352471
O29   O     O_R   0.044221 0.566875 0.303445 -0.342963
O30   O     O_3   0.294871 0.736498 0.153780 -0.694658
H27   H     H_    0.247382 0.685536 0.145351 0.320035
N2    N     N_R   0.647218 0.450006 0.722156 0.101536
O31   O     O_R   0.609176 0.480740 0.759800 -0.330480
O32   O     O_R   0.645612 0.377901 0.716341 -0.328126
O33   O     O_3   0.337645 0.251253 0.211363 -0.652312
H28   H     H_    0.349837 0.309764 0.250304 0.314030
O34   O     O_3   0.333871 0.115855 0.097037 -0.645772
H29   H     H_    0.334743 0.060227 0.075195 0.319769
N3    N     N_R   0.669918 0.435269 0.343623 0.164950
O35   O     O_R   0.623862 0.423565 0.268000 -0.335561
O36   O     O_R   0.728763 0.513837 0.405866 -0.310196
O37   O     O_3   0.430625 0.698843 0.848774 -0.702007
H30   H     H_    0.429579 0.747437 0.889558 0.322503
O38   O     O_3   0.794996 0.441641 0.123840 -0.652311
H31   H     H_    0.801414 0.485292 0.176267 0.359527

loop_
_geom_bond_atom_site_label_1
_geom_bond_atom_site_label_2
_geom_bond_distance
_ccdc_geom_bond_type
C42   C43   1.423269 A    
O34   H29   0.990102 S    
O18   C37   1.290215 A    
C18   C19   1.428929 A    
C17   C24   1.490759 S    
O20   Cu6   1.968986 S    
C43   O33   1.383082 S    
N3    O35   1.302407 A    
C55   H20   1.111533 S    
C49   C50   1.384682 A    
Cu1   Cu2   2.687987 S    
O13   C35   1.296942 A    
C25   C26   1.383870 A    
Cu1   O7    1.968178 S    
C14   C15   1.492096 S    
O12   C34   1.289366 A    
C17   C22   1.349260 A    
Cu3   O15   1.972527 S    
C19   C20   1.412389 A    
C15   H6    1.111357 S    
C41   C46   1.374468 A    
O4    C2    1.299744 A    
O7    C4    1.292216 A    
Cu5   O21   1.974090 S    
C25   C30   1.346399 A    
O9    C33   1.294143 A    
C5    C6    1.356865 D    
N1    O28   1.302019 A    
O11   C34   1.304455 A    
C17   C18   1.385045 A    
C23   C24   1.547177 S    
O16   C36   1.292467 A    
O5    C3    1.290919 A    
O25   H24   0.991717 S    
O26   H25   0.988451 S    
O17   Cu5   1.970253 S    
C29   C40   1.446085 S    
C24   O27   1.403529 S    
C51   H19   1.083437 S    
Cu4   O14   1.970898 S    
C7    C8    1.339576 D    
C19   O26   1.381089 S    
C11   H3    1.083212 S    
C6    C34   1.468607 S    
C15   C16   1.520542 S    
C16   H7    1.111232 S    
C31   H13   1.111850 S    
O21   C39   1.296324 A    
C37   C53   1.436499 S    
C49   C56   1.489648 S    
C28   C29   1.413313 A    
C25   C32   1.488705 S    
O10   C33   1.291737 A    
C9    C10   1.395872 A    
C23   H9    1.111657 S    
C5    O25   1.382789 S    
C39   C45   1.458662 S    
O3    Cu1   1.971913 S    
C55   C56   1.541471 S    
C33   C42   1.447383 S    
C31   H12   1.111714 S    
O27   H26   0.992288 S    
C44   O34   1.380405 S    
O9    Cu3   1.970800 S    
C2    C8    1.457073 S    
C56   H22   1.111626 S    
C30   C31   1.489840 S    
C52   C53   1.425260 A    
O20   C38   1.290489 A    
O17   C37   1.289396 A    
C4    C18   1.441838 S    
Cu6   O22   1.970252 S    
C32   H15   1.111687 S    
C41   C42   1.390730 A    
C12   H4    1.083338 S    
C47   H17   1.109488 S    
O1    C1    1.296049 A    
Cu3   O13   1.973462 S    
O11   Cu3   1.967575 S    
C6    N2    1.443085 S    
C20   H8    1.083729 S    
C41   C48   1.498823 S    
Cu5   O23   1.968988 S    
C27   C28   1.412188 A    
Cu2   O8    1.971914 S    
C16   O38   1.401621 S    
C47   H16   1.111324 S    
C29   C30   1.384487 A    
O18   Cu6   1.974094 S    
O19   C38   1.295262 A    
N2    O31   1.301266 A    
C49   C54   1.347389 A    
C52   O37   1.381997 S    
C24   N1    1.467445 S    
C22   C23   1.491520 S    
O24   C40   1.291900 A    
C9    C14   1.381117 A    
O8    C4    1.292090 A    
C48   H18   1.112750 S    
O38   H31   0.992001 S    
C23   H10   1.111600 S    
O3    C2    1.291880 A    
O37   H30   0.988788 S    
C21   C22   1.381770 A    
O22   C39   1.293868 A    
C31   C32   1.541333 S    
C32   H14   1.111918 S    
C5    C7    1.487919 S    
C56   H23   1.111501 S    
C26   C27   1.427119 A    
C28   H11   1.083631 S    
O12   Cu4   1.972623 S    
C51   C52   1.411550 A    
O1    Cu1   1.970353 S    
Cu2   O6    1.970353 S    
O2    Cu2   1.972943 S    
C13   C38   1.446464 S    
O6    C3    1.291050 A    
N3    O36   1.300437 A    
O4    Cu2   1.968178 S    
O30   H27   0.988604 S    
C12   C13   1.403994 A    
O23   C40   1.294138 A    
C9    C16   1.495490 S    
O14   C35   1.291382 A    
Cu3   Cu4   2.687327 S    
O2    C1    1.294160 A    
C48   N3    1.464809 S    
C15   H5    1.112701 S    
O10   Cu4   1.973459 S    
Cu6   O24   1.974147 S    
Cu5   Cu6   2.685130 S    
C45   C46   1.393653 A    
C3    C26   1.437443 S    
O15   C36   1.291491 A    
Cu4   O16   1.967573 S    
C27   O30   1.381926 S    
C47   C48   1.524965 S    
C7    H1    1.086325 S    
N1    O29   1.300652 A    
C8    H2    1.086923 S    
C11   C12   1.402205 A    
C53   C54   1.384204 A    
O19   Cu5   1.974144 S    
N2    O32   1.301862 A    
Cu1   O5    1.972942 S    
C43   C44   1.409396 A    
C20   C21   1.410448 A    
C50   C51   1.414761 A    
C54   C55   1.488199 S    
C21   C36   1.439771 S    
C10   C11   1.408233 A    
C1    C10   1.451747 S    
C44   C45   1.422882 A    
C55   H21   1.111663 S    
C46   C47   1.493352 S    
C35   C50   1.448519 S    
O33   H28   0.989094 S    
C13   C14   1.393993 A    
