data_mof_unit_54873.cif
_audit_creation_date              2012-12-11T14:47:59-0500
_audit_creation_method            fapswitch 2.2
_symmetry_space_group_name_H-M    P1
_symmetry_Int_Tables_number       1
_space_group_crystal_system       triclinic
_cell_length_a                    11.487131
_cell_length_b                    11.528644
_cell_length_c                    19.57596
_cell_angle_alpha                 90.539202
_cell_angle_beta                  90.203778
_cell_angle_gamma                 59.931964
_cell_volume                      2243.49823349

loop_
_atom_site_label
_atom_site_type_symbol
_atom_type_description
_atom_site_fract_x
_atom_site_fract_y
_atom_site_fract_z
_atom_type_partial_charge
C1    C     C_R   0.640758 0.117389 0.599276 0.554356
C2    C     C_1   0.651698 0.684037 0.664324 0.010925
C3    C     C_1   0.126179 0.199217 0.859134 0.010190
C4    C     C_1   0.171101 0.170615 0.727640 -0.026340
C5    C     C_1   0.149575 0.182741 0.798819 -0.025906
C6    C     C_1   0.195085 0.161074 0.667376 0.010623
C7    C     C_1   0.678131 0.191954 0.860641 0.009150
C8    C     C_1   0.658844 0.167474 0.728956 -0.026560
C9    C     C_1   0.665514 0.181512 0.800211 -0.026835
C10   C     C_1   0.653494 0.149655 0.668619 0.011091
C11   C     C_R   0.526320 0.761834 0.288164 -0.144080
C12   C     C_R   0.613971 0.743496 0.598066 0.552874
C13   C     C_R   0.541766 0.745471 0.218799 -0.151530
C14   C     C_R   0.670340 0.673808 0.191588 0.010168
C15   C     C_R   0.785197 0.632097 0.234095 0.281784
C16   C     C_R   0.769330 0.638415 0.304542 0.270826
C17   C     C_R   0.639245 0.704013 0.331265 0.014987
C18   C     C_R   0.224478 0.246418 0.291074 -0.111424
C19   C     C_R   0.200688 0.258920 0.222294 -0.129141
C20   C     C_R   0.151555 0.184588 0.190176 -0.001857
C21   C     C_R   0.141587 0.083135 0.226819 0.186816
C22   C     C_R   0.158515 0.075733 0.297988 0.022208
C23   C     C_R   0.240951 0.145323 0.598230 0.557362
C24   C     C_R   0.200549 0.158403 0.330010 -0.028652
C25   C     C_R   0.742565 0.034019 0.285061 0.233710
C26   C     C_R   0.728372 0.053758 0.215136 0.246142
C27   C     C_R   0.655693 0.183787 0.189524 -0.059582
C28   C     C_R   0.567766 0.291247 0.232989 -0.053297
C29   C     C_R   0.576885 0.271895 0.304275 -0.042908
C30   C     C_R   0.663372 0.142000 0.330616 -0.052942
C31   C     C_R   0.081536 0.231455 0.928459 0.529825
C32   C     C_R   0.708944 0.546570 0.922521 0.540984
C33   C     C_R   0.707956 0.206968 0.930053 0.538794
C34   C     C_R   0.645043 0.110905 0.401293 0.585315
C35   C     C_R   0.085675 0.233195 0.124435 0.567756
C36   C     C_R   0.683762 0.613992 0.124905 0.576722
C37   C     C_R   0.703465 0.209971 0.125056 0.584810
C38   C     C_R   0.615668 0.740447 0.402018 0.595038
C39   C     C_R   0.246037 0.139727 0.400589 0.571886
C40   C     C_1   0.698314 0.581939 0.851797 0.005094
C41   C     C_1   0.672818 0.645733 0.722527 -0.023444
C42   C     C_1   0.688700 0.609836 0.792081 -0.025394
Cr1   Cr    Cr6+3 0.404720 0.198220 0.499960 1.087170
Cr2   Cr    Cr6+3 0.698290 0.897110 0.500380 1.127090
Cr3   Cr    Cr6+3 0.396970 0.904720 0.499610 1.080143
Cr4   Cr    Cr6+3 0.926180 0.152240 0.028110 1.131683
Cr5   Cr    Cr6+3 0.921340 0.452070 0.027460 1.126418
Cr6   Cr    Cr6+3 0.626260 0.447120 0.028700 1.091675
H1    H     H_    0.425166 0.820148 0.308077 0.190122
H2    H     H_    0.453305 0.782947 0.186669 0.178200
H3    H     H_    0.262659 0.306863 0.313539 0.218163
H4    H     H_    0.214945 0.331957 0.194781 0.224226
O1    O     O_R   0.267740 0.231990 0.575440 -0.494868
O2    O     O_R   0.685970 0.784630 0.430010 -0.445761
O3    O     O_R   0.502530 0.766960 0.423990 -0.507059
O4    O     O_R   0.288330 0.026310 0.429250 -0.493974
O5    O     O_3   0.499990 0.000020 0.499980 -0.299652
O6    O     O_R   0.821500 0.119550 0.952820 -0.491110
O7    O     O_R   0.037130 0.162750 0.957360 -0.499039
O8    O     O_R   0.056440 0.344950 0.951330 -0.507657
O9    O     O_R   0.797900 0.560570 0.957460 -0.481920
O10   O     O_R   0.596140 0.579600 0.952720 -0.492277
O11   O     O_R   0.639070 0.321380 0.958660 -0.511122
O12   O     O_R   0.527280 0.186680 0.570530 -0.490217
O13   O     O_R   0.821240 0.124490 0.104360 -0.411310
O14   O     O_R   0.036900 0.167320 0.097830 -0.449712
O15   O     O_R   0.056190 0.349890 0.102870 -0.464344
O16   O     O_R   0.797670 0.565150 0.097930 -0.437325
O17   O     O_R   0.595880 0.584540 0.104260 -0.496576
O18   O     O_R   0.638830 0.325960 0.099140 -0.481957
O19   O     O_3   0.824590 0.350480 0.028090 -0.316503
O20   O     O_R   0.728090 0.003480 0.576380 -0.498119
O21   O     O_R   0.682970 0.789220 0.570490 -0.491824
O22   O     O_R   0.499290 0.771920 0.575530 -0.497582
O23   O     O_R   0.285330 0.030900 0.569730 -0.487697
O24   O     O_R   0.270980 0.227040 0.423900 -0.489265
O25   O     O_R   0.530280 0.182090 0.430050 -0.498338
O26   O     O_R   0.731330 0.998530 0.424830 -0.433480
Cl1   Cl    Cl    0.800537 0.913257 0.158803 -0.428147
C43   C     C_2   0.463434 0.421083 0.203932 0.652170
O27   O     O_2   0.391484 0.421550 0.157596 -0.483660
O28   O     O_R   0.446459 0.542093 0.229516 -0.644234
H5    H     H_    0.369266 0.622717 0.206751 0.379930
C44   C     C_2   0.499358 0.387695 0.351366 0.641561
O29   O     O_2   0.558000 0.411510 0.396789 -0.482104
O30   O     O_R   0.359848 0.467458 0.344605 -0.645830
H6    H     H_    0.319057 0.542244 0.379950 0.354640
Cl2   Cl    Cl    0.948683 0.577339 0.202294 -0.394979
Cl3   Cl    Cl    0.911911 0.560510 0.358725 -0.462925
Cl4   Cl    Cl    0.105606 0.966064 0.186204 -0.457832
C45   C     C_2   0.125054 0.988043 0.338740 0.646425
O31   O     O_2   0.046671 0.035640 0.386744 -0.473795
O32   O     O_R   0.183789 0.851566 0.322916 -0.621362
H7    H     H_    0.154298 0.802768 0.355107 0.374557
Cl5   Cl    Cl    0.867032 0.872064 0.311974 -0.390163

loop_
_geom_bond_atom_site_label_1
_geom_bond_atom_site_label_2
_ccdc_geom_bond_type
O32   H7    S    
C12   O22   A    
Cr4   O7    S    
C41   C42   S    
C19   C20   A    
Cr6   O17   S    
C2    C12   S    
Cr3   O5    S    
C26   C27   A    
C33   O6    A    
C18   C24   A    
C28   C29   A    
C44   O30   S    
C32   O9    A    
Cr4   O14   S    
C34   O25   A    
C14   C36   S    
C43   O27   D    
C2    C41   T    
C15   C16   A    
C25   C30   A    
C24   C39   S    
C18   C19   A    
C31   O7    A    
Cr5   O8    S    
C20   C35   S    
C19   H4    S    
Cr1   O1    S    
C38   O3    A    
Cr3   O4    S    
C8    C9    S    
C37   O13   A    
Cr1   O12   S    
C22   C45   S    
C13   C14   A    
C40   C42   T    
C16   Cl3   S    
C21   C22   A    
Cr4   O6    S    
C7    C33   S    
Cr5   O15   S    
C18   H3    S    
C23   O1    A    
C21   Cl4   S    
C1    O20   A    
C30   C34   S    
C44   O29   D    
Cr4   O13   S    
C43   O28   S    
Cr6   O18   S    
C45   O31   D    
O30   H6    S    
C16   C17   A    
Cr6   O11   S    
C35   O14   A    
C25   C26   A    
Cr3   O22   S    
C31   O8    A    
C29   C30   A    
C11   H1    S    
C45   O32   S    
Cr6   O10   S    
C39   O4    A    
C38   O2    A    
C35   O15   A    
Cr2   O5    S    
C33   O11   A    
C39   O24   A    
C3    C31   S    
Cr5   O19   S    
Cr4   O19   S    
C29   C44   S    
C4    C6    T    
C25   Cl5   S    
C22   C24   A    
Cr6   O19   S    
C1    O12   A    
Cr5   O16   S    
C36   O17   A    
Cr1   O24   S    
C7    C9    T    
C11   C17   A    
C1    C10   S    
C23   O23   A    
C4    C5    S    
C3    C5    T    
Cr5   O9    S    
C36   O16   A    
Cr1   O25   S    
C26   Cl1   S    
Cr3   O23   S    
C37   O18   A    
Cr2   O26   S    
C32   O10   A    
C34   O26   A    
C11   C13   A    
C27   C37   S    
C6    C23   S    
Cr2   O20   S    
C17   C38   S    
C32   C40   S    
Cr2   O21   S    
C28   C43   S    
Cr1   O5    S    
C13   H2    S    
Cr2   O2    S    
C20   C21   A    
Cr3   O3    S    
C8    C10   T    
O28   H5    S    
C27   C28   A    
C14   C15   A    
C12   O21   A    
C15   Cl2   S    
