data_mof_unit_5849.cif
_audit_creation_date              2012-12-10T19:09:34-0500
_audit_creation_method            fapswitch 2.2
_symmetry_space_group_name_H-M    P1
_symmetry_Int_Tables_number       1
_space_group_crystal_system       triclinic
_cell_length_a                    9.597821
_cell_length_b                    10.831778
_cell_length_c                    16.989316
_cell_angle_alpha                 88.25969
_cell_angle_beta                  94.927621
_cell_angle_gamma                 90.324978
_cell_volume                      1758.886206

loop_
_atom_site_label
_atom_site_type_symbol
_atom_type_description
_atom_site_fract_x
_atom_site_fract_y
_atom_site_fract_z
_atom_type_partial_charge
C1    C     C_R   0.498293 0.262316 0.496560 0.783670
C2    C     C_R   0.624588 0.572251 0.779755 -0.245773
C3    C     C_R   0.571131 0.414653 0.146096 0.076974
C4    C     C_R   0.578597 0.429653 0.227690 -0.264650
C5    C     C_R   0.452145 0.459469 0.098903 0.325968
C6    C     C_R   0.470063 0.486260 0.263019 -0.076877
C7    C     C_R   0.350404 0.525921 0.216465 -0.271804
C8    C     C_R   0.339777 0.512155 0.134462 0.062864
C9    C     C_R   0.619994 0.064006 0.500436 0.109490
C10   C     C_R   0.494560 0.128839 0.486122 -0.146506
C11   C     C_R   0.371608 0.061485 0.459224 0.125539
C12   C     C_R   0.518208 0.498654 0.650822 0.786335
C13   C     C_R   0.378340 0.932125 0.457780 -0.251023
C14   C     C_R   0.500458 0.869828 0.485967 -0.140294
C15   C     C_R   0.622742 0.937116 0.500910 0.129821
C16   C     C_3   0.729399 0.928562 0.569889 -0.453419
C17   C     C_3   0.727564 0.068631 0.569206 -0.494438
C18   C     C_R   0.066164 0.577479 0.449835 0.253684
C19   C     C_R   0.084780 0.434424 0.554905 -0.096025
C20   C     C_R   0.937217 0.434428 0.556647 0.196806
C21   C     C_R   0.919209 0.577229 0.449612 0.227434
C22   C     C_3   0.901183 0.579645 0.361528 -0.486570
C23   C     C_R   0.500111 0.737219 0.497072 0.814987
C24   C     C_3   0.059142 0.580515 0.361898 -0.521213
C25   C     C_R   0.481534 0.498838 0.349029 0.806082
C26   C     C_R   0.527743 0.497343 0.736988 -0.023425
C27   C     C_R   0.432647 0.425609 0.776691 -0.243958
C28   C     C_R   0.433218 0.429118 0.858371 -0.155954
C29   C     C_R   0.529754 0.505269 0.901830 0.374236
C30   C     C_R   0.625912 0.575439 0.861842 -0.194234
Cu1   Cu    Cu3+1 0.640670 0.499980 0.500000 0.922474
Cu2   Cu    Cu3+1 0.359330 0.500020 0.500000 0.921598
H1    H     H_    0.668188 0.393930 0.264215 0.148875
H2    H     H_    0.284793 0.879731 0.440171 0.168270
H3    H     H_    0.687664 0.885163 0.623240 0.190639
H4    H     H_    0.829189 0.889185 0.553773 0.199757
H5    H     H_    0.686406 0.106817 0.622626 0.188032
H6    H     H_    0.825842 0.111243 0.551603 0.202723
H7    H     H_    0.149488 0.379046 0.597400 0.148409
H8    H     H_    0.853910 0.493378 0.337577 0.209718
H9    H     H_    0.851736 0.666576 0.336777 0.196215
H10   H     H_    0.100384 0.494883 0.338044 0.213449
H11   H     H_    0.101291 0.668300 0.337819 0.185180
H12   H     H_    0.700577 0.634240 0.894396 0.140558
H13   H     H_    0.695990 0.630919 0.749609 0.138624
H14   H     H_    0.266169 0.569050 0.243842 0.151525
H15   H     H_    0.357581 0.372866 0.886988 0.147750
H16   H     H_    0.357605 0.366915 0.744302 0.143869
N1    N     N_2   0.533561 0.514106 0.985156 -0.270867
N2    N     N_2   0.442929 0.450628 0.015924 -0.287498
N3    N     N_R   0.147870 0.500930 0.499500 -0.203058
N4    N     N_R   0.851960 0.500890 0.499500 -0.206756
O1    O     O_R   0.618810 0.319640 0.500000 -0.591396
O2    O     O_R   0.381230 0.319680 0.499990 -0.591578
O3    O     O_R   0.631790 0.498830 0.613930 -0.597692
O4    O     O_R   0.394210 0.498870 0.613920 -0.577805
O5    O     O_R   0.618770 0.680320 0.500010 -0.574852
O6    O     O_R   0.381190 0.680360 0.500000 -0.577666
O7    O     O_R   0.605790 0.501130 0.386080 -0.581937
O8    O     O_R   0.368210 0.501170 0.386070 -0.586217
C31   C     C_3   0.883538 0.356161 0.622992 -0.383439
C32   C     C_3   0.897437 0.421658 0.702602 -0.318372
C33   C     C_3   0.043218 0.412161 0.746211 -0.871572
H17   H     H_    0.080999 0.315275 0.748979 0.245141
H18   H     H_    0.118016 0.472836 0.716990 0.261669
H19   H     H_    0.039225 0.443618 0.807580 0.246173
H20   H     H_    0.870392 0.520814 0.693417 0.232340
H21   H     H_    0.822025 0.378516 0.741392 0.214487
H22   H     H_    0.774863 0.327745 0.609716 0.226539
H23   H     H_    0.941517 0.267334 0.629277 0.152954
C34   C     C_3   0.689953 0.349061 0.111484 -0.383192
C35   C     C_3   0.644517 0.221552 0.081659 -0.334392
C36   C     C_3   0.764550 0.156621 0.046611 -0.859863
H24   H     H_    0.798337 0.211187 0.995152 0.255065
H25   H     H_    0.854726 0.144618 0.091702 0.249715
H26   H     H_    0.729362 0.064130 0.026391 0.242688
H27   H     H_    0.609898 0.163703 0.131588 0.213341
H28   H     H_    0.555675 0.230375 0.035486 0.233387
H29   H     H_    0.729797 0.406444 0.063178 0.222685
H30   H     H_    0.779948 0.336493 0.156805 0.181678
C37   C     C_3   0.211075 0.559184 0.085055 -0.386120
C38   C     C_3   0.117618 0.452426 0.054452 -0.330834
C39   C     C_3   0.994008 0.500258 0.999654 -0.873090
H31   H     H_    0.927537 0.561383 0.031978 0.253386
H32   H     H_    0.031643 0.552523 0.948298 0.255998
H33   H     H_    0.929766 0.421223 0.977178 0.242489
H34   H     H_    0.178226 0.387624 0.021281 0.227507
H35   H     H_    0.077452 0.400449 0.105286 0.212117
H36   H     H_    0.148683 0.619610 0.120406 0.185790
H37   H     H_    0.244023 0.617098 0.034712 0.213864
C40   C     C_3   0.228876 0.118553 0.438247 -0.354692
C41   C     C_3   0.146813 0.130453 0.511623 -0.315430
C42   C     C_3   0.107746 0.005544 0.547975 -0.855560
H38   H     H_    0.042091 0.020195 0.597489 0.232715
H39   H     H_    0.049015 0.948658 0.502962 0.246584
H40   H     H_    0.202550 0.955130 0.572870 0.268446
H41   H     H_    0.208780 0.182257 0.557820 0.227020
H42   H     H_    0.049283 0.182778 0.494088 0.193788
H43   H     H_    0.237818 0.209150 0.406878 0.182430
H44   H     H_    0.166758 0.061062 0.394717 0.168487

loop_
_geom_bond_atom_site_label_1
_geom_bond_atom_site_label_2
_ccdc_geom_bond_type
C27   H16   S    
C31   H23   S    
C23   O6    A    
C33   H18   S    
C28   H15   S    
C42   H38   S    
C18   C21   A    
C24   H10   S    
C36   H24   S    
C19   C20   A    
Cu2   O6    S    
Cu1   N4    S    
C34   H29   S    
C37   C38   S    
C41   H42   S    
C7    C8    A    
C29   N1    S    
C26   C27   A    
C29   C30   A    
C32   H20   S    
C18   C24   S    
C28   C29   A    
C16   H3    S    
C6    C25   S    
C15   C16   S    
Cu1   O7    S    
C20   C31   S    
C1    O1    A    
C35   H28   S    
C35   H27   S    
C39   H31   S    
C16   C17   S    
C41   H41   S    
C25   O8    A    
C40   H44   S    
C9    C10   A    
C37   H36   S    
C33   H19   S    
C42   H39   S    
C21   C22   S    
C36   H25   S    
C30   H12   S    
Cu2   O2    S    
C34   H30   S    
C18   N3    A    
C2    H13   S    
C8    C37   S    
C7    H14   S    
C4    C6    A    
C40   C41   S    
C12   C26   S    
C14   C23   S    
C3    C34   S    
C1    O2    A    
Cu2   N3    S    
C32   C33   S    
C11   C40   S    
Cu1   Cu2   S    
C22   H8    S    
C2    C26   A    
C17   H5    S    
Cu1   O1    S    
C12   O4    A    
C19   H7    S    
C37   H37   S    
C9    C17   S    
C39   H32   S    
C38   C39   S    
C42   H40   S    
C36   H26   S    
C22   C24   S    
C5    N2    S    
Cu2   O8    S    
C3    C4    A    
C31   H22   S    
C23   O5    A    
C4    H1    S    
C1    C10   S    
C35   C36   S    
C3    C5    A    
C5    C8    A    
C6    C7    A    
C32   H21   S    
C2    C30   A    
Cu1   O3    S    
Cu1   O5    S    
C9    C15   A    
C34   C35   S    
C20   N4    A    
C16   H4    S    
C11   C13   A    
C38   H35   S    
C41   C42   S    
C17   H6    S    
C31   C32   S    
C12   O3    A    
C10   C11   A    
C33   H17   S    
C22   H9    S    
C19   N3    A    
C13   H2    S    
C39   H33   S    
N1    N2    D    
C27   C28   A    
C24   H11   S    
C14   C15   A    
C25   O7    A    
C40   H43   S    
C13   C14   A    
Cu2   O4    S    
C21   N4    A    
C38   H34   S    
