data_mof_unit_9965.cif
_audit_creation_date              2012-12-10T16:52:06-0500
_audit_creation_method            fapswitch 2.2
_symmetry_space_group_name_H-M    P1
_symmetry_Int_Tables_number       1
_space_group_crystal_system       triclinic
_cell_length_a                    7.756764
_cell_length_b                    8.553119
_cell_length_c                    14.904827
_cell_angle_alpha                 89.752387
_cell_angle_beta                  86.964379
_cell_angle_gamma                 93.455635
_cell_volume                      985.64267654

loop_
_atom_site_label
_atom_site_type_symbol
_atom_type_description
_atom_site_fract_x
_atom_site_fract_y
_atom_site_fract_z
_atom_type_partial_charge
C1    C     C_R   0.545907 0.794632 0.499355 1.008918
C2    C     C_R   0.586035 0.615927 0.809724 -0.327884
C3    C     C_R   0.487272 0.514658 0.232044 -0.177191
C4    C     C_R   0.512728 0.485341 0.767956 -0.177188
C5    C     C_R   0.551706 0.649201 0.183476 0.397935
C6    C     C_R   0.448293 0.350799 0.816523 0.397935
C7    C     C_R   0.570283 0.638616 0.089539 -0.021930
C8    C     C_R   0.429717 0.361384 0.910460 -0.021932
C9    C     C_R   0.495869 0.504730 0.046869 0.024277
C10   C     C_R   0.504131 0.495270 0.953131 0.024278
C11   C     C_R   0.412774 0.380128 0.097842 0.135407
C12   C     C_R   0.454092 0.205368 0.500645 1.008920
C13   C     C_R   0.587225 0.619872 0.902158 0.135409
C14   C     C_R   0.663496 0.755166 0.037034 -0.103354
C15   C     C_R   0.336503 0.244834 0.962966 -0.103356
C16   C     C_R   0.668568 0.747502 0.944110 -0.163041
C17   C     C_R   0.331431 0.252498 0.055890 -0.163041
C18   C     C_2   0.569994 0.958181 0.497882 -0.253072
C19   C     C_2   0.430006 0.041819 0.502118 -0.253070
C20   C     C_R   0.503283 0.494372 0.672769 0.976137
C21   C     C_R   0.496717 0.505628 0.327231 0.976138
C22   C     C_R   0.413965 0.384072 0.190276 -0.327882
H1    H     H_    0.358579 0.285144 0.230237 0.172829
H2    H     H_    0.986055 0.615889 0.567271 0.196843
H3    H     H_    0.603925 0.078777 0.208248 0.378428
H4    H     H_    0.396086 0.921221 0.791747 0.378428
H5    H     H_    0.641422 0.714856 0.769763 0.172825
H6    H     H_    0.737921 0.850304 0.066621 0.219062
H7    H     H_    0.262077 0.149696 0.933379 0.219065
H8    H     H_    0.737645 0.840825 0.904986 0.182645
H9    H     H_    0.262354 0.159175 0.095014 0.182647
H10   H     H_    0.702088 0.009146 0.492639 0.180017
H11   H     H_    0.297912 0.990854 0.507361 0.180017
H12   H     H_    0.013944 0.384111 0.432729 0.196843
N1    N     N_2   0.950330 0.457950 0.475660 -0.157609
N2    N     N_2   0.049670 0.542050 0.524340 -0.157609
O1    O     O_R   0.389250 0.738570 0.505970 -0.612240
O2    O     O_2   0.758219 0.839053 0.279578 -0.313732
O3    O     O_3   0.568294 0.986646 0.172077 -0.582045
O4    O     O_2   0.241781 0.160951 0.720419 -0.313726
O5    O     O_2   0.554292 0.159434 0.685730 -0.327912
O6    O     O_3   0.431697 0.013353 0.827922 -0.582044
O7    O     O_R   0.610750 0.261430 0.494030 -0.612240
O8    O     O_R   0.678390 0.711620 0.490370 -0.619694
O9    O     O_R   0.321610 0.288380 0.509630 -0.619694
O10   O     O_R   0.355420 0.513510 0.639950 -0.608718
O11   O     O_R   0.644580 0.486490 0.360050 -0.608718
O12   O     O_R   0.644560 0.486560 0.624350 -0.612185
O13   O     O_R   0.355440 0.513440 0.375650 -0.612185
O14   O     O_2   0.445708 0.840565 0.314270 -0.327905
S1    S     S_3+6 0.583488 0.831291 0.240246 -0.011188
S2    S     S_3+6 0.416510 0.168709 0.759754 -0.011189
Zn1   Zn    Zn3+2 0.306940 0.517990 0.510420 1.019285
Zn2   Zn    Zn3+2 0.693060 0.482010 0.489580 1.019285

loop_
_geom_bond_atom_site_label_1
_geom_bond_atom_site_label_2
_ccdc_geom_bond_type
O3    S1    S    
C14   H6    S    
C2    H5    S    
O2    S1    D    
C8    C15   A    
C5    C7    A    
C9    C10   A    
O7    Zn2   S    
C2    C4    A    
N1    N2    D    
C1    O1    A    
C3    C5    A    
C1    O8    A    
O1    Zn1   S    
C21   O13   A    
O14   S1    D    
O9    Zn1   S    
H2    N2    S    
H3    O3    S    
N1    Zn2   S    
O12   Zn2   S    
C9    C11   A    
H4    O6    S    
C1    C18   S    
C20   O12   A    
O11   Zn2   S    
O13   Zn1   S    
O10   Zn1   S    
C4    C6    A    
C15   H7    S    
C12   O7    A    
C7    C9    A    
C17   H9    S    
C14   C16   A    
C3    C21   S    
C18   H10   S    
C16   H8    S    
C4    C20   S    
O8    Zn2   S    
C12   C19   S    
C11   C22   A    
C8    C10   A    
H12   N1    S    
C19   H11   S    
C13   C16   A    
C15   C17   A    
C2    C13   A    
C22   H1    S    
C18   C19   D    
C3    C22   A    
C6    C8    A    
N2    Zn1   S    
O5    S2    D    
C6    S2    S    
O4    S2    D    
C10   C13   A    
C7    C14   A    
C5    S1    S    
O6    S2    S    
C12   O9    A    
C21   O11   A    
C20   O10   A    
C11   C17   A    
