data_mof_unit_32121.cif
_audit_creation_date              2012-12-10T16:37:24-0500
_audit_creation_method            fapswitch 2.2
_symmetry_space_group_name_H-M    P1
_symmetry_Int_Tables_number       1
_space_group_crystal_system       triclinic
_cell_length_a                    16.735144
_cell_length_b                    16.844784
_cell_length_c                    16.85596
_cell_angle_alpha                 65.539941
_cell_angle_beta                  65.708544
_cell_angle_gamma                 65.265224
_cell_volume                      3761.92363338

loop_
_atom_site_label
_atom_site_type_symbol
_atom_type_description
_atom_site_fract_x
_atom_site_fract_y
_atom_site_fract_z
_atom_type_partial_charge
C1    C     C_R   0.453548 0.937265 0.693105 0.402024
C2    C     C_R   0.412311 0.679756 0.018564 0.408460
C3    C     C_R   0.886004 0.594049 0.377795 0.401708
C4    C     C_R   0.066478 0.400141 0.651945 0.304260
C5    C     C_R   0.984376 0.174771 0.428694 0.985939
C6    C     C_R   0.016702 0.824761 0.570662 0.976870
C7    C     C_R   0.179693 0.438512 0.960718 0.928426
C8    C     C_R   0.820357 0.561607 0.039263 0.888728
C9    C     C_R   0.428130 0.986281 0.174007 0.968322
C10   C     C_R   0.572102 0.012825 0.826385 0.987436
C11   C     C_R   0.561930 0.820264 0.038757 0.906888
C12   C     C_R   0.545767 0.062398 0.307614 0.396852
C13   C     C_R   0.438145 0.179758 0.961242 0.954107
C14   C     C_R   0.039007 0.561367 0.820423 0.944357
C15   C     C_R   0.959087 0.439191 0.179315 0.928229
C16   C     C_R   0.820298 0.039586 0.561457 0.978637
C17   C     C_R   0.179667 0.960075 0.438709 0.982129
C18   C     C_R   0.510546 0.934947 0.737082 0.296492
C19   C     C_R   0.488841 0.064463 0.263724 0.299072
C20   C     C_R   0.938258 0.736954 0.507331 0.301027
C21   C     C_R   0.078610 0.266288 0.472643 0.414930
C22   C     C_R   0.707816 0.444095 0.068836 0.303645
C23   C     C_R   0.940178 0.693795 0.450212 0.383407
C24   C     C_R   0.292307 0.555135 0.934138 0.433172
C25   C     C_R   0.320286 0.893404 0.548011 0.286747
C26   C     C_R   0.679314 0.105884 0.452659 0.286687
C27   C     C_R   0.555253 0.290359 0.938723 0.316361
C28   C     C_R   0.444225 0.709413 0.062985 0.326897
C29   C     C_R   0.890436 0.551050 0.318269 0.296421
C30   C     C_R   0.084060 0.445334 0.694666 0.430822
C31   C     C_R   0.548272 0.008024 0.546960 -0.161265
C32   C     C_R   0.451409 0.991158 0.453746 -0.156844
C33   C     C_R   0.005588 0.545888 0.548203 -0.102366
C34   C     C_R   0.097395 0.314508 0.511319 0.319537
C35   C     C_R   0.989913 0.455315 0.448423 -0.102627
C36   C     C_R   0.539317 0.539220 0.030912 -0.141314
C37   C     C_R   0.460295 0.459250 0.973248 -0.121231
C38   C     C_R   0.565248 0.049710 0.451810 0.036950
C39   C     C_R   0.434303 0.949616 0.548926 0.042394
C40   C     C_R   0.038078 0.449325 0.571055 -0.067068
C41   C     C_R   0.947495 0.550619 0.432482 0.040129
C42   C     C_R   0.452390 0.588323 0.013721 -0.014292
C43   C     C_R   0.547352 0.410185 0.990120 0.047473
C44   C     C_R   0.520329 0.036564 0.404079 0.044330
C45   C     C_R   0.679783 0.411710 0.023511 0.514847
C46   C     C_R   0.479209 0.962800 0.596647 0.045733
C47   C     C_R   0.410749 0.546072 0.989131 -0.048327
C48   C     C_R   0.588742 0.451874 0.015797 -0.005090
C49   C     C_R   0.041072 0.405478 0.512426 -0.068874
C50   C     C_R   0.963432 0.597328 0.476435 0.042317
C51   C     C_R   0.572990 0.986531 0.689311 0.023881
C52   C     C_R   0.426946 0.012360 0.311360 0.027594
C53   C     C_R   0.989697 0.687685 0.570661 0.018273
C54   C     C_R   0.013090 0.312932 0.423316 -0.017677
C55   C     C_R   0.670195 0.537252 0.065507 -0.073867
C56   C     C_R   0.319723 0.586225 0.980976 0.381310
C57   C     C_R   0.329428 0.462200 0.937554 -0.015030
C58   C     C_R   0.331606 0.941192 0.455147 0.040130
C59   C     C_R   0.668301 0.057791 0.545435 0.041464
C60   C     C_R   0.462285 0.328038 0.940282 0.051536
C61   C     C_R   0.537229 0.671229 0.062671 -0.043404
C62   C     C_R   0.937867 0.457462 0.330200 0.037774
C63   C     C_R   0.053405 0.541784 0.671407 -0.004136
C64   C     C_R   0.611431 0.012009 0.733284 -0.072614
C65   C     C_R   0.388835 0.986647 0.267281 -0.065561
C66   C     C_R   0.016833 0.730707 0.608938 -0.072798
C67   C     C_R   0.380705 0.887937 0.590827 0.408692
C68   C     C_R   0.983107 0.268870 0.389122 -0.070010
C69   C     C_R   0.719894 0.588686 0.066336 -0.096633
C70   C     C_R   0.280149 0.411412 0.934743 -0.066138
C71   C     C_R   0.278460 0.943897 0.405597 -0.036232
C72   C     C_R   0.721615 0.054988 0.594882 -0.040191
C73   C     C_R   0.411082 0.279718 0.936301 -0.072128
C74   C     C_R   0.588904 0.720229 0.064780 -0.118116
C75   C     C_R   0.939725 0.407610 0.278123 -0.047371
C76   C     C_R   0.055573 0.591965 0.721686 -0.058033
C77   C     C_R   0.685464 0.044575 0.685832 -0.336049
C78   C     C_R   0.618704 0.111503 0.409983 0.410144
C79   C     C_R   0.314950 0.953810 0.314715 -0.350210
C80   C     C_R   0.050290 0.682064 0.682565 -0.316181
C81   C     C_R   0.947448 0.316839 0.316571 -0.319015
C82   C     C_R   0.676199 0.676034 0.073219 -0.251142
C83   C     C_R   0.324023 0.324256 0.927297 -0.312640
C84   C     C_R   0.595915 0.017864 0.593762 -0.094880
C85   C     C_R   0.403975 0.981086 0.406895 -0.094027
C86   C     C_R   0.016920 0.591471 0.596175 -0.100855
C87   C     C_R   0.979824 0.408827 0.401173 -0.104847
C88   C     C_R   0.582044 0.582425 0.053308 -0.028198
C89   C     C_R   0.587385 0.319193 0.984267 0.364459
C90   C     C_R   0.417432 0.416517 0.950360 -0.106188
H1    H     H_    0.719394 0.056091 0.721086 0.205392
H2    H     H_    0.198814 0.322830 0.532293 0.356093
H3    H     H_    0.805874 0.335940 0.982655 0.369188
H4    H     H_    0.264675 0.627144 0.088277 0.350108
H5    H     H_    0.380683 0.763967 0.669529 0.350198
H6    H     H_    0.618307 0.235702 0.331738 0.350917
H7    H     H_    0.657261 0.192953 0.033357 0.335066
H8    H     H_    0.333307 0.803722 0.977699 0.369810
H9    H     H_    0.762805 0.676609 0.374649 0.343297
H10   H     H_    0.025452 0.296401 0.683291 0.353963
H11   H     H_    0.479959 0.831965 0.839788 0.354770
H12   H     H_    0.281181 0.942097 0.279449 0.204012
H13   H     H_    0.517136 0.168901 0.162239 0.353986
H14   H     H_    0.835052 0.841366 0.475031 0.349320
H15   H     H_    0.168619 0.150995 0.514762 0.384055
H16   H     H_    0.764905 0.408132 0.162770 0.336464
H17   H     H_    0.216273 0.677546 0.885894 0.370073
H18   H     H_    0.241019 0.834428 0.658681 0.353175
H19   H     H_    0.758206 0.165309 0.341966 0.357898
H20   H     H_    0.679171 0.222087 0.883122 0.341289
H21   H     H_    0.405472 0.765665 0.157643 0.335641
H22   H     H_    0.832544 0.662668 0.237825 0.347350
H23   H     H_    0.064431 0.716573 0.715045 0.206388
H24   H     H_    0.160602 0.331190 0.757858 0.379208
H25   H     H_    0.933971 0.281761 0.284173 0.206141
H26   H     H_    0.714627 0.713986 0.073836 0.192196
H27   H     H_    0.285937 0.286707 0.925430 0.198785
H28   H     H_    0.351622 0.930128 0.805191 0.344898
H29   H     H_    0.647168 0.070682 0.195184 0.343402
H30   H     H_    0.934429 0.806182 0.348828 0.341639
O1    O     O_R   0.982940 0.138950 0.510160 -0.604565
O2    O     O_R   0.982940 0.510160 0.138950 -0.585874
O3    O     O_R   0.861050 0.017060 0.489840 -0.560643
O4    O     O_R   0.138950 0.982940 0.510160 -0.568383
O5    O     O_R   0.867700 0.025880 0.612340 -0.654286
O6    O     O_R   0.132300 0.974120 0.387660 -0.652481
O7    O     O_R   0.025880 0.612340 0.867700 -0.623117
O8    O     O_R   0.974120 0.387660 0.132300 -0.631696
O9    O     O_R   0.612340 0.867700 0.025880 -0.641186
O10   O     O_R   0.387660 0.132300 0.974120 -0.646923
O11   O     O_R   0.387660 0.974120 0.132300 -0.643554
O12   O     O_R   0.017060 0.861050 0.489840 -0.591813
O13   O     O_R   0.612340 0.025880 0.867700 -0.634027
O14   O     O_R   0.132300 0.387660 0.974120 -0.621116
O15   O     O_R   0.867700 0.612340 0.025880 -0.618313
O16   O     O_R   0.974120 0.132300 0.387660 -0.633398
O17   O     O_R   0.025880 0.867700 0.612340 -0.635029
O18   O     O_3   0.367610 0.925926 0.743222 -0.702917
O19   O     O_3   0.631441 0.074332 0.257318 -0.702345
O20   O     O_3   0.929093 0.744632 0.364616 -0.713279
O21   O     O_3   0.175796 0.274020 0.539555 -0.732126
O22   O     O_3   0.744530 0.350194 0.976421 -0.704728
O23   O     O_R   0.138950 0.510160 0.982940 -0.572887
O24   O     O_3   0.250212 0.642585 0.031189 -0.708087
O25   O     O_3   0.398762 0.814741 0.665637 -0.707226
O26   O     O_3   0.600261 0.184970 0.335486 -0.699941
O27   O     O_3   0.646273 0.254885 0.035122 -0.700927
O28   O     O_3   0.347865 0.741951 0.973329 -0.710419
O29   O     O_3   0.814384 0.671292 0.393002 -0.714109
O30   O     O_3   0.071547 0.309092 0.695213 -0.731335
O31   O     O_3   0.509702 0.878475 0.824568 -0.758950
O32   O     O_3   0.489069 0.121360 0.176530 -0.765099
O33   O     O_3   0.880604 0.824528 0.507033 -0.752817
O34   O     O_R   0.861050 0.489840 0.017060 -0.599255
O35   O     O_3   0.131921 0.177841 0.471363 -0.752969
O36   O     O_3   0.769078 0.381898 0.117736 -0.738322
O37   O     O_3   0.230361 0.614495 0.885019 -0.736204
O38   O     O_3   0.258455 0.843467 0.592455 -0.765675
O39   O     O_3   0.740976 0.156009 0.408221 -0.766843
O40   O     O_3   0.615165 0.230588 0.887970 -0.743469
O41   O     O_3   0.380655 0.770405 0.111034 -0.746508
O42   O     O_3   0.840759 0.596408 0.255752 -0.775375
O43   O     O_3   0.135034 0.396369 0.756228 -0.750865
O44   O     O_R   0.510160 0.982940 0.138950 -0.595420
O45   O     O_R   0.489840 0.017060 0.861050 -0.590228
O46   O     O_R   0.489840 0.861050 0.017060 -0.563068
O47   O     O_R   0.510160 0.138950 0.982940 -0.550350
O48   O     O_R   0.017060 0.489840 0.861050 -0.577488
Zn1   Zn    Zn3+2 0.004880 0.004880 0.583590 1.022595
Zn2   Zn    Zn3+2 0.995120 0.995120 0.416410 1.029181
Zn3   Zn    Zn3+2 0.004880 0.583590 0.004880 1.053690
Zn4   Zn    Zn3+2 0.995120 0.416410 0.995120 1.049422
Zn5   Zn    Zn3+2 0.583590 0.004880 0.004880 1.018568
Zn6   Zn    Zn3+2 0.416410 0.995120 0.995120 1.032907

loop_
_geom_bond_atom_site_label_1
_geom_bond_atom_site_label_2
_ccdc_geom_bond_type
C5    O16   A    
O1    Zn1   S    
C34   O21   S    
C65   C79   A    
C15   O2    A    
C64   C77   A    
C36   C42   A    
C4    O30   S    
H5    O25   S    
C10   O13   A    
C16   C72   S    
C7    C70   S    
C71   C79   A    
H20   O40   S    
C22   O36   S    
O10   Zn6   S    
C38   C44   A    
H9    O29   S    
C8    C69   S    
C43   C89   A    
C37   C90   A    
C68   C81   A    
C52   C85   A    
C16   O3    A    
C27   C60   A    
H2    O21   S    
C54   C87   A    
C17   O6    A    
C13   O47   A    
H18   O38   S    
C63   C76   A    
C2    O28   S    
C40   C49   A    
C5    O1    A    
C60   C73   A    
C32   C39   A    
C55   C88   A    
C3    C29   A    
C69   C82   A    
C33   C50   A    
C35   C87   A    
C19   C52   A    
C3    C41   A    
O4    Zn1   S    
C4    C40   A    
C24   C57   A    
C14   O7    A    
C31   C46   A    
H21   O41   S    
C35   C49   A    
C11   O46   A    
C13   O10   A    
C79   H12   S    
C36   C48   A    
C53   C86   A    
H30   O20   S    
O15   Zn3   S    
C57   C70   A    
C37   C47   A    
C8    O34   A    
C43   C48   A    
O17   Zn1   S    
C59   C72   A    
O47   Zn5   S    
C28   C61   A    
H3    O22   S    
O14   Zn4   S    
C30   C63   A    
C8    O15   A    
H7    O27   S    
O9    Zn5   S    
O12   Zn2   S    
C30   O43   S    
C74   C82   A    
C5    C68   S    
C35   C41   A    
C11   O9    A    
C7    O23   A    
H17   O37   S    
C28   O41   S    
C9    O11   A    
C21   O35   S    
O46   Zn6   S    
C33   C40   A    
C3    O29   S    
C57   C90   A    
C23   O20   S    
O44   Zn5   S    
C59   C84   A    
C7    O14   A    
C6    O12   A    
C20   O33   S    
C78   O26   S    
C24   O37   S    
C75   C81   A    
C23   C50   A    
C21   C34   A    
C38   C78   A    
H10   O30   S    
O45   Zn6   S    
H11   O31   S    
C36   C88   A    
C31   C84   A    
C25   C67   A    
C14   C76   S    
C37   C43   A    
C9    O44   A    
C33   C86   A    
C67   O25   S    
C72   C77   A    
O6    Zn2   S    
C61   C88   A    
C17   O4    A    
C20   C23   A    
O48   Zn4   S    
C81   H25   S    
C19   O32   S    
C1    C18   A    
C12   O19   S    
O34   Zn4   S    
C26   O39   S    
C26   C78   A    
C70   C83   A    
C55   C69   A    
H13   O32   S    
C39   C46   A    
H15   O35   S    
O16   Zn2   S    
O8    Zn4   S    
H16   O36   S    
H22   O42   S    
C63   C86   A    
C45   O22   S    
H14   O33   S    
C62   C75   A    
C25   C58   A    
C14   O48   A    
C18   O31   S    
H19   O39   S    
C58   C85   A    
C41   C50   A    
O5    Zn1   S    
C15   C75   S    
C16   O5    A    
C45   C48   A    
C89   O27   S    
C29   C62   A    
C77   H1    S    
C34   C49   A    
C39   C67   A    
C29   O42   S    
C10   C64   S    
C51   C64   A    
C76   C80   A    
C13   C73   S    
C20   C53   A    
C11   C74   S    
C17   C71   S    
C22   C55   A    
C60   C90   A    
C18   C51   A    
C24   C56   A    
C66   C80   A    
C62   C87   A    
O11   Zn6   S    
C31   C38   A    
C15   O8    A    
H29   O19   S    
C83   H27   S    
C6    O17   A    
C27   O40   S    
O23   Zn3   S    
C12   C44   A    
C53   C66   A    
H24   O43   S    
C21   C54   A    
H8    O28   S    
C2    C42   A    
C10   O45   A    
C32   C85   A    
C12   C19   A    
H4    O24   S    
C27   C89   A    
C42   C47   A    
C1    C46   A    
C9    C65   S    
O3    Zn2   S    
C58   C71   A    
C1    O18   S    
C82   H26   S    
C56   O24   S    
C6    C66   S    
C22   C45   A    
C54   C68   A    
C80   H23   S    
C32   C44   A    
O2    Zn3   S    
C25   O38   S    
C47   C56   A    
C26   C59   A    
C2    C28   A    
H6    O26   S    
H28   O18   S    
O7    Zn3   S    
C51   C84   A    
C73   C83   A    
C4    C30   A    
C52   C65   A    
C61   C74   A    
O13   Zn5   S    
