data_mof_unit_61899.cif
_audit_creation_date              2013-03-05T15:45:01-0500
_audit_creation_method            fapswitch 2.2
_symmetry_space_group_name_H-M    P1
_symmetry_Int_Tables_number       1
_space_group_crystal_system       triclinic
_cell_length_a                    21.775738
_cell_length_b                    21.737804
_cell_length_c                    22.419892
_cell_angle_alpha                 60.459366
_cell_angle_beta                  120.708642
_cell_angle_gamma                 91.425122
_cell_volume                      7564.26324501

loop_
_atom_site_label
_atom_site_type_symbol
_atom_site_description
_atom_site_fract_x
_atom_site_fract_y
_atom_site_fract_z
_atom_type_partial_charge
O1    O     O_R   0.590210 0.447820 0.500000 -0.603457
O2    O     O_R   0.590150 0.552170 0.500020 -0.520013
C1    C     C_R   0.620854 0.498881 0.503972 0.910944
O3    O     O_R   0.439580 0.508290 0.379070 -0.539149
O4    O     O_R   0.439510 0.612640 0.379090 -0.568175
C2    C     C_R   0.421165 0.579995 0.339875 0.876234
Cu1   Cu    Cu3+1 0.500040 0.438210 0.499990 1.087691
Cu2   Cu    Cu3+1 0.499960 0.561790 0.500010 1.072762
O5    O     O_R   0.409850 0.447830 0.499980 -0.583911
O6    O     O_R   0.409790 0.552180 0.500000 -0.586944
O7    O     O_R   0.560490 0.387360 0.620910 -0.552267
O8    O     O_R   0.560420 0.491710 0.620930 -0.587992
C3    C     C_R   0.378696 0.501496 0.495388 0.818131
C4    C     C_R   0.577716 0.420091 0.660145 0.861897
C5    C     C_3   0.278068 0.721709 0.971953 -0.255778
C6    C     C_3   0.325786 0.748975 0.029448 -0.319593
H1    H     H_    0.384842 0.748510 0.053369 0.197222
H2    H     H_    0.297403 0.697196 0.948924 0.178753
C7    C     C_1   0.377397 0.624690 0.250254 -0.043119
C8    C     C_1   0.126456 0.875208 0.749783 -0.131730
C9    C     C_3   0.248395 0.682883 0.026438 0.444368
C10   C     C_3   0.295483 0.708916 0.083388 0.064298
C11   C     C_3   0.180418 0.752226 0.970555 -0.333008
C12   C     C_3   0.211036 0.792235 0.916748 -0.042909
C13   C     C_3   0.229043 0.778775 0.027344 0.347085
C14   C     C_3   0.258162 0.818631 0.973470 0.338263
C15   C     C_1   0.340501 0.662573 0.174956 0.124560
C16   C     C_1   0.164757 0.837715 0.825124 0.075524
H3    H     H_    0.121402 0.752891 0.947241 0.187561
C17   C     C_R   0.760321 0.368604 0.636501 0.387021
C18   C     C_R   0.810020 0.300352 0.676274 -0.230878
H4    H     H_    0.817238 0.251069 0.730239 0.209815
C19   C     C_R   0.851228 0.294506 0.647575 -0.241258
H5    H     H_    0.885208 0.240015 0.676142 0.207664
C20   C     C_R   0.848591 0.357714 0.582660 0.394239
C21   C     C_R   0.804388 0.428802 0.547340 -0.092076
C22   C     C_R   0.751145 0.432202 0.564762 -0.125049
C23   C     C_R   0.690822 0.498672 0.509382 -0.126615
C24   C     C_R   0.693270 0.564599 0.451327 0.334633
C25   C     C_R   0.756278 0.564213 0.448569 0.223070
C26   C     C_R   0.811624 0.496450 0.496115 -0.202078
C27   C     C_3   0.716728 0.197673 0.027475 -0.201658
C28   C     C_3   0.675669 0.282285 0.971619 -0.227128
H6    H     H_    0.617734 0.307675 0.947509 0.159587
H7    H     H_    0.693684 0.152087 0.050242 0.167957
H8    H     H_    0.749106 0.329043 0.052515 0.154798
C29   C     C_1   0.620716 0.375845 0.749986 -0.048837
C30   C     C_1   0.873250 0.127262 0.249880 -0.063464
C31   C     C_3   0.744480 0.210829 0.972636 0.464855
C32   C     C_3   0.703734 0.293716 0.917248 0.132074
C33   C     C_3   0.816355 0.222074 0.028583 -0.185333
C34   C     C_3   0.787851 0.210860 0.082591 0.097908
C35   C     C_3   0.774850 0.306535 0.972758 -0.185345
C36   C     C_3   0.747360 0.294644 0.028320 -0.146882
C37   C     C_1   0.657743 0.338788 0.825427 0.037109
C38   C     C_1   0.834637 0.165143 0.174406 0.006631
H9    H     H_    0.798038 0.351793 0.949553 0.176135
H10   H     H_    0.873979 0.196261 0.052244 0.173146
H11   H     H_    0.347526 0.536019 0.576573 0.156131
C39   C     C_R   0.246483 0.470691 0.382961 0.238440
C40   C     C_R   0.197649 0.432810 0.353900 0.311184
C41   C     C_R   0.146820 0.414609 0.375263 -0.234300
H12   H     H_    0.108798 0.386358 0.352609 0.191230
C42   C     C_R   0.142275 0.434930 0.422892 -0.238847
H13   H     H_    0.100378 0.421474 0.435626 0.141229
C43   C     C_R   0.192588 0.469235 0.455989 0.047763
C44   C     C_R   0.250496 0.480310 0.443346 -0.036120
C45   C     C_R   0.308672 0.502373 0.490189 -0.042997
C46   C     C_R   0.303616 0.519695 0.540313 -0.203356
H14   H     H_    0.239463 0.531233 0.582873 0.154091
C47   C     C_R   0.242819 0.515561 0.545409 -0.142510
C48   C     C_R   0.186561 0.492179 0.502198 -0.038663
O9    O     O_R   0.052170 0.909710 0.500000 -0.579762
O10   O     O_R   0.947780 0.909820 0.499990 -0.573811
C49   C     C_R   0.996573 0.883766 0.494734 0.862404
O11   O     O_R   0.112650 0.939420 0.620930 -0.585928
O12   O     O_R   0.008260 0.939530 0.620910 -0.573298
C50   C     C_R   0.080551 0.919904 0.660139 0.792163
Cu3   Cu    Cu3+1 0.061810 0.999860 0.500010 1.025640
Cu4   Cu    Cu3+1 0.938190 0.999990 0.499990 1.026054
O13   O     O_R   0.052220 0.090030 0.500010 -0.596328
O14   O     O_R   0.947830 0.090140 0.500000 -0.571895
O15   O     O_R   0.991740 0.060320 0.379090 -0.537344
O16   O     O_R   0.887350 0.060430 0.379070 -0.581758
C51   C     C_R   0.002110 0.117406 0.502489 0.758603
C52   C     C_R   0.919416 0.081565 0.339788 0.880728
O17   O     O_R   0.964960 0.625150 0.430050 -0.526852
O18   O     O_R   0.034940 0.555150 0.570020 -0.603831
C53   C     C_R   0.999924 0.618755 0.500427 0.817774
O19   O     O_R   0.874830 0.535020 0.430000 -0.520649
O20   O     O_R   0.944810 0.465010 0.569970 -0.591366
C54   C     C_R   0.880360 0.498531 0.499016 0.909078
Cu5   Cu    Cu3+1 0.958570 0.541460 0.417120 1.089714
Cu6   Cu    Cu3+1 0.041430 0.458560 0.582880 1.013614
O21   O     O_R   0.965060 0.444870 0.429980 -0.595761
O22   O     O_R   0.035040 0.374860 0.569950 -0.555997
O23   O     O_R   0.055190 0.535000 0.430030 -0.551295
O24   O     O_R   0.125170 0.465000 0.570000 -0.618907
C55   C     C_R   0.004785 0.381316 0.499828 0.835794
C56   C     C_R   0.119288 0.497406 0.500845 0.799317
H15   H     H_    0.952681 0.772740 0.567419 0.182770
C57   C     C_R   0.016128 0.870009 0.377264 0.381552
C58   C     C_R   0.052768 0.854153 0.347922 -0.273767
H16   H     H_    0.056915 0.898467 0.299740 0.206945
C59   C     C_R   0.082539 0.781433 0.378327 -0.173747
H17   H     H_    0.113253 0.770104 0.357343 0.194011
C60   C     C_R   0.072219 0.723267 0.434435 0.437075
C61   C     C_R   0.029816 0.738475 0.460094 -0.102463
C62   C     C_R   0.012328 0.810648 0.441471 -0.047738
C63   C     C_R   0.990935 0.820353 0.487163 -0.140897
C64   C     C_R   0.970736 0.764833 0.534021 -0.161400
C65   C     C_R   0.972103 0.699273 0.537878 0.440238
C66   C     C_R   0.002739 0.685151 0.501643 -0.188842
H18   H     H_    0.892158 0.243631 0.396931 0.153037
C67   C     C_R   0.137520 0.122533 0.630462 -0.140046
H19   H     H_    0.137032 0.068898 0.639522 0.152856
C68   C     C_R   0.203971 0.127486 0.686105 -0.073650
H20   H     H_    0.252853 0.078950 0.735264 0.172907
C69   C     C_R   0.207884 0.194904 0.677948 -0.114576
H21   H     H_    0.260071 0.198903 0.720127 0.150653
C70   C     C_R   0.144684 0.257219 0.615848 -0.167734
H22   H     H_    0.151036 0.308690 0.610830 0.139243
C71   C     C_R   0.075820 0.252951 0.560605 0.089292
C72   C     C_R   0.073298 0.185514 0.565377 0.094507
C73   C     C_R   0.006270 0.182784 0.505594 -0.079736
C74   C     C_R   0.943114 0.245234 0.443579 -0.191077
H23   H     H_    0.894677 0.357649 0.392077 0.192162
C75   C     C_R   0.944985 0.310495 0.440195 -0.089138
C76   C     C_R   0.009729 0.314434 0.499610 -0.079897
N1    N     N_R   0.881483 0.347321 0.545588 0.102724
O25   O     O_R   0.844736 0.386106 0.464491 -0.397182
O26   O     O_R   0.936211 0.287491 0.589765 -0.367812
N2    N     N_R   0.764765 0.632819 0.398936 0.099502
O27   O     O_R   0.745763 0.654349 0.324816 -0.321072
O28   O     O_R   0.778938 0.679064 0.421589 -0.325935
O29   O     O_3   0.741975 0.167993 0.941557 -0.684353
H24   H     H_    0.773439 0.117028 0.991600 0.334009
N3    N     N_R   0.277544 0.513146 0.338101 0.115947
O30   O     O_R   0.268573 0.582645 0.312411 -0.375720
O31   O     O_R   0.301086 0.488296 0.308866 -0.271542
N4    N     N_R   0.196930 0.414794 0.300123 0.166721
O32   O     O_R   0.256269 0.368812 0.327581 -0.286299
O33   O     O_R   0.133462 0.430242 0.232827 -0.315133
N5    N     N_R   0.972690 0.945288 0.331713 0.110767
O34   O     O_R   0.904727 0.958809 0.311825 -0.385962
O35   O     O_R   0.992633 0.999649 0.292643 -0.368180
O36   O     O_3   0.108748 0.652614 0.466896 -0.731766
H25   H     H_    0.127413 0.621780 0.526661 0.299076
N6    N     N_R   0.263858 0.893482 0.946335 0.139355
O37   O     O_R   0.305828 0.908023 0.001719 -0.303693
O38   O     O_R   0.227497 0.945923 0.867177 -0.368580
O39   O     O_3   0.943831 0.650890 0.578593 -0.683012
H26   H     H_    0.934703 0.613198 0.565169 0.339310
O40   O     O_3   0.205102 0.808705 0.057351 -0.656190
H27   H     H_    0.161106 0.852598 0.006847 0.344493
O41   O     O_3   0.244633 0.610276 0.056275 -0.657723
H28   H     H_    0.210354 0.610142 0.005675 0.334716
O42   O     O_3   0.633072 0.628177 0.398246 -0.697878
H29   H     H_    0.637942 0.667674 0.354622 0.375868
N7    N     N_R   0.728869 0.374071 0.677065 0.094970
O43   O     O_R   0.727540 0.430874 0.682502 -0.382100
O44   O     O_R   0.720883 0.315025 0.726701 -0.356536

loop_
_geom_bond_atom_site_label_1
_geom_bond_atom_site_label_2
_geom_bond_distance
_ccdc_geom_bond_type
C5    H2    1.110079 S    
Cu5   Cu6   2.650168 S    
C51   C73   1.455166 S    
O36   H25   0.990747 S    
O11   Cu3   1.948361 S    
Cu4   O16   1.948360 S    
C75   C76   1.399214 A    
N2    O27   1.300834 A    
C71   C72   1.418010 A    
C35   C36   1.553486 S    
Cu1   O7    1.943402 S    
C2    C7    1.433445 S    
C59   C60   1.392047 A    
C22   C23   1.419314 A    
C11   H3    1.110104 S    
C21   C22   1.413320 A    
O16   C52   1.299002 A    
N4    O33   1.301163 A    
C17   C18   1.399031 A    
H18   C74   1.083985 S    
O7    C4    1.299070 A    
O21   C55   1.285214 A    
Cu6   O24   1.978230 S    
C5    C6    1.564383 S    
O22   C55   1.286274 A    
C61   C62   1.414954 A    
Cu1   O5    1.980093 S    
C46   C47   1.382833 A    
O5    C3    1.296668 A    
C63   C64   1.396062 A    
C41   C42   1.385805 A    
C43   C48   1.411002 A    
C20   C21   1.424911 A    
C39   C44   1.428833 A    
C45   C46   1.400892 A    
C31   C33   1.536524 S    
C10   C13   1.532686 S    
C74   C75   1.383491 A    
C60   C61   1.427596 A    
C18   C19   1.382507 A    
H14   C47   1.083058 S    
C7    C15   1.204301 T    
C43   C44   1.418114 A    
Cu5   O21   1.971762 S    
O10   Cu4   1.976347 S    
C9    C10   1.532443 S    
C71   C76   1.418065 A    
O9    C49   1.297462 A    
N6    O38   1.300310 A    
C21   C26   1.419226 A    
C40   C41   1.394209 A    
C57   N5    1.434562 S    
O3    Cu1   1.945649 S    
C65   C66   1.417359 A    
C34   C36   1.540752 S    
O18   Cu6   1.971760 S    
C69   C70   1.394054 A    
C6    C14   1.544580 S    
C23   C24   1.406581 A    
C53   C66   1.456125 S    
C32   C35   1.541689 S    
O10   C49   1.298918 A    
C55   C76   1.463097 S    
C33   C34   1.542683 S    
Cu1   Cu2   2.686625 S    
C1    C23   1.465334 S    
Cu4   O14   1.965777 S    
C62   C63   1.419989 A    
O20   C54   1.287957 A    
Cu3   O13   1.976349 S    
C35   H9    1.110133 S    
C6    H1    1.110136 S    
C8    C16   1.204356 T    
C67   C68   1.393812 A    
C13   C14   1.527937 S    
O12   C50   1.297298 A    
C44   C45   1.430202 A    
C17   C22   1.425127 A    
C39   C40   1.418173 A    
O1    C1    1.298130 A    
C27   H7    1.110126 S    
C42   C43   1.407739 A    
C61   C66   1.421698 A    
C17   N7    1.434254 S    
C28   H6    1.110101 S    
C41   H12   1.083226 S    
C60   O36   1.374245 S    
C28   C36   1.553805 S    
O19   C54   1.281441 A    
C18   H4    1.082713 S    
Cu2   O8    1.945651 S    
H8    C36   1.110118 S    
C65   O39   1.383304 S    
C19   H5    1.082709 S    
O40   H27   0.991214 S    
C58   C59   1.385932 A    
C33   H10   1.110161 S    
O18   C53   1.279691 A    
Cu6   O22   1.969804 S    
C20   N1    1.433892 S    
C70   H22   1.080602 S    
N3    O31   1.300089 A    
H11   C46   1.083852 S    
N5    O35   1.301762 A    
C25   C26   1.409412 A    
C31   O29   1.397859 S    
O8    C4    1.296087 A    
O24   C56   1.281095 A    
C10   C15   1.464486 S    
C9    C11   1.545174 S    
C24   O42   1.385502 S    
C73   C74   1.395021 A    
C30   C52   1.437378 S    
O3    C2    1.297356 A    
C27   C28   1.554863 S    
H23   C75   1.083043 S    
Cu5   O23   1.970491 S    
N7    O44   1.301606 A    
C24   C25   1.405026 A    
O23   C56   1.284807 A    
O19   Cu5   1.978230 S    
C29   C37   1.206537 T    
C48   C56   1.455784 S    
O12   Cu4   1.940760 S    
C40   N4    1.432914 S    
C30   C38   1.206509 T    
C5    C12   1.551748 S    
C49   C63   1.464596 S    
C6    C10   1.550559 S    
C67   C72   1.414366 A    
C64   C65   1.384685 A    
C13   O40   1.397995 S    
O1    Cu1   1.969325 S    
C14   N6    1.457349 S    
O2    Cu2   1.980093 S    
C12   C16   1.464698 S    
O11   C50   1.298599 A    
O29   H24   0.991235 S    
O9    Cu3   1.965773 S    
O6    C3    1.298751 A    
O4    Cu2   1.943401 S    
C69   H21   1.082502 S    
C28   C32   1.541374 S    
C4    C29   1.437745 S    
H15   C64   1.084323 S    
O14   C51   1.296892 A    
C59   H17   1.083115 S    
C68   H20   1.082555 S    
C32   C37   1.467997 S    
C8    C50   1.432977 S    
N5    O34   1.301478 A    
N1    O26   1.301559 A    
N7    O43   1.301599 A    
O15   C52   1.299079 A    
C68   C69   1.390640 A    
O2    C1    1.293650 A    
C25   N2    1.434023 S    
C47   C48   1.392862 A    
N6    O37   1.300242 A    
C42   H13   1.081603 S    
O20   Cu6   1.970483 S    
Cu3   O15   1.940759 S    
C12   C14   1.535220 S    
O4    C2    1.295573 A    
O17   Cu5   1.969586 S    
C19   C20   1.398572 A    
C9    O41   1.397770 S    
N1    O25   1.301142 A    
O42   H29   0.989109 S    
C11   C13   1.546794 S    
C57   C58   1.400525 A    
C70   C71   1.414479 A    
N3    O30   1.301551 A    
C11   C12   1.553794 S    
Cu3   Cu4   2.691761 S    
C34   C38   1.467681 S    
C5    C9    1.544144 S    
C26   C54   1.465160 S    
O41   H28   0.991180 S    
O39   H26   0.987605 S    
Cu2   O6    1.969327 S    
C31   C32   1.524337 S    
C39   N3    1.438497 S    
C58   H16   1.082685 S    
N2    O28   1.300642 A    
O17   C53   1.284762 A    
C57   C62   1.424359 A    
C33   C35   1.554191 S    
C27   C31   1.536948 S    
N4    O32   1.301057 A    
O13   C51   1.294122 A    
C67   H19   1.081111 S    
C27   C34   1.542842 S    
C72   C73   1.416495 A    
C3    C45   1.468580 S    
