data_mof_unit_48611.cif
_audit_creation_date              2012-12-10T16:50:12-0500
_audit_creation_method            fapswitch 2.2
_symmetry_space_group_name_H-M    P1
_symmetry_Int_Tables_number       1
_space_group_crystal_system       triclinic
_cell_length_a                    7.816669
_cell_length_b                    8.600437
_cell_length_c                    10.666583
_cell_angle_alpha                 92.901164
_cell_angle_beta                  83.572876
_cell_angle_gamma                 93.121336
_cell_volume                      710.799473452

loop_
_atom_site_label
_atom_site_type_symbol
_atom_type_description
_atom_site_fract_x
_atom_site_fract_y
_atom_site_fract_z
_atom_type_partial_charge
C1    C     C_R   0.545460 0.793691 0.491836 0.800859
C2    C     C_R   0.455664 0.205355 0.498586 0.995964
C3    C     C_R   0.501714 0.501450 0.260318 0.840020
C4    C     C_R   0.342390 0.788901 0.912825 -0.021731
C5    C     C_R   0.304261 0.916188 0.996620 -0.161263
C6    C     C_R   0.334339 0.913890 0.121393 -0.187847
C7    C     C_R   0.401239 0.783834 0.164768 -0.177664
C8    C     C_R   0.445063 0.654400 0.082694 0.098079
C9    C     C_1   0.260149 0.792842 0.799762 0.168235
C10   C     C_3   0.794517 0.961324 0.306831 0.148982
C11   C     C_3   0.741119 0.071139 0.212446 -0.885093
C12   C     C_R   0.425874 0.657802 0.952731 0.038278
C13   C     C_1   0.031295 0.351575 0.380852 0.460205
C14   C     C_R   0.494450 0.530622 0.873560 -0.103851
C15   C     C_R   0.566575 0.405442 0.922984 -0.181918
C16   C     C_R   0.570551 0.399389 0.049914 -0.228016
C17   C     C_R   0.507891 0.520590 0.128785 -0.076344
C18   C     C_2   0.571875 0.953676 0.468811 0.327154
C19   C     C_2   0.434696 0.041895 0.494965 -0.518425
C20   C     C_R   0.500599 0.520526 0.739317 0.866036
H1    H     H_    0.616267 0.308840 0.862806 0.163309
H2    H     H_    0.799828 0.189573 0.228000 0.268452
H3    H     H_    0.783271 0.027655 0.114672 0.224268
H4    H     H_    0.599347 0.078866 0.224155 0.238443
H5    H     H_    0.984216 0.618795 0.596187 0.204277
H6    H     H_    0.242302 0.015856 0.966743 0.147942
H7    H     H_    0.300731 0.011552 0.185819 0.155553
H8    H     H_    0.420436 0.787047 0.263169 0.139731
H9    H     H_    0.619769 0.298322 0.086765 0.158036
H10   H     H_    0.304683 0.993587 0.520010 0.175982
H11   H     H_    0.748185 0.840264 0.281692 0.126606
H12   H     H_    0.937408 0.960907 0.296549 0.174362
N1    N     N_2   0.950330 0.457950 0.466250 -0.148679
N2    N     N_2   0.049670 0.542050 0.533750 -0.176994
N3    N     N_1   0.185134 0.802265 0.713412 -0.190399
N4    N     N_1   0.098765 0.262701 0.309286 -0.280787
O1    O     O_R   0.389250 0.738570 0.508280 -0.636337
O2    O     O_R   0.678390 0.711630 0.486650 -0.620315
O3    O     O_R   0.355400 0.513470 0.694050 -0.604536
O4    O     O_R   0.644540 0.486530 0.672420 -0.623548
O5    O     O_R   0.321610 0.288370 0.513350 -0.627943
O6    O     O_R   0.610750 0.261430 0.491720 -0.545322
O7    O     O_R   0.355460 0.513470 0.327580 -0.626512
O8    O     O_R   0.644600 0.486530 0.305950 -0.639813
O9    O     O_3   0.738311 0.013668 0.432172 -0.583650
Zn1   Zn    Zn3+2 0.306930 0.517990 0.514440 0.961154
Zn2   Zn    Zn3+2 0.693070 0.482010 0.485560 0.965061

loop_
_geom_bond_atom_site_label_1
_geom_bond_atom_site_label_2
_ccdc_geom_bond_type
O4    Zn2   S    
O5    Zn1   S    
C13   N1    S    
C6    C7    A    
N2    Zn1   S    
C10   H12   S    
C4    C12   A    
C11   H2    S    
C6    H7    S    
O1    Zn1   S    
O8    Zn2   S    
C1    O1    A    
H5    N2    S    
C8    C12   A    
C10   O9    S    
N1    N2    D    
C4    C9    S    
C7    C8    A    
C8    C17   A    
C3    O7    A    
O2    Zn2   S    
C1    O2    A    
C2    O6    A    
O3    Zn1   S    
N1    Zn2   S    
C11   H3    S    
C12   C14   A    
C3    C17   S    
O6    Zn2   S    
C5    C6    A    
C20   O4    A    
O7    Zn1   S    
C3    O8    A    
C10   C11   S    
C2    O5    A    
C15   C16   A    
C18   O9    S    
C14   C20   S    
C11   H4    S    
C15   H1    S    
C16   H9    S    
C13   N4    T    
C18   C19   D    
C9    N3    T    
C20   O3    A    
C1    C18   S    
C14   C15   A    
C16   C17   A    
C2    C19   S    
C19   H10   S    
C10   H11   S    
C7    H8    S    
C5    H6    S    
C4    C5    A    
