data_mof_unit_61900.cif
_audit_creation_date              2013-03-05T16:38:27-0500
_audit_creation_method            fapswitch 2.2
_symmetry_space_group_name_H-M    P1
_symmetry_Int_Tables_number       1
_space_group_crystal_system       triclinic
_cell_length_a                    25.661701
_cell_length_b                    25.66704
_cell_length_c                    43.041373
_cell_angle_alpha                 90.001925
_cell_angle_beta                  90.013608
_cell_angle_gamma                 89.997272
_cell_volume                      28349.6258481

loop_
_atom_site_label
_atom_site_type_symbol
_atom_site_description
_atom_site_fract_x
_atom_site_fract_y
_atom_site_fract_z
_atom_type_partial_charge
Zn1   Zn    Zn3+2 0.500000 0.061050 0.224040 1.061941
Zn2   Zn    Zn3+2 0.500000 0.938950 0.775960 1.062053
Zn3   Zn    Zn3+2 0.938950 0.500000 0.224040 1.063672
Zn4   Zn    Zn3+2 0.061050 0.500000 0.775960 1.061966
Zn5   Zn    Zn3+2 0.500000 0.938950 0.224040 1.062126
Zn6   Zn    Zn3+2 0.500000 0.061050 0.775960 1.061881
Zn7   Zn    Zn3+2 0.061050 0.500000 0.224040 1.064218
Zn8   Zn    Zn3+2 0.938950 0.500000 0.775960 1.057594
Zn9   Zn    Zn3+2 1.000000 0.561050 0.724040 1.056582
Zn10  Zn    Zn3+2 0.000000 0.438950 0.275960 1.059500
Zn11  Zn    Zn3+2 0.438950 1.000000 0.724040 1.061411
Zn12  Zn    Zn3+2 0.561050 0.000000 0.275960 1.061627
Zn13  Zn    Zn3+2 0.000000 0.438950 0.724040 1.061404
Zn14  Zn    Zn3+2 1.000000 0.561050 0.275960 1.059438
Zn15  Zn    Zn3+2 0.561050 1.000000 0.724040 1.061498
Zn16  Zn    Zn3+2 0.438950 0.000000 0.275960 1.061433
C1    C     C_1   0.171800 0.328282 0.250043 -0.028692
C2    C     C_1   0.828200 0.671718 0.749958 -0.029662
C3    C     C_1   0.671790 0.171732 0.249984 -0.038186
C4    C     C_1   0.328211 0.828268 0.750015 -0.038189
C5    C     C_1   0.828196 0.671716 0.250036 -0.028890
C6    C     C_1   0.171806 0.328287 0.749961 -0.028270
C7    C     C_1   0.328220 0.828260 0.249976 -0.038167
C8    C     C_1   0.671781 0.171739 0.750024 -0.038259
C9    C     C_1   0.171737 0.671777 0.750046 -0.032237
C10   C     C_1   0.828265 0.328221 0.249952 -0.032018
C11   C     C_1   0.671733 0.828223 0.749972 -0.022997
C12   C     C_1   0.328267 0.171777 0.250028 -0.022669
C13   C     C_1   0.828278 0.328210 0.750043 -0.031992
C14   C     C_1   0.171724 0.671788 0.249959 -0.031951
C15   C     C_1   0.328261 0.171773 0.749968 -0.022685
C16   C     C_1   0.671741 0.828230 0.250030 -0.022901
C17   C     C_1   0.361461 0.138561 0.250015 -0.072218
C18   C     C_1   0.638539 0.861439 0.749985 -0.072291
C19   C     C_1   0.861460 0.361435 0.249965 -0.083772
C20   C     C_1   0.138543 0.638563 0.750033 -0.083893
C21   C     C_1   0.638547 0.861445 0.250019 -0.072184
C22   C     C_1   0.361453 0.138556 0.749981 -0.072395
C23   C     C_1   0.138530 0.638574 0.249972 -0.083501
C24   C     C_1   0.861471 0.361425 0.750028 -0.084889
C25   C     C_1   0.361425 0.861463 0.750004 -0.096048
C26   C     C_1   0.638576 0.138536 0.249996 -0.095995
C27   C     C_1   0.861419 0.638525 0.749971 -0.083257
C28   C     C_1   0.138581 0.361475 0.250028 -0.082595
C29   C     C_1   0.638566 0.138544 0.750012 -0.096054
C30   C     C_1   0.361434 0.861456 0.249988 -0.095944
C31   C     C_1   0.138589 0.361480 0.749976 -0.082841
C32   C     C_1   0.861412 0.638521 0.250023 -0.082635
O1    O     O_3   0.500000 1.000000 0.250000 -0.527366
O2    O     O_3   0.500000 1.000000 0.750000 -0.527296
O3    O     O_3   1.000000 0.500000 0.250000 -0.528867
O4    O     O_3   0.000000 0.500000 0.750000 -0.527827
O5    O     O_R   0.457240 1.000000 0.319330 -0.607492
O6    O     O_R   0.542760 1.000000 0.680670 -0.607432
O7    O     O_R   0.000000 0.457240 0.319330 -0.607198
O8    O     O_R   1.000000 0.542760 0.680670 -0.606555
O9    O     O_R   0.542760 1.000000 0.319330 -0.607488
O10   O     O_R   0.457240 1.000000 0.680670 -0.607546
O11   O     O_R   0.000000 0.542760 0.319330 -0.607108
O12   O     O_R   1.000000 0.457240 0.680670 -0.607230
O13   O     O_R   0.957240 0.500000 0.819330 -0.605641
O14   O     O_R   0.042760 0.500000 0.180670 -0.602163
O15   O     O_R   0.500000 0.957240 0.819330 -0.607258
O16   O     O_R   0.500000 0.042760 0.180670 -0.607338
O17   O     O_R   0.042760 0.500000 0.819330 -0.600753
O18   O     O_R   0.957240 0.500000 0.180670 -0.603265
O19   O     O_R   0.500000 0.042760 0.819330 -0.607318
O20   O     O_R   0.500000 0.957240 0.180670 -0.607267
O21   O     O_R   0.602780 0.060140 0.268190 -0.630892
O22   O     O_R   0.397220 0.939860 0.731810 -0.631104
O23   O     O_R   0.939860 0.602780 0.268190 -0.611937
O24   O     O_R   0.060140 0.397220 0.731810 -0.612209
O25   O     O_R   0.397220 0.939860 0.268190 -0.631005
O26   O     O_R   0.602780 0.060140 0.731810 -0.630960
O27   O     O_R   0.060140 0.397220 0.268190 -0.612143
O28   O     O_R   0.939860 0.602780 0.731810 -0.612036
O29   O     O_R   0.602780 0.939860 0.731810 -0.616425
O30   O     O_R   0.397220 0.060140 0.268190 -0.616448
O31   O     O_R   0.939860 0.397220 0.731810 -0.636217
O32   O     O_R   0.060140 0.602780 0.268190 -0.636424
O33   O     O_R   0.397220 0.060140 0.731810 -0.616545
O34   O     O_R   0.602780 0.939860 0.268190 -0.616340
O35   O     O_R   0.060140 0.602780 0.731810 -0.636065
O36   O     O_R   0.939860 0.397220 0.268190 -0.636497
O37   O     O_R   0.102780 0.560140 0.768190 -0.611963
O38   O     O_R   0.897220 0.439860 0.231810 -0.609182
O39   O     O_R   0.439860 0.102780 0.768190 -0.616629
O40   O     O_R   0.560140 0.897220 0.231810 -0.616379
O41   O     O_R   0.897220 0.439860 0.768190 -0.609069
O42   O     O_R   0.102780 0.560140 0.231810 -0.609314
O43   O     O_R   0.560140 0.897220 0.768190 -0.616514
O44   O     O_R   0.439860 0.102780 0.231810 -0.616559
O45   O     O_R   0.102780 0.439860 0.231810 -0.632926
O46   O     O_R   0.897220 0.560140 0.768190 -0.635427
O47   O     O_R   0.439860 0.897220 0.231810 -0.630278
O48   O     O_R   0.560140 0.102780 0.768190 -0.630497
O49   O     O_R   0.897220 0.560140 0.231810 -0.633181
O50   O     O_R   0.102780 0.439860 0.768190 -0.630084
O51   O     O_R   0.560140 0.102780 0.231810 -0.630389
O52   O     O_R   0.439860 0.897220 0.768190 -0.630318
C33   C     C_R   0.500002 0.999994 0.065776 -0.250975
C34   C     C_R   0.500009 0.000003 0.934224 -0.250938
C35   C     C_R   0.998976 0.501315 0.065752 -0.240301
C36   C     C_R   0.997858 0.503044 0.934233 -0.245890
C37   C     C_R   0.999992 0.499997 0.565774 -0.251234
C38   C     C_R   0.999999 0.500006 0.434225 -0.251273
C39   C     C_R   0.499988 0.999985 0.565774 -0.251298
C40   C     C_R   0.500017 0.000000 0.434226 -0.251330
C41   C     C_R   0.466799 0.034202 0.082170 0.205735
C42   C     C_R   0.533204 0.965790 0.917829 0.205799
C43   C     C_R   0.961719 0.471582 0.082143 0.200064
C44   C     C_R   0.035221 0.532596 0.917815 0.210172
C45   C     C_R   0.533204 0.965786 0.082179 0.205771
C46   C     C_R   0.466813 0.034218 0.917823 0.205762
C47   C     C_R   0.036721 0.530439 0.082166 0.199686
C48   C     C_R   0.961293 0.472490 0.917860 0.204402
C49   C     C_R   0.966844 0.534257 0.582170 0.204560
C50   C     C_R   0.033167 0.465765 0.417831 0.204472
C51   C     C_R   0.465716 0.033124 0.582167 0.204470
C52   C     C_R   0.534289 0.966865 0.417831 0.204520
C53   C     C_R   0.033140 0.465735 0.582176 0.204517
C54   C     C_R   0.966832 0.534249 0.417822 0.204539
C55   C     C_R   0.534255 0.966845 0.582177 0.204528
C56   C     C_R   0.465746 0.033139 0.417825 0.204445
C57   C     C_R   0.500001 0.999996 0.131346 -0.332291
C58   C     C_R   0.500004 0.000003 0.868655 -0.332266
C59   C     C_R   0.999875 0.500143 0.131289 -0.325058
C60   C     C_R   0.000101 0.499977 0.868717 -0.329041
C61   C     C_R   0.999996 0.499997 0.631344 -0.332855
C62   C     C_R   0.999999 0.500004 0.368655 -0.332686
C63   C     C_R   0.499986 0.999988 0.631343 -0.332463
C64   C     C_R   0.500015 0.000005 0.368657 -0.332488
N1    N     N_R   0.545341 0.004554 0.015472 -0.086056
N2    N     N_R   0.454671 0.995440 0.984529 -0.085942
N3    N     N_R   0.043392 0.494480 0.015274 -0.084831
N4    N     N_R   0.953228 0.509870 0.984695 -0.079469
N5    N     N_R   0.454669 0.995437 0.015456 -0.085953
N6    N     N_R   0.545342 0.004556 0.984544 -0.086037
N7    N     N_R   0.953510 0.509433 0.015618 -0.083235
N8    N     N_R   0.043112 0.494933 0.984360 -0.087828
N9    N     N_R   0.045335 0.504506 0.515471 -0.086745
N10   N     N_R   0.954654 0.495499 0.484528 -0.086804
N11   N     N_R   0.495509 0.954657 0.515460 -0.086789
N12   N     N_R   0.504500 0.045327 0.484540 -0.086745
N13   N     N_R   0.954653 0.495497 0.515456 -0.086794
N14   N     N_R   0.045337 0.504509 0.484543 -0.086742
N15   N     N_R   0.504491 0.045324 0.515468 -0.086736
N16   N     N_R   0.495519 0.954661 0.484532 -0.086801
C65   C     C_R   0.999996 0.500005 0.468521 0.436532
C66   C     C_R   0.999993 0.500001 0.531478 0.436547
C67   C     C_R   0.500014 0.999996 0.468522 0.436573
C68   C     C_R   0.499995 0.999989 0.531478 0.436567
C69   C     C_R   0.500007 1.000000 0.968521 0.436784
C70   C     C_R   0.500004 0.999995 0.031479 0.436775
C71   C     C_R   0.998044 0.502704 0.968516 0.432038
C72   C     C_R   0.998607 0.501762 0.031461 0.434621
C73   C     C_R   0.500005 0.000001 0.334323 0.965187
C74   C     C_R   0.499995 0.999998 0.665677 0.965232
C75   C     C_R   0.999999 0.500001 0.334321 0.965534
C76   C     C_R   0.000000 0.499999 0.665678 0.965868
C77   C     C_R   0.000047 0.500010 0.834349 0.928713
C78   C     C_R   0.999985 0.499983 0.165654 0.943790
C79   C     C_R   0.500000 0.000001 0.834321 0.965658
C80   C     C_R   0.500001 0.999999 0.165679 0.965628
C81   C     C_R   0.599056 0.099048 0.250002 0.832639
C82   C     C_R   0.400944 0.900952 0.749998 0.832735
C83   C     C_R   0.900936 0.599040 0.250007 0.844028
C84   C     C_R   0.099063 0.400960 0.749993 0.846216
C85   C     C_R   0.400948 0.900950 0.249999 0.832559
C86   C     C_R   0.599051 0.099050 0.750001 0.832669
C87   C     C_R   0.099059 0.400960 0.250009 0.844317
C88   C     C_R   0.900940 0.599040 0.749991 0.841822
C89   C     C_R   0.599048 0.900951 0.749998 0.859283
C90   C     C_R   0.400952 0.099049 0.250002 0.859432
C91   C     C_R   0.900958 0.400942 0.750009 0.845113
C92   C     C_R   0.099042 0.599057 0.249991 0.842072
C93   C     C_R   0.400948 0.099048 0.749997 0.859598
C94   C     C_R   0.599052 0.900951 0.250003 0.859293
C95   C     C_R   0.099048 0.599054 0.750010 0.835909
C96   C     C_R   0.900953 0.400944 0.249989 0.842544
H1    H     H_    0.255041 0.187118 0.293768 0.172929
H2    H     H_    0.739228 0.807157 0.703866 0.174201
H3    H     H_    0.810345 0.257627 0.294856 0.162398
H4    H     H_    0.186032 0.745997 0.706788 0.162318
H5    H     H_    0.734722 0.802616 0.297581 0.175071
H6    H     H_    0.253072 0.185188 0.707179 0.172356
H7    H     H_    0.188961 0.743127 0.294547 0.162428
H8    H     H_    0.815692 0.252222 0.707689 0.162193
H9    H     H_    0.253934 0.813907 0.706774 0.162336
H10   H     H_    0.742442 0.189718 0.294871 0.162510
H11   H     H_    0.807130 0.739233 0.703859 0.174251
H12   H     H_    0.187140 0.255041 0.293775 0.172972
H13   H     H_    0.747778 0.184324 0.707679 0.162309
H14   H     H_    0.256874 0.811026 0.294556 0.162451
H15   H     H_    0.185175 0.253115 0.707174 0.172402
H16   H     H_    0.802620 0.734689 0.297586 0.175128
H17   H     H_    0.760674 0.692760 0.796046 0.165400
H18   H     H_    0.245059 0.312968 0.206324 0.165617
H19   H     H_    0.313894 0.754069 0.793291 0.164949
H20   H     H_    0.689733 0.242304 0.205064 0.165106
H21   H     H_    0.247027 0.314898 0.792727 0.165623
H22   H     H_    0.765186 0.697307 0.202500 0.166030
H23   H     H_    0.684392 0.247703 0.792398 0.164668
H24   H     H_    0.310960 0.756943 0.205371 0.165122
H25   H     H_    0.757641 0.310214 0.205048 0.171864
H26   H     H_    0.245987 0.686159 0.793306 0.171296
H27   H     H_    0.312955 0.245044 0.206316 0.171096
H28   H     H_    0.692777 0.760683 0.796053 0.172062
H29   H     H_    0.243042 0.689044 0.205361 0.171737
H30   H     H_    0.752310 0.315601 0.792408 0.170627
H31   H     H_    0.697293 0.765234 0.202496 0.172850
H32   H     H_    0.314920 0.246971 0.792733 0.170641
C97   C     C_R   0.214499 0.253024 0.274644 -0.135681
C98   C     C_R   0.782278 0.743756 0.724027 -0.135722
C99   C     C_R   0.745599 0.215908 0.275220 -0.146953
C100  C     C_R   0.252364 0.786130 0.725704 -0.147194
C101  C     C_R   0.779744 0.741201 0.276784 -0.135733
C102  C     C_R   0.213394 0.251941 0.725890 -0.135822
C103  C     C_R   0.254016 0.784510 0.275043 -0.147059
C104  C     C_R   0.748602 0.212873 0.726216 -0.147110
C105  C     C_R   0.213834 0.747596 0.725713 -0.150413
C106  C     C_R   0.784129 0.254441 0.275211 -0.150573
C107  C     C_R   0.743751 0.782297 0.724031 -0.139174
C108  C     C_R   0.253026 0.214483 0.274639 -0.138654
C109  C     C_R   0.787138 0.251400 0.726221 -0.150451
C110  C     C_R   0.215480 0.745983 0.275038 -0.150443
C111  C     C_R   0.251918 0.213398 0.725893 -0.138586
C112  C     C_R   0.741219 0.779744 0.276782 -0.139157
C113  C     C_R   0.717624 0.756157 0.775884 -0.137842
C114  C     C_R   0.285601 0.247065 0.225449 -0.137749
C115  C     C_R   0.247557 0.713939 0.774377 -0.137302
C116  C     C_R   0.754484 0.284020 0.224697 -0.137294
C117  C     C_R   0.286706 0.248149 0.774015 -0.137859
C118  C     C_R   0.720165 0.758718 0.223298 -0.137855
C119  C     C_R   0.751488 0.287049 0.773874 -0.137598
C120  C     C_R   0.245899 0.715563 0.224873 -0.137299
C121  C     C_R   0.715952 0.245487 0.224706 -0.147914
C122  C     C_R   0.286088 0.752473 0.774368 -0.147533
C123  C     C_R   0.247075 0.285606 0.225455 -0.147476
C124  C     C_R   0.756149 0.717616 0.775880 -0.148588
C125  C     C_R   0.284437 0.754090 0.224879 -0.147760
C126  C     C_R   0.712950 0.248522 0.773868 -0.147805
C127  C     C_R   0.758688 0.720175 0.223301 -0.148054
C128  C     C_R   0.248183 0.286692 0.774012 -0.147108
C129  C     C_R   0.211449 0.288656 0.250050 0.135131
C130  C     C_R   0.788552 0.711345 0.749952 0.134598
C131  C     C_R   0.711435 0.211360 0.249969 0.140760
C132  C     C_R   0.288567 0.788639 0.750031 0.140932
C133  C     C_R   0.788552 0.711346 0.250043 0.133931
C134  C     C_R   0.211451 0.288658 0.749951 0.135451
C135  C     C_R   0.288570 0.788635 0.249965 0.140778
C136  C     C_R   0.711431 0.211363 0.750037 0.141132
C137  C     C_R   0.211359 0.711426 0.750048 0.138347
C138  C     C_R   0.788643 0.288572 0.249951 0.138055
C139  C     C_R   0.711354 0.788572 0.749961 0.132105
C140  C     C_R   0.288646 0.211429 0.250040 0.133124
C141  C     C_R   0.788652 0.288563 0.750049 0.138866
C142  C     C_R   0.211350 0.711434 0.249954 0.138093
C143  C     C_R   0.288643 0.211427 0.749958 0.133630
C144  C     C_R   0.711361 0.788577 0.250038 0.131316
C145  C     C_R   0.466660 0.034078 0.114907 0.190899
C146  C     C_R   0.533340 0.965915 0.885091 0.191121
C147  C     C_R   0.962004 0.471294 0.114826 0.197183
C148  C     C_R   0.036581 0.530603 0.885157 0.193217
C149  C     C_R   0.533341 0.965911 0.114917 0.191129
C150  C     C_R   0.466672 0.034095 0.885085 0.190913
C151  C     C_R   0.037360 0.529475 0.114843 0.197385
C152  C     C_R   0.962402 0.470884 0.885192 0.197322
C153  C     C_R   0.966706 0.534130 0.614907 0.190051
C154  C     C_R   0.033307 0.465890 0.385093 0.189834
C155  C     C_R   0.465841 0.033266 0.614905 0.190058
C156  C     C_R   0.534162 0.966727 0.385093 0.190325
C157  C     C_R   0.033282 0.465861 0.614913 0.189863
C158  C     C_R   0.966692 0.534121 0.385084 0.190105
C159  C     C_R   0.534128 0.966706 0.614914 0.190294
C160  C     C_R   0.465871 0.033282 0.385088 0.190071
N17   N     N_R   0.432387 0.068657 0.131392 0.254184
O53   O     O_R   0.399155 0.050277 0.151421 -0.374074
O54   O     O_R   0.433271 0.118457 0.125766 -0.287869
N18   N     N_R   0.567606 0.931330 0.868606 0.254117
O55   O     O_R   0.600842 0.949706 0.848577 -0.374381
O56   O     O_R   0.566714 0.881530 0.874231 -0.288127
N19   N     N_R   0.926179 0.438385 0.131197 0.252435
O57   O     O_R   0.877534 0.451931 0.133792 -0.286445
O58   O     O_R   0.943351 0.398304 0.146608 -0.370198
N20   N     N_R   0.072752 0.562908 0.868685 0.242821
O59   O     O_R   0.116910 0.543650 0.859282 -0.295894
O60   O     O_R   0.064800 0.612868 0.866961 -0.334171
N21   N     N_R   0.567612 0.931331 0.131410 0.254081
O61   O     O_R   0.600845 0.949711 0.151449 -0.374714
O62   O     O_R   0.566729 0.881531 0.125781 -0.288117
N22   N     N_R   0.432408 0.068683 0.868593 0.254206
O63   O     O_R   0.399166 0.050311 0.848557 -0.373882
O64   O     O_R   0.433305 0.118483 0.874221 -0.287847
N23   N     N_R   0.073700 0.561684 0.131290 0.253319
O65   O     O_R   0.121781 0.546621 0.134584 -0.287533
O66   O     O_R   0.057320 0.602660 0.146155 -0.368522
N24   N     N_R   0.927573 0.436632 0.868930 0.249228
O67   O     O_R   0.946029 0.399858 0.851270 -0.372003
O68   O     O_R   0.877453 0.443649 0.870528 -0.284875
N25   N     N_R   0.932485 0.568760 0.631392 0.254429
O69   O     O_R   0.899204 0.550424 0.651407 -0.372689
O70   O     O_R   0.933460 0.618561 0.625777 -0.286610
N26   N     N_R   0.067550 0.431280 0.368610 0.254454
O71   O     O_R   0.100812 0.449633 0.348590 -0.372567
O72   O     O_R   0.066611 0.381479 0.374229 -0.286326
N27   N     N_R   0.431201 0.067478 0.631388 0.254393
O73   O     O_R   0.449537 0.100758 0.651408 -0.373214
O74   O     O_R   0.381389 0.066497 0.625764 -0.286501
N28   N     N_R   0.568801 0.932516 0.368608 0.254264
O75   O     O_R   0.550465 0.899239 0.348586 -0.374049
O76   O     O_R   0.618613 0.933495 0.374232 -0.286909
N29   N     N_R   0.067504 0.431229 0.631404 0.254434
O77   O     O_R   0.100788 0.449562 0.651428 -0.372302
O78   O     O_R   0.066528 0.381428 0.625785 -0.286361
N30   N     N_R   0.932452 0.568733 0.368591 0.254341
O79   O     O_R   0.899188 0.550381 0.348562 -0.373270
O80   O     O_R   0.933392 0.618534 0.374213 -0.286704
N31   N     N_R   0.568766 0.932492 0.631407 0.254302
O81   O     O_R   0.550427 0.899221 0.651426 -0.373767
O82   O     O_R   0.618577 0.933463 0.625795 -0.286885
N32   N     N_R   0.431229 0.067495 0.368597 0.254381
O83   O     O_R   0.449564 0.100772 0.348580 -0.373392
O84   O     O_R   0.381419 0.066519 0.374210 -0.286548
N33   N     N_R   0.433078 0.069273 0.065628 0.253252
O85   O     O_R   0.383366 0.070178 0.071547 -0.266789
O86   O     O_R   0.452127 0.101163 0.045054 -0.293250
N34   N     N_R   0.566921 0.930713 0.934370 0.253235
O87   O     O_R   0.616633 0.929799 0.928448 -0.267070
O88   O     O_R   0.547869 0.898827 0.954945 -0.293241
N35   N     N_R   0.925773 0.438747 0.065669 0.244902
O89   O     O_R   0.875808 0.444402 0.069433 -0.260311
O90   O     O_R   0.942936 0.403816 0.046296 -0.301281
N36   N     N_R   0.070806 0.566138 0.934149 0.251180
O91   O     O_R   0.120389 0.565037 0.927880 -0.258982
O92   O     O_R   0.053482 0.599282 0.954564 -0.297033
N37   N     N_R   0.566925 0.930714 0.065646 0.253248
O93   O     O_R   0.616637 0.929808 0.071581 -0.267249
O94   O     O_R   0.547879 0.898828 0.045063 -0.293223
N38   N     N_R   0.433100 0.069296 0.934357 0.253248
O95   O     O_R   0.383388 0.070215 0.928423 -0.266650
O96   O     O_R   0.452154 0.101175 0.954942 -0.293260
N39   N     N_R   0.072314 0.563816 0.065788 0.244640
O97   O     O_R   0.122303 0.559477 0.070052 -0.261344
O98   O     O_R   0.054779 0.598703 0.046500 -0.300299
N40   N     N_R   0.925490 0.439793 0.934424 0.248078
O99   O     O_R   0.876049 0.450918 0.934718 -0.261553
O100  O     O_R   0.942884 0.402084 0.951758 -0.299132
N41   N     N_R   0.933181 0.569384 0.565629 0.253499
O101  O     O_R   0.883471 0.570378 0.571552 -0.264566
O102  O     O_R   0.952280 0.601238 0.545052 -0.292725
N42   N     N_R   0.066849 0.430657 0.434372 0.253533
O103  O     O_R   0.116561 0.429699 0.428454 -0.264224
O104  O     O_R   0.047765 0.398785 0.454945 -0.292618
N43   N     N_R   0.430579 0.066776 0.565624 0.253546
O105  O     O_R   0.429580 0.116475 0.571554 -0.264128
O106  O     O_R   0.398724 0.047676 0.545037 -0.292625
N44   N     N_R   0.569427 0.933212 0.434371 0.253534
O107  O     O_R   0.570426 0.883513 0.428440 -0.264763
O108  O     O_R   0.601284 0.952310 0.454958 -0.292696
N45   N     N_R   0.066801 0.430608 0.565641 0.253527
O109  O     O_R   0.116511 0.429614 0.571576 -0.264101
O110  O     O_R   0.047700 0.398759 0.545055 -0.292651
N46   N     N_R   0.933150 0.569357 0.434354 0.253517
O111  O     O_R   0.883438 0.570318 0.428420 -0.264775
O112  O     O_R   0.952232 0.601225 0.454936 -0.292690
N47   N     N_R   0.569392 0.933191 0.565645 0.253527
O113  O     O_R   0.570381 0.883490 0.571570 -0.264596
O114  O     O_R   0.601259 0.952290 0.545073 -0.292700
N48   N     N_R   0.430607 0.066789 0.434359 0.253551
O115  O     O_R   0.429613 0.116490 0.428436 -0.264244
O116  O     O_R   0.398744 0.047686 0.454931 -0.292623

loop_
_geom_bond_atom_site_label_1
_geom_bond_atom_site_label_2
_geom_bond_distance
_ccdc_geom_bond_type
H13   C104  1.083464 S    
N32   O84   1.301160 A    
Zn12  O21   1.908326 S    
Zn13  O31   1.908210 S    
C99   C131  1.401088 A    
C33   C45   1.412441 A    
Zn14  O23   1.907999 S    
C40   C52   1.412427 A    
N16   C67   1.357314 A    
O16   C80   1.273144 A    
C29   C86   1.433833 S    
Zn1   O51   1.908067 S    
Zn12  O1    1.924064 S    
C117  C143  1.401079 A    
Zn13  O12   1.924840 S    
N25   O69   1.301309 A    
C118  C144  1.401076 A    
C21   C94   1.433651 S    
H2    C107  1.083469 S    
C59   C151  1.411942 A    
N12   C67   1.357313 A    
C54   C158  1.409079 A    
C62   C154  1.413351 A    
C64   C160  1.413361 A    
O42   C92   1.272533 A    
O43   C89   1.272608 A    
O36   C96   1.272520 A    
H20   C121  1.083465 S    
O46   C88   1.272670 A    
C36   C48   1.411344 A    
Zn5   O40   1.907997 S    
C5    C32   1.205156 T    
C6    C31   1.205151 T    
C7    C30   1.205206 T    
C38   C50   1.412432 A    
C149  N21   1.436965 S    
C102  C134  1.401109 A    
Zn5   O1    1.924520 S    
N11   N16   1.331179 A    
Zn9   O4    1.924579 S    
C40   C56   1.412420 A    
Zn10  O3    1.924578 S    
Zn5   O47   1.908210 S    
N37   O93   1.301170 A    
O20   C80   1.273135 A    
Zn7   O45   1.908156 S    
N28   O76   1.301158 A    
Zn15  O6    1.924693 S    
Zn16  O1    1.924498 S    
H7    C110  1.083466 S    
H5    C112  1.083475 S    
C13   C141  1.438619 S    
C62   C75   1.477778 S    
C63   C74   1.477770 S    
O15   C79   1.273144 A    
Zn7   O14   1.924693 S    
Zn14  O11   1.924840 S    
H9    C100  1.083465 S    
O39   C93   1.272444 A    
C40   C67   1.476138 S    
N43   O105  1.301167 A    
N42   O103  1.301171 A    
O34   C94   1.272453 A    
H30   C119  1.083470 S    
C34   C69   1.476177 S    
C44   C148  1.407019 A    
C12   C17   1.205135 T    
C104  C136  1.401093 A    
C10   C138  1.438603 S    
N24   O67   1.301171 A    
H19   C122  1.083461 S    
C108  C140  1.401111 A    
C57   C149  1.413351 A    
H26   C115  1.083475 S    
C64   C156  1.413352 A    
C49   C153  1.409072 A    
H14   C103  1.083464 S    
Zn13  O24   1.907997 S    
C100  C132  1.401087 A    
C51   C155  1.409070 A    
C120  C142  1.401104 A    
C64   C73   1.477770 S    
C52   C156  1.409074 A    
C148  N20   1.432549 S    
N22   O64   1.301155 A    
N20   O60   1.300582 A    
H3    C106  1.083464 S    
H29   C120  1.083471 S    
C101  C112  1.398555 A    
C10   C19   1.205168 T    
O17   C77   1.272662 A    
Zn11  O2    1.924069 S    
C150  N22   1.436962 S    
O50   C84   1.272531 A    
C157  N29   1.436955 S    
O51   C81   1.272474 A    
N31   O82   1.301159 A    
N41   O101  1.301171 A    
C125  C135  1.401127 A    
N48   O115  1.301169 A    
Zn11  O22   1.908328 S    
C45   N37   1.437251 S    
N23   O66   1.300863 A    
N10   C65   1.357320 A    
C160  N32   1.436958 S    
C6    C134  1.438581 S    
C46   C150  1.409087 A    
H11   C98   1.083478 S    
C97   C108  1.398558 A    
N29   O78   1.301155 A    
N2    C69   1.357320 A    
N46   O111  1.301171 A    
C121  C131  1.401126 A    
C52   N44   1.437252 S    
N33   O86   1.301301 A    
C152  N24   1.435770 S    
Zn2   O2    1.924578 S    
H6    C111  1.083476 S    
C59   C147  1.412292 A    
C155  N27   1.436949 S    
Zn11  O10   1.924909 S    
H10   C99   1.083465 S    
Zn8   O4    1.924498 S    
C49   N41   1.437257 S    
N13   C66   1.357316 A    
C26   C81   1.433815 S    
O37   C95   1.272438 A    
N26   O72   1.301157 A    
C22   C93   1.433653 S    
O23   C83   1.272409 A    
N17   O53   1.301312 A    
O24   C84   1.272408 A    
C114  C123  1.398524 A    
C101  C133  1.401112 A    
N12   N15   1.331179 A    
C55   C159  1.409059 A    
N9    C66   1.357318 A    
C53   C157  1.409079 A    
H4    C105  1.083466 S    
C105  C137  1.401095 A    
C56   N48   1.437253 S    
N1    C70   1.357322 A    
C16   C144  1.438545 S    
N18   O55   1.301311 A    
C36   C44   1.412235 A    
N4    C71   1.357114 A    
C9    C137  1.438603 S    
N36   O91   1.301050 A    
C9    C20   1.205168 T    
O44   C90   1.272607 A    
Zn7   O42   1.908218 S    
N3    C72   1.357029 A    
C120  C125  1.398572 A    
C151  N23   1.433143 S    
Zn10  O7    1.924809 S    
O47   C85   1.272597 A    
Zn10  O27   1.908113 S    
C35   C72   1.476005 S    
N40   O100  1.300970 A    
C1    C129  1.438601 S    
C25   C82   1.433813 S    
C38   C54   1.412436 A    
N21   O61   1.301314 A    
Zn9   O8    1.924809 S    
C16   C21   1.205122 T    
Zn6   O2    1.924515 S    
N44   O108  1.301307 A    
C17   C90   1.433673 S    
Zn12  O9    1.924909 S    
C158  N30   1.436958 S    
Zn6   O19   1.924840 S    
N43   O106  1.301304 A    
C59   C78   1.479133 S    
N39   O98   1.301298 A    
C116  C121  1.398565 A    
C57   C80   1.477761 S    
C58   C79   1.477770 S    
Zn1   O16   1.924809 S    
H12   C97   1.083475 S    
Zn2   O15   1.924809 S    
O25   C85   1.272619 A    
C14   C142  1.438617 S    
N34   O87   1.301170 A    
C48   C152  1.406960 A    
C112  C144  1.401111 A    
H24   C125  1.083460 S    
O35   C95   1.272520 A    
C126  C136  1.401123 A    
O33   C93   1.272456 A    
C153  N25   1.436953 S    
C31   C84   1.433724 S    
Zn15  O29   1.908156 S    
C32   C83   1.433722 S    
C33   C70   1.476181 S    
C13   C24   1.205178 T    
O7    C75   1.273149 A    
C14   C23   1.205178 T    
C53   N45   1.437257 S    
C103  C110  1.398534 A    
Zn2   O43   1.908113 S    
O21   C81   1.272521 A    
C98   C107  1.398562 A    
O19   C79   1.273140 A    
C145  N17   1.436963 S    
C57   C145  1.413342 A    
N19   O57   1.300643 A    
C58   C150  1.413349 A    
C103  C135  1.401094 A    
Zn8   O41   1.908220 S    
C42   N34   1.437250 S    
C61   C76   1.477795 S    
C50   C154  1.409072 A    
C127  C133  1.401096 A    
C61   C157  1.413363 A    
C39   C55   1.412420 A    
C110  C142  1.401095 A    
N2    N5    1.331179 A    
C44   N36   1.438410 S    
H23   C126  1.083463 S    
C37   C66   1.476151 S    
N45   O110  1.301302 A    
H21   C128  1.083465 S    
C115  C122  1.398565 A    
N38   O96   1.301304 A    
C114  C140  1.401081 A    
N4    N7    1.331043 A    
C37   C53   1.412423 A    
C33   C41   1.412435 A    
O18   C78   1.273288 A    
C35   C43   1.412305 A    
C100  C105  1.398532 A    
C7    C135  1.438655 S    
C113  C139  1.401077 A    
O11   C75   1.273140 A    
C159  N31   1.436961 S    
N42   O104  1.301300 A    
Zn9   O28   1.908115 S    
C62   C158  1.413355 A    
C41   N33   1.437247 S    
H28   C113  1.083476 S    
C106  C138  1.401098 A    
N32   O83   1.301305 A    
C47   N39   1.437157 S    
N1    N6    1.331184 A    
C20   C95   1.433754 S    
Zn3   O38   1.908328 S    
C124  C130  1.401102 A    
N10   N13   1.331184 A    
C37   C49   1.412422 A    
N24   O68   1.300535 A    
Zn5   O20   1.924840 S    
C39   C51   1.412431 A    
N37   O94   1.301302 A    
C47   C151  1.406803 A    
H32   C117  1.083477 S    
N25   O70   1.301156 A    
N3    N8    1.330654 A    
C48   N40   1.434266 S    
N27   O73   1.301307 A    
O12   C76   1.273148 A    
C8    C136  1.438655 S    
C116  C138  1.401098 A    
C46   N38   1.437253 S    
N23   O65   1.300692 A    
Zn3   O3    1.924069 S    
C154  N26   1.436956 S    
C28   C87   1.433742 S    
C35   C47   1.412723 A    
N35   O89   1.300537 A    
N14   C65   1.357319 A    
Zn3   O49   1.908225 S    
C117  C128  1.398516 A    
Zn14  O3    1.924515 S    
C146  N18   1.436963 S    
C60   C152  1.413083 A    
Zn8   O46   1.908154 S    
N47   O114  1.301304 A    
N38   O95   1.301169 A    
C34   C46   1.412433 A    
N9    N14   1.331179 A    
N6    C69   1.357322 A    
N11   C68   1.357314 A    
Zn1   O44   1.908115 S    
C34   C42   1.412432 A    
Zn3   O18   1.924909 S    
O41   C91   1.272534 A    
C41   C145  1.409085 A    
C99   C106  1.398530 A    
C102  C111  1.398549 A    
N28   O75   1.301306 A    
O45   C87   1.272666 A    
O29   C89   1.272586 A    
N48   O116  1.301306 A    
C30   C85   1.433833 S    
H27   C114  1.083477 S    
C15   C22   1.205124 T    
C123  C129  1.401104 A    
C1    C28   1.205167 T    
Zn7   O3    1.924499 S    
C18   C89   1.433671 S    
C2    C27   1.205167 T    
N29   O77   1.301309 A    
O14   C78   1.273680 A    
H22   C127  1.083467 S    
C60   C77   1.479229 S    
N46   O112  1.301305 A    
N5    C70   1.357323 A    
C60   C148  1.412327 A    
N33   O85   1.301170 A    
C115  C137  1.401098 A    
C156  N28   1.436955 S    
N8    C71   1.357177 A    
C109  C141  1.401097 A    
N31   O81   1.301305 A    
Zn15  O26   1.908218 S    
C63   C155  1.413348 A    
N30   O79   1.301312 A    
C15   C143  1.438549 S    
C11   C139  1.438565 S    
O40   C94   1.272445 A    
N39   O97   1.300607 A    
Zn4   O50   1.908227 S    
N19   O58   1.300914 A    
N47   O113  1.301169 A    
C4    C25   1.205197 T    
C3    C131  1.438639 S    
Zn11  O33   1.908225 S    
C128  C134  1.401096 A    
Zn4   O4    1.924064 S    
O13   C77   1.274460 A    
C8    C29   1.205206 T    
N22   O63   1.301309 A    
N18   O56   1.301156 A    
C55   N47   1.437252 S    
O22   C82   1.272518 A    
C5    C133  1.438581 S    
Zn4   O17   1.924909 S    
H17   C124  1.083465 S    
N36   O92   1.301348 A    
C43   N35   1.436547 S    
Zn13  O4    1.924520 S    
C147  N19   1.433730 S    
C58   C146  1.413350 A    
O52   C82   1.272474 A    
Zn15  O2    1.924499 S    
Zn16  O5    1.924693 S    
C54   N46   1.437250 S    
Zn14  O32   1.908208 S    
C111  C143  1.401102 A    
C118  C127  1.398511 A    
Zn2   O52   1.908069 S    
C36   C71   1.475603 S    
C38   C65   1.476168 S    
O48   C86   1.272595 A    
H1    C108  1.083472 S    
O28   C88   1.272570 A    
C11   C18   1.205135 T    
C42   C146  1.409084 A    
Zn16  O25   1.908220 S    
O31   C91   1.272642 A    
O32   C92   1.272643 A    
N34   O88   1.301301 A    
H8    C109  1.083466 S    
O10   C74   1.273005 A    
N20   O59   1.300895 A    
Zn4   O37   1.908326 S    
O49   C83   1.272533 A    
Zn6   O39   1.907999 S    
N27   O74   1.301158 A    
C119  C126  1.398570 A    
C63   C159  1.413365 A    
C107  C139  1.401115 A    
O6    C74   1.272973 A    
C2    C130  1.438601 S    
C119  C141  1.401103 A    
O38   C96   1.272435 A    
Zn12  O34   1.908227 S    
C98   C130  1.401107 A    
C113  C124  1.398522 A    
N35   O90   1.301251 A    
C43   C147  1.406762 A    
C39   C68   1.476138 S    
N26   O71   1.301310 A    
Zn9   O35   1.908067 S    
Zn6   O48   1.908208 S    
N17   O54   1.301155 A    
O27   C87   1.272570 A    
N30   O80   1.301157 A    
C122  C132  1.401125 A    
C19   C96   1.433746 S    
O9    C73   1.273005 A    
C12   C140  1.438567 S    
C23   C92   1.433763 S    
C24   C91   1.433763 S    
C27   C88   1.433745 S    
C3    C26   1.205199 T    
N45   O109  1.301170 A    
Zn8   O13   1.924693 S    
O5    C73   1.272977 A    
H31   C118  1.083478 S    
N15   C68   1.357313 A    
C51   N43   1.437254 S    
O8    C76   1.273153 A    
C56   C160  1.409059 A    
N40   O99   1.300533 A    
Zn1   O1    1.924579 S    
N7    C72   1.357444 A    
Zn10  O36   1.908069 S    
N21   O62   1.301156 A    
C104  C109  1.398536 A    
Zn16  O30   1.908154 S    
N44   O107  1.301167 A    
C45   C149  1.409087 A    
O26   C86   1.272619 A    
C61   C153  1.413360 A    
H18   C123  1.083466 S    
H16   C101  1.083471 S    
C4    C132  1.438637 S    
N41   O102  1.301299 A    
O30   C90   1.272588 A    
C97   C129  1.401105 A    
H25   C116  1.083472 S    
C50   N42   1.437250 S    
H15   C102  1.083471 S    
