data_mof_unit_12393.cif
_audit_creation_date              2012-12-10T18:46:20-0500
_audit_creation_method            fapswitch 2.2
_symmetry_space_group_name_H-M    P1
_symmetry_Int_Tables_number       1
_space_group_crystal_system       triclinic
_cell_length_a                    9.852789
_cell_length_b                    10.715734
_cell_length_c                    13.158801
_cell_angle_alpha                 90.040931
_cell_angle_beta                  71.709912
_cell_angle_gamma                 90.007441
_cell_volume                      1319.11614239

loop_
_atom_site_label
_atom_site_type_symbol
_atom_type_description
_atom_site_fract_x
_atom_site_fract_y
_atom_site_fract_z
_atom_type_partial_charge
C1    C     C_R   0.500012 0.740095 0.500081 0.847793
C2    C     C_R   0.384388 0.568048 0.811960 -0.136959
C3    C     C_R   0.610617 0.936097 0.523258 -0.193984
C4    C     C_R   0.424277 0.520903 0.701112 0.883688
C5    C     C_R   0.610654 0.063968 0.523157 -0.191211
C6    C     C_R   0.499797 0.127439 0.500339 -0.015835
C7    C     C_R   0.388809 0.063849 0.477781 -0.189723
C8    C     C_R   0.388817 0.936001 0.477818 -0.194224
C9    C     C_R   0.499816 0.872534 0.500418 -0.004218
C10   C     C_R   0.942911 0.398360 0.464733 -0.073406
C11   C     C_R   0.086725 0.398517 0.464512 -0.063479
C12   C     C_R   0.448083 0.588506 0.975882 0.092971
C13   C     C_R   0.057232 0.601716 0.535019 -0.087197
C14   C     C_R   0.913917 0.601991 0.534264 -0.085875
C15   C     C_R   0.499910 0.259912 0.500097 0.885164
C16   C     C_R   0.577699 0.500942 0.296554 0.886518
C17   C     C_R   0.795605 0.484618 0.006673 0.005117
C18   C     C_R   0.622518 0.512015 0.181218 -0.070472
C19   C     C_R   0.240454 0.587667 0.869616 -0.170373
C20   C     C_R   0.199544 0.608660 0.979385 -0.131582
C21   C     C_R   0.300784 0.603609 0.033228 -0.188718
C22   C     C_1   0.924142 0.423026 0.942064 0.119330
C23   C     C_R   0.489664 0.588078 0.863332 0.090757
C24   C     C_R   0.555253 0.564828 0.024889 0.064552
C25   C     C_R   0.698029 0.538563 0.960544 0.122930
C26   C     C_R   0.739170 0.568878 0.852218 -0.244103
C27   C     C_R   0.636225 0.602931 0.806400 -0.188766
C28   C     C_R   0.523049 0.557537 0.135178 -0.259288
C29   C     C_R   0.757671 0.473231 0.117496 -0.250491
H1    H     H_    0.831288 0.431021 0.153785 0.159575
H2    H     H_    0.159447 0.584659 0.830002 0.162603
H3    H     H_    0.259783 0.610846 0.119102 0.130948
H4    H     H_    0.087726 0.622140 0.023892 0.147274
H5    H     H_    0.672844 0.637116 0.725364 0.171208
H6    H     H_    0.696352 0.887421 0.541746 0.145190
H7    H     H_    0.848981 0.684200 0.560913 0.113100
H8    H     H_    0.696471 0.112736 0.541522 0.154194
H9    H     H_    0.303000 0.112484 0.459364 0.147467
H10   H     H_    0.303010 0.887253 0.459419 0.151256
H11   H     H_    0.900774 0.317060 0.436225 0.125809
H12   H     H_    0.152881 0.317384 0.435728 0.123433
H13   H     H_    0.099451 0.683123 0.563312 0.126745
H14   H     H_    0.850305 0.566804 0.802932 0.154607
H15   H     H_    0.420300 0.586791 0.187293 0.159634
N1    N     N_R   0.142790 0.500030 0.500030 -0.076923
N2    N     N_R   0.857180 0.499940 0.500010 -0.075676
N3    N     N_1   0.025404 0.371137 0.890559 -0.194315
O1    O     O_R   0.385370 0.683250 0.500010 -0.637466
O2    O     O_R   0.614700 0.683220 0.500010 -0.639791
O3    O     O_R   0.328400 0.499990 0.653620 -0.601574
O4    O     O_R   0.557730 0.499960 0.653620 -0.614744
O5    O     O_R   0.385300 0.316780 0.499990 -0.623602
O6    O     O_R   0.614630 0.316750 0.499990 -0.627281
O7    O     O_R   0.442270 0.500040 0.346380 -0.618909
O8    O     O_R   0.671600 0.500010 0.346380 -0.611955
Zn1   Zn    Zn3+2 0.346870 0.500020 0.500000 0.947311
Zn2   Zn    Zn3+2 0.653130 0.499980 0.500000 0.942966

loop_
_geom_bond_atom_site_label_1
_geom_bond_atom_site_label_2
_ccdc_geom_bond_type
C10   N2    A    
C2    C4    S    
O7    Zn1   S    
C6    C7    A    
C3    C9    A    
C8    H10   S    
C5    H8    S    
C17   C29   A    
C12   C24   A    
C19   C20   A    
C3    H6    S    
C19   H2    S    
C22   N3    T    
C25   C26   A    
C16   O8    A    
C18   C28   A    
C7    C8    A    
C14   N2    A    
C18   C29   A    
C27   H5    S    
C15   O5    A    
C24   C25   A    
C13   N1    A    
C12   C23   A    
C26   C27   A    
C29   H1    S    
O4    Zn2   S    
C20   H4    S    
C15   O6    A    
C10   H11   S    
C13   H13   S    
C7    H9    S    
C26   H14   S    
C11   H12   S    
C23   C27   A    
O8    Zn2   S    
N2    Zn2   S    
C14   H7    S    
C5    C6    A    
C21   H3    S    
C16   O7    A    
C11   N1    A    
C10   C11   A    
C4    O4    A    
C1    C9    S    
C24   C28   A    
O2    Zn2   S    
C20   C21   A    
C16   C18   S    
C2    C23   A    
O1    Zn1   S    
C17   C22   S    
O6    Zn2   S    
C8    C9    A    
C1    O1    A    
C13   C14   A    
C6    C15   S    
C2    C19   A    
C1    O2    A    
C12   C21   A    
C28   H15   S    
O3    Zn1   S    
O5    Zn1   S    
N1    Zn1   S    
C4    O3    A    
C17   C25   A    
C3    C5    A    
