data_mof_unit_52953.cif
_audit_creation_date              2012-12-10T19:48:38-0500
_audit_creation_method            fapswitch 2.2
_symmetry_space_group_name_H-M    P1
_symmetry_Int_Tables_number       1
_space_group_crystal_system       triclinic
_cell_length_a                    13.061464
_cell_length_b                    14.180477
_cell_length_c                    14.790716
_cell_angle_alpha                 90.686442
_cell_angle_beta                  90.602063
_cell_angle_gamma                 69.727464
_cell_volume                      2569.56207697

loop_
_atom_site_label
_atom_site_type_symbol
_atom_type_description
_atom_site_fract_x
_atom_site_fract_y
_atom_site_fract_z
_atom_type_partial_charge
C1    C     C_R   0.498538 0.501260 0.672859 0.897131
C2    C     C_R   0.986585 0.450985 0.492014 0.004201
C3    C     C_R   0.880416 0.464303 0.461610 -0.063650
C4    C     C_R   0.028692 0.529116 0.474116 -0.012253
C5    C     C_R   0.979224 0.601406 0.405539 -0.096673
C6    C     C_R   0.880919 0.602443 0.364654 0.463347
C7    C     C_R   0.831419 0.536216 0.394943 -0.289656
C8    C     C_R   0.116501 0.540531 0.524198 0.013161
C9    C     C_R   0.134465 0.657249 0.413300 -0.333963
C10   C     C_R   0.823294 0.408348 0.501460 -0.144120
C11   C     C_R   0.517835 0.431968 0.915964 -0.071395
C12   C     C_R   0.704621 0.444320 0.498374 0.906734
C13   C     C_R   0.543135 0.427253 0.824874 -0.083438
C14   C     C_R   0.482600 0.507894 0.769581 -0.308735
C15   C     C_R   0.397937 0.591954 0.805740 0.474795
C16   C     C_R   0.365065 0.589239 0.895234 -0.032791
C17   C     C_R   0.431180 0.512253 0.950917 -0.029810
C18   C     C_R   0.460955 0.595548 0.089996 0.486580
C19   C     C_R   0.488226 0.584943 0.182002 -0.342431
C20   C     C_R   0.475852 0.506023 0.230928 -0.164731
C21   C     C_R   0.435043 0.437122 0.189594 -0.276170
C22   C     C_R   0.407989 0.445488 0.098782 0.450520
C23   C     C_R   0.496978 0.500399 0.327057 0.909056
C24   C     C_R   0.426115 0.521645 0.048537 -0.128398
C25   C     C_R   0.594373 0.862706 0.544077 0.411839
C26   C     C_R   0.584919 0.765111 0.542399 -0.168607
C27   C     C_R   0.419793 0.824970 0.458934 0.101746
C28   C     C_R   0.422762 0.923160 0.462703 -0.296638
C29   C     C_R   0.511107 0.943232 0.502325 0.003245
C30   C     C_R   0.484281 0.108725 0.419654 0.380392
C31   C     C_R   0.475690 0.210645 0.423028 -0.086055
C32   C     C_R   0.534786 0.195220 0.575239 -0.050302
C33   C     C_R   0.541293 0.094263 0.576384 -0.290870
C34   C     C_R   0.295290 0.555864 0.499743 0.903617
C35   C     C_R   0.514121 0.049072 0.498874 0.031572
C36   C     C_R   0.030094 0.670475 0.379758 0.520500
C37   C     C_R   0.178256 0.591126 0.484045 -0.226591
C38   C     C_R   0.876256 0.330792 0.560472 -0.378036
C39   C     C_R   0.988905 0.302111 0.576788 0.422597
C40   C     C_R   0.047250 0.359847 0.537283 0.471979
H1    H     H_    0.182474 0.696041 0.381591 0.175390
H2    H     H_    0.522142 0.635235 0.216010 0.166927
H3    H     H_    0.423960 0.376486 0.227476 0.174305
H4    H     H_    0.646137 0.701632 0.573216 0.148608
H5    H     H_    0.356828 0.984029 0.432466 0.228847
H6    H     H_    0.450283 0.256143 0.363203 0.149322
H7    H     H_    0.556801 0.227945 0.635424 0.160877
H8    H     H_    0.564036 0.052978 0.638855 0.203993
H9    H     H_    0.828103 0.295333 0.596890 0.172686
H10   H     H_    0.753326 0.541965 0.365554 0.168399
H11   H     H_    0.568374 0.374657 0.961265 0.199111
N1    N     N_R   0.500000 0.747530 0.500020 -0.150355
N2    N     N_R   0.499940 0.252470 0.500020 -0.109936
O1    O     O_R   0.499990 0.420530 0.630930 -0.636252
O2    O     O_R   0.499990 0.579480 0.630940 -0.604667
O3    O     O_R   0.653620 0.381060 0.499970 -0.611703
O4    O     O_R   0.653620 0.540010 0.499980 -0.614140
O5    O     O_R   0.500010 0.420520 0.369060 -0.623695
O6    O     O_R   0.500010 0.579470 0.369070 -0.648217
O7    O     O_R   0.346380 0.459990 0.500020 -0.589031
O8    O     O_R   0.346380 0.618940 0.500030 -0.620004
Zn1   Zn    Zn3+2 0.500000 0.393860 0.499990 0.938747
Zn2   Zn    Zn3+2 0.500000 0.606140 0.500010 0.923949
C41   C     C_2   0.637519 0.341623 0.790288 0.401174
H12   H     H_    0.671470 0.344680 0.724258 0.054943
O9    O     O_2   0.679230 0.266403 0.835666 -0.588282
O10   O     O_3   0.345246 0.675378 0.753054 -0.603252
C42   C     C_3   0.407929 0.739758 0.751874 0.160254
H13   H     H_    0.401199 0.771600 0.682872 0.169251
H14   H     H_    0.496963 0.700232 0.764974 0.120157
C43   C     C_3   0.363784 0.827211 0.818857 -0.329141
H15   H     H_    0.278401 0.872737 0.800208 0.246236
H16   H     H_    0.364606 0.797863 0.888022 0.246015
C44   C     C_3   0.433776 0.893902 0.819151 -1.012169
H17   H     H_    0.517276 0.851286 0.844420 0.269012
H18   H     H_    0.396749 0.959830 0.864317 0.278493
H19   H     H_    0.439616 0.920698 0.749827 0.273233
C45   C     C_2   0.262715 0.664645 0.931122 0.394857
H20   H     H_    0.244274 0.667088 0.002617 0.045347
O11   O     O_2   0.195693 0.722677 0.881203 -0.552640
O12   O     O_3   0.478675 0.668236 0.035436 -0.659549
C46   C     C_3   0.459110 0.762714 0.078673 0.052525
H21   H     H_    0.477652 0.812276 0.028661 0.178042
H22   H     H_    0.516822 0.758296 0.135203 0.136605
C47   C     C_3   0.339414 0.813692 0.107260 -0.415180
H23   H     H_    0.285940 0.827635 0.046378 0.229760
H24   H     H_    0.314223 0.764853 0.153657 0.225609
C48   C     C_3   0.322695 0.913531 0.155565 -0.856830
H25   H     H_    0.371357 0.900601 0.219166 0.268126
H26   H     H_    0.235187 0.950155 0.172807 0.279415
H27   H     H_    0.347530 0.964601 0.111437 0.254778
O13   O     O_3   0.377196 0.371232 0.057511 -0.641045
C49   C     C_3   0.263402 0.407985 0.040557 0.101350
H28   H     H_    0.247451 0.363523 0.983230 0.179903
H29   H     H_    0.231965 0.488094 0.018938 0.116264
C50   C     C_3   0.200872 0.393630 0.123396 -0.364573
H30   H     H_    0.234438 0.313914 0.145142 0.240771
H31   H     H_    0.210835 0.441984 0.180050 0.215731
C51   C     C_3   0.079469 0.421203 0.102383 -0.944707
H32   H     H_    0.044330 0.500759 0.080600 0.262454
H33   H     H_    0.036261 0.411466 0.163901 0.258866
H34   H     H_    0.066766 0.371673 0.047926 0.273162
O14   O     O_3   0.684379 0.882651 0.579640 -0.659494
C52   C     C_3   0.751580 0.806757 0.636809 0.053212
H35   H     H_    0.798705 0.739675 0.595753 0.157677
H36   H     H_    0.702182 0.786426 0.689159 0.137931
C53   C     C_3   0.832384 0.846224 0.685232 -0.373577
H37   H     H_    0.880411 0.869829 0.634296 0.238390
H38   H     H_    0.786433 0.912552 0.727310 0.238600
C54   C     C_3   0.910615 0.766455 0.745671 -0.852990
H39   H     H_    0.864667 0.741554 0.797456 0.260650
H40   H     H_    0.967175 0.798234 0.780592 0.287763
H41   H     H_    0.959517 0.700751 0.704334 0.290219
C55   C     C_2   0.332121 0.806411 0.406143 0.382715
H42   H     H_    0.343574 0.732833 0.378732 0.115742
O15   O     O_2   0.246411 0.874467 0.390175 -0.629182
O16   O     O_3   0.824689 0.677781 0.305252 -0.621468
C56   C     C_3   0.820929 0.636161 0.218643 0.117825
H43   H     H_    0.766448 0.590711 0.218612 0.121450
H44   H     H_    0.904164 0.588336 0.196363 0.148491
C57   C     C_3   0.775381 0.721840 0.151449 -0.329135
H45   H     H_    0.693985 0.772390 0.174608 0.206185
H46   H     H_    0.830631 0.766306 0.148874 0.250334
C58   C     C_3   0.764300 0.682219 0.056811 -0.956249
H47   H     H_    0.845516 0.634342 0.031146 0.270197
H48   H     H_    0.729176 0.746380 0.010188 0.264398
H49   H     H_    0.709349 0.637487 0.057777 0.288002
O17   O     O_3   0.455814 0.071553 0.340006 -0.661543
C59   C     C_3   0.550783 0.010273 0.294597 0.086795
H50   H     H_    0.527611 0.955967 0.251712 0.163083
H51   H     H_    0.615839 0.964387 0.341340 0.142975
C60   C     C_3   0.594915 0.073763 0.233523 -0.359998
H52   H     H_    0.527928 0.121993 0.189780 0.248222
H53   H     H_    0.626340 0.123190 0.275813 0.211808
C61   C     C_3   0.686979 0.007483 0.173839 -0.942755
H54   H     H_    0.754492 0.957873 0.216083 0.263852
H55   H     H_    0.719144 0.055492 0.132225 0.279384
H56   H     H_    0.656334 0.960522 0.127878 0.261481
O18   O     O_3   0.985768 0.739862 0.311986 -0.618303
C62   C     C_3   0.964434 0.839132 0.344901 0.079012
H57   H     H_    0.947297 0.889424 0.285397 0.168573
H58   H     H_    0.036139 0.848564 0.379929 0.170856
C63   C     C_3   0.864275 0.873247 0.406769 -0.324525
H59   H     H_    0.794184 0.861977 0.371239 0.254777
H60   H     H_    0.881660 0.827092 0.468934 0.224676
C64   C     C_3   0.833828 0.983756 0.433786 -0.952962
H61   H     H_    0.902321 0.996029 0.471337 0.262821
H62   H     H_    0.761172 0.006127 0.478139 0.299659
H63   H     H_    0.813971 0.031974 0.372871 0.262218
C65   C     C_2   0.137274 0.513747 0.621657 0.481225
H64   H     H_    0.214681 0.508063 0.653005 0.060886
O19   O     O_2   0.066312 0.502800 0.669069 -0.597166
O20   O     O_3   0.160900 0.334633 0.539932 -0.670328
C66   C     C_3   0.223376 0.234186 0.561002 0.151199
H65   H     H_    0.296098 0.211876 0.517307 0.144463
H66   H     H_    0.183597 0.178851 0.542794 0.142814
C67   C     C_3   0.263610 0.228710 0.659412 -0.247549
H67   H     H_    0.330133 0.260619 0.663726 0.198789
H68   H     H_    0.197281 0.275476 0.704255 0.270741
C68   C     C_3   0.305436 0.121259 0.694532 -0.960139
H69   H     H_    0.357480 0.068709 0.643768 0.259424
H70   H     H_    0.236241 0.096373 0.710874 0.284145
H71   H     H_    0.353930 0.118080 0.757242 0.267321
O21   O     O_3   0.037809 0.232578 0.643777 -0.649421
C69   C     C_3   0.008825 0.145060 0.638746 0.026215
H72   H     H_    0.085082 0.078623 0.635203 0.161972
H73   H     H_    0.961103 0.139478 0.577187 0.136881
C70   C     C_3   0.948331 0.137907 0.724879 -0.282374
H74   H     H_    0.003650 0.130230 0.784118 0.230519
H75   H     H_    0.876615 0.207633 0.734291 0.241649
C71   C     C_3   0.909695 0.048265 0.721104 -0.945102
H76   H     H_    0.851388 0.056489 0.663974 0.263865
H77   H     H_    0.867703 0.044396 0.785098 0.288377
H78   H     H_    0.980354 0.977410 0.712516 0.267981

loop_
_geom_bond_atom_site_label_1
_geom_bond_atom_site_label_2
_ccdc_geom_bond_type
O5    Zn1   S    
C23   O5    A    
C71   H76   S    
C50   C51   S    
C49   H28   S    
C61   H56   S    
C34   C37   S    
C2    C4    A    
C19   C20   A    
C62   C63   S    
C4    C8    A    
O17   C59   S    
C56   H44   S    
C52   H36   S    
O12   C46   S    
C26   H4    S    
C61   H54   S    
C38   H9    S    
C47   H23   S    
C23   O6    A    
C71   H77   S    
C67   H67   S    
C44   H18   S    
C30   C35   A    
C18   C24   A    
C28   C29   A    
C62   H58   S    
C64   H61   S    
C3    C7    A    
C42   C43   S    
C5    C6    A    
C45   O11   D    
C15   C16   A    
C5    C36   A    
C18   O12   S    
O7    Zn1   S    
C18   C19   A    
O8    Zn2   S    
C56   H43   S    
C57   C58   S    
C33   C35   A    
C54   H39   S    
C61   H55   S    
C70   C71   S    
C11   C17   A    
O20   C66   S    
C16   C17   A    
C44   H19   S    
O2    Zn2   S    
C9    C36   A    
C53   H37   S    
C20   C23   S    
O4    Zn2   S    
C6    O16   S    
C66   H66   S    
C19   H2    S    
C59   C60   S    
C70   H75   S    
C49   H29   S    
C21   H3    S    
C21   C22   A    
C34   O7    A    
C53   H38   S    
C52   H35   S    
C55   H42   S    
C64   H62   S    
C47   H24   S    
C25   C29   A    
C38   C39   A    
C71   H78   S    
C30   O17   S    
C28   H5    S    
C17   C24   S    
C44   H17   S    
O10   C42   S    
C68   H71   S    
C62   H57   S    
C66   C67   S    
C63   C64   S    
C39   C40   A    
C43   H16   S    
C45   H20   S    
C25   O14   S    
O1    Zn1   S    
C25   C26   A    
C31   H6    S    
C34   O8    A    
C50   H31   S    
C56   C57   S    
C68   H70   S    
C67   H68   S    
C8    C65   S    
C1    O1    A    
C26   N1    A    
C64   H63   S    
N2    Zn1   S    
C51   H32   S    
C48   H27   S    
C15   O10   S    
C50   H30   S    
C20   C21   A    
C9    C37   A    
C66   H65   S    
C31   N2    A    
C54   H41   S    
C57   H45   S    
C12   O3    A    
C10   C12   S    
C58   H49   S    
C12   O4    A    
C42   H14   S    
C70   H74   S    
C51   H33   S    
C48   H26   S    
C49   C50   S    
C67   C68   S    
C46   H22   S    
C32   H7    S    
C65   O19   D    
C40   O20   S    
C8    C37   A    
C32   N2    A    
C27   C28   A    
C27   N1    A    
C16   C45   S    
C58   H48   S    
C59   H50   S    
C47   C48   S    
C63   H60   S    
O21   C69   S    
C65   H64   S    
C9    H1    S    
C42   H13   S    
C7    H10   S    
C4    C5    A    
N1    Zn2   S    
C43   C44   S    
C55   O15   D    
O18   C62   S    
C6    C7    A    
C69   C70   S    
C46   C47   S    
C29   C35   S    
O6    Zn2   S    
C10   C38   A    
C32   C33   A    
C2    C3    A    
C1    O2    A    
C43   H15   S    
C3    C10   A    
O3    Zn1   S    
O16   C56   S    
C68   H69   S    
C11   C13   A    
C30   C31   A    
C13   C41   S    
C60   C61   S    
C60   H53   S    
C41   H12   S    
O13   C49   S    
C53   C54   S    
C60   H52   S    
C22   C24   A    
C36   O18   S    
C54   H40   S    
C57   H46   S    
C11   H11   S    
C27   C55   S    
C2    C40   A    
C69   H72   S    
C51   H34   S    
C48   H25   S    
C69   H73   S    
C46   H21   S    
O14   C52   S    
C33   H8    S    
C22   O13   S    
C14   C15   A    
C1    C14   S    
C39   O21   S    
C13   C14   A    
C52   C53   S    
C63   H59   S    
C41   O9    D    
C58   H47   S    
C59   H51   S    
