data_mof_unit_51833.cif
_audit_creation_date              2012-12-10T20:44:42-0500
_audit_creation_method            fapswitch 2.2
_symmetry_space_group_name_H-M    P1
_symmetry_Int_Tables_number       1
_space_group_crystal_system       triclinic
_cell_length_a                    9.904217
_cell_length_b                    10.798604
_cell_length_c                    16.746115
_cell_angle_alpha                 87.740468
_cell_angle_beta                  93.931846
_cell_angle_gamma                 88.734646
_cell_volume                      1784.86901868

loop_
_atom_site_label
_atom_site_type_symbol
_atom_type_description
_atom_site_fract_x
_atom_site_fract_y
_atom_site_fract_z
_atom_type_partial_charge
C1    C     C_R   0.500992 0.259743 0.497866 0.875823
C2    C     C_R   0.642270 0.596106 0.770107 0.410605
C3    C     C_R   0.583847 0.521790 0.135982 -0.227119
C4    C     C_R   0.579225 0.480177 0.215362 0.152864
C5    C     C_R   0.483660 0.605320 0.100353 0.212837
C6    C     C_R   0.475141 0.525800 0.260422 -0.206763
C7    C     C_R   0.374560 0.607895 0.224506 0.564958
C8    C     C_R   0.379083 0.646494 0.144817 -0.266833
C9    C     C_R   0.618664 0.058560 0.480569 0.113463
C10   C     C_R   0.499835 0.128377 0.485829 -0.131814
C11   C     C_R   0.375309 0.070129 0.473703 -0.305366
C12   C     C_R   0.517112 0.506533 0.653057 0.985616
C13   C     C_R   0.369414 0.941562 0.475184 0.199071
C14   C     C_R   0.492472 0.871782 0.484225 -0.130365
C15   C     C_R   0.614265 0.932018 0.478512 0.108249
C16   C     C_3   0.743745 0.911280 0.528303 -0.495193
C17   C     C_3   0.747241 0.050033 0.532861 -0.381536
C18   C     C_R   0.078891 0.451564 0.563887 0.050253
C19   C     C_R   0.063637 0.557919 0.439651 -0.220002
C20   C     C_R   0.919810 0.555633 0.438683 0.632308
C21   C     C_R   0.937457 0.465095 0.568036 -0.014150
C22   C     C_3   0.930663 0.346069 0.615457 0.657811
C23   C     C_R   0.497694 0.739866 0.496857 0.891146
C24   C     C_3   0.078096 0.318701 0.596489 0.258828
C25   C     C_R   0.482983 0.504073 0.346676 0.926106
C26   C     C_R   0.527089 0.537287 0.737395 -0.429736
C27   C     C_R   0.417834 0.516645 0.784463 0.468216
C28   C     C_R   0.425856 0.545521 0.864764 0.032652
C29   C     C_R   0.546511 0.596186 0.898763 0.007548
C30   C     C_R   0.652893 0.622216 0.850799 0.506963
H1    H     H_    0.730771 0.863041 0.587130 0.241188
H2    H     H_    0.825141 0.871979 0.493577 0.224471
H3    H     H_    0.733325 0.079758 0.594650 0.253419
H4    H     H_    0.833355 0.088724 0.502016 0.245717
H5    H     H_    0.110952 0.602726 0.390292 0.238146
H6    H     H_    0.663149 0.484864 0.101632 0.171534
H7    H     H_    0.299996 0.708082 0.117112 0.184800
H8    H     H_    0.281893 0.123073 0.468603 0.212592
N1    N     N_2   0.572505 0.599538 0.982301 -0.092588
N2    N     N_2   0.472032 0.633067 0.017202 -0.116098
N3    N     N_R   0.142860 0.499130 0.500540 -0.134584
N4    N     N_R   0.857210 0.499170 0.500530 -0.141022
O1    O     O_R   0.614690 0.316790 0.499990 -0.550511
O2    O     O_R   0.385350 0.316760 0.500000 -0.635732
O3    O     O_R   0.627460 0.498860 0.616130 -0.567614
O4    O     O_R   0.398120 0.498820 0.616130 -0.584631
O5    O     O_R   0.614650 0.683240 0.500000 -0.594547
O6    O     O_R   0.385310 0.683210 0.500010 -0.591633
O7    O     O_R   0.601880 0.501180 0.383870 -0.541761
O8    O     O_R   0.372540 0.501140 0.383870 -0.590281
Zn1   Zn    Zn3+2 0.653130 0.500020 0.499990 1.065801
Zn2   Zn    Zn3+2 0.346870 0.499980 0.500010 0.990647
N5    N     N_2   0.680625 0.394324 0.249722 -0.251797
H9    H     H_    0.770432 0.395714 0.221931 0.244018
C31   C     C_3   0.634537 0.269557 0.263711 -0.743647
H10   H     H_    0.603218 0.228120 0.205830 0.236755
H11   H     H_    0.548173 0.269004 0.302624 0.224359
H12   H     H_    0.718123 0.211717 0.294431 0.241027
N6    N     N_2   0.240589 0.884998 0.471270 -0.263816
H13   H     H_    0.171246 0.928882 0.430194 0.229093
C32   C     C_3   0.184559 0.863532 0.548172 -0.707232
H14   H     H_    0.256570 0.809397 0.590487 0.257520
H15   H     H_    0.161331 0.952544 0.575189 0.205651
H16   H     H_    0.089872 0.810909 0.540008 0.232595
F1    F     F_    0.844610 0.609486 0.375580 -0.640296
N7    N     N_2   0.903239 0.361744 0.699387 -0.325274
H17   H     H_    0.801544 0.360452 0.708970 0.259090
C33   C     C_3   0.977292 0.449058 0.748437 -0.643971
H18   H     H_    0.917521 0.473941 0.799454 0.258988
H19   H     H_    0.998175 0.535550 0.713989 0.271168
H20   H     H_    0.072296 0.405296 0.775464 0.290557
F2    F     F_    0.839343 0.269231 0.580101 -0.714711
N8    N     N_2   0.174070 0.294490 0.665126 -0.259423
H21   H     H_    0.272505 0.308009 0.651294 0.297850
C34   C     C_3   0.162253 0.178543 0.710479 -0.777433
H22   H     H_    0.218438 0.184341 0.769829 0.260825
H23   H     H_    0.207288 0.101043 0.678777 0.223742
H24   H     H_    0.055012 0.158767 0.720238 0.262652
N9    N     N_2   0.089260 0.223060 0.537177 -0.298469
H25   H     H_    0.059818 0.138038 0.558687 0.242389
C35   C     C_3   0.042542 0.245475 0.453533 -0.782267
H26   H     H_    0.112987 0.306103 0.422706 0.264321
H27   H     H_    0.938041 0.284854 0.447118 0.270306
H28   H     H_    0.041879 0.156386 0.422537 0.213430
F3    F     F_    0.768336 0.671210 0.883040 -0.620495
F4    F     F_    0.743141 0.631203 0.723813 -0.636177
F5    F     F_    0.275122 0.655114 0.267187 -0.659066
N10   N     N_2   0.316473 0.514615 0.912204 -0.269107
H29   H     H_    0.281086 0.426705 0.903339 0.254213
C36   C     C_3   0.207664 0.606912 0.907401 -0.637229
H30   H     H_    0.158259 0.614798 0.845760 0.262233
H31   H     H_    0.246642 0.698765 0.924013 0.240940
H32   H     H_    0.130844 0.579570 0.949606 0.240194
F6    F     F_    0.302621 0.467759 0.753073 -0.687256

loop_
_geom_bond_atom_site_label_1
_geom_bond_atom_site_label_2
_ccdc_geom_bond_type
N7    C33   S    
C31   H10   S    
C4    N5    S    
C32   H16   S    
C18   C21   A    
N8    H21   S    
C19   C20   A    
C35   H26   S    
C7    C8    A    
N5    H9    S    
C16   H1    S    
C26   C27   A    
C18   C24   S    
C28   C29   A    
C24   N8    S    
C6    C25   S    
O3    Zn1   S    
C15   C16   S    
O4    Zn2   S    
C32   H15   S    
C25   O8    A    
C22   N7    S    
C1    O2    A    
C1    O1    A    
C7    F5    S    
C16   C17   S    
O7    Zn1   S    
C28   N10   S    
O8    Zn2   S    
C9    C10   A    
N3    Zn2   S    
N4    Zn1   S    
O2    Zn2   S    
N7    H17   S    
N6    H13   S    
C13   C14   A    
N8    C34   S    
C17   H3    S    
C22   F2    S    
C35   H27   S    
N5    C31   S    
N6    C32   S    
C23   O5    A    
C20   F1    S    
C12   O4    A    
C18   N3    A    
N1    N2    D    
N9    C35   S    
C33   H18   S    
O5    Zn1   S    
C21   N4    A    
C12   C26   S    
C14   C23   S    
C11   H8    S    
C34   H22   S    
C29   C30   A    
C24   N9    S    
C36   H31   S    
C29   N1    S    
C2    C26   A    
C30   F3    S    
C34   H23   S    
C4    C6    A    
N10   C36   S    
C31   H11   S    
C22   C24   S    
C31   H12   S    
C8    H7    S    
C3    C4    A    
C35   H28   S    
C36   H32   S    
C9    C17   S    
C23   O6    A    
C1    C10   S    
C12   O3    A    
C3    C5    A    
C5    C8    A    
C20   N4    A    
C6    C7    A    
C13   N6    S    
C16   H2    S    
C2    C30   A    
C9    C15   A    
C19   H5    S    
C11   C13   A    
O1    Zn1   S    
C36   H30   S    
C3    H6    S    
C33   H20   S    
C2    F4    S    
C32   H14   S    
C34   H24   S    
C25   O7    A    
C10   C11   A    
N9    H25   S    
O6    Zn2   S    
N10   H29   S    
C33   H19   S    
C17   H4    S    
C5    N2    S    
C27   C28   A    
C14   C15   A    
C27   F6    S    
C21   C22   S    
C19   N3    A    
