data_mof_unit_64928.cif
_audit_creation_date              2012-10-26T17:23:08-0400
_audit_creation_method            fapswitch 2.2
_symmetry_space_group_name_H-M    P1
_symmetry_Int_Tables_number       1
_space_group_crystal_system       triclinic
_cell_length_a                    42.579926
_cell_length_b                    29.421735
_cell_length_c                    30.761911
_cell_angle_alpha                 89.996073
_cell_angle_beta                  136.289344
_cell_angle_gamma                 90.002899
_cell_volume                      26630.2433324

loop_
_atom_site_label
_atom_site_type_symbol
_atom_type_description
_atom_site_fract_x
_atom_site_fract_y
_atom_site_fract_z
_atom_type_partial_charge
C1    C     C_R   0.585494 0.500000 0.585941 0.550899
C2    C     C_1   0.000372 0.000010 0.335936 0.003792
C3    C     C_3   0.524331 0.545839 0.245732 0.311105
C4    C     C_3   0.023309 0.953994 0.244655 0.279666
C5    C     C_3   0.030074 0.042362 0.251504 0.293332
C6    C     C_1   0.500232 0.499854 0.119980 -0.007766
C7    C     C_1   0.000198 0.000043 0.119956 -0.007966
C8    C     C_3   0.501204 0.500366 0.290284 -0.039309
C9    C     C_3   0.000720 0.000019 0.289753 -0.009706
C10   C     C_3   0.501819 0.499731 0.206438 0.186141
C11   C     C_3   0.001493 0.000118 0.206142 0.214266
C12   C     C_1   0.500265 0.500048 0.374114 -0.010020
C13   C     C_1   0.000108 0.000006 0.373944 0.006221
C14   C     C_1   0.636541 0.500000 0.636893 -0.038808
C15   C     C_1   0.136541 0.000000 0.636895 -0.038810
C16   C     C_1   0.678863 0.500000 0.679136 -0.031826
C17   C     C_1   0.178863 0.000000 0.679138 -0.031912
C18   C     C_1   0.729027 0.500000 0.729212 0.006097
C19   C     C_1   0.229027 0.000000 0.729213 0.005999
C20   C     C_1   0.771349 0.500000 0.771464 0.006214
C21   C     C_R   0.085494 0.000000 0.585942 0.550229
C22   C     C_1   0.271349 0.000000 0.771464 0.006158
C23   C     C_1   0.821514 0.500000 0.821557 -0.030619
C24   C     C_1   0.321514 0.000000 0.821558 -0.030619
C25   C     C_R   0.499862 0.500005 0.418735 0.567778
C26   C     C_R   0.999882 0.000002 0.418752 0.565631
C27   C     C_1   0.863836 0.500000 0.863839 -0.035977
C28   C     C_1   0.363836 0.000000 0.863839 -0.035939
C29   C     C_1   0.499980 0.499997 0.635292 -0.041235
C30   C     C_1   0.999980 0.999996 0.635292 -0.041067
C31   C     C_1   0.499984 0.499996 0.676673 -0.026555
C32   C     C_3   0.450884 0.496665 0.172478 0.458668
C33   C     C_1   0.999984 0.999996 0.676673 -0.026348
C34   C     C_1   0.499990 0.499997 0.726104 0.005844
C35   C     C_1   0.999990 0.999997 0.726104 0.006070
C36   C     C_1   0.499994 0.499997 0.767486 0.005772
C37   C     C_1   0.999994 0.999997 0.767486 0.006004
C38   C     C_1   0.499999 0.499998 0.816917 -0.026606
C39   C     C_1   0.999999 0.999998 0.816917 -0.026393
C40   C     C_1   0.500006 0.499999 0.858300 -0.040613
C41   C     C_1   0.000006 0.999999 0.858300 -0.040457
C42   C     C_1   0.363413 0.500000 0.363772 -0.038671
C43   C     C_3   0.950705 0.004363 0.172379 0.445491
C44   C     C_1   0.863413 1.000000 0.363772 -0.037883
C45   C     C_1   0.321093 0.500000 0.321390 -0.031379
C46   C     C_1   0.821093 1.000000 0.321390 -0.030768
C47   C     C_1   0.270931 0.500000 0.271158 0.006604
C48   C     C_1   0.770931 1.000000 0.271159 0.007073
C49   C     C_R   0.414457 0.500000 0.414895 0.550349
C50   C     C_R   0.914457 1.000000 0.414895 0.550355
C51   C     C_1   0.228612 0.500000 0.228784 0.006566
C52   C     C_1   0.728612 1.000000 0.228784 0.007002
C53   C     C_1   0.178450 0.500000 0.178562 -0.030497
C54   C     C_3   0.451862 0.494828 0.223995 -0.143733
C55   C     C_1   0.678450 1.000000 0.178562 -0.030077
C56   C     C_1   0.136129 0.500000 0.136199 -0.036014
C57   C     C_1   0.636130 0.000000 0.136199 -0.035644
C58   C     C_R   0.500034 0.585446 0.994569 0.554284
C59   C     C_R   0.500034 0.414554 0.994570 0.550804
C60   C     C_R   0.000034 0.085446 0.994570 0.551432
C61   C     C_R   0.000034 0.914554 0.994570 0.552940
C62   C     C_R   0.500043 0.499973 0.074777 0.569702
C63   C     C_R   0.000041 0.999998 0.074777 0.568047
C64   C     C_R   0.500021 0.500000 0.908655 0.542317
C65   C     C_3   0.951249 0.003261 0.223475 -0.144981
C66   C     C_R   0.000021 1.000000 0.908655 0.542533
C67   C     C_R   0.000015 0.414872 0.999132 0.547340
C68   C     C_R   0.000016 0.585128 0.999129 0.547284
C69   C     C_R   0.500015 0.914872 0.999132 0.547364
C70   C     C_R   0.500015 0.085128 0.999129 0.547215
C71   C     C_R   0.914883 0.500000 0.914885 0.547444
C72   C     C_R   0.414883 1.000000 0.914885 0.547333
C73   C     C_R   0.085086 0.500000 0.085119 0.547330
C74   C     C_R   0.585086 0.000000 0.085119 0.547375
C75   C     C_1   0.500048 0.636498 0.995410 -0.032738
C76   C     C_1   0.500860 0.499755 0.158872 0.051567
C77   C     C_1   0.500048 0.363502 0.995409 -0.036044
C78   C     C_1   0.000048 0.136498 0.995410 -0.035579
C79   C     C_1   0.000048 0.863502 0.995409 -0.034850
C80   C     C_R   0.499975 0.499999 0.584948 0.544186
C81   C     C_R   0.999975 0.999999 0.584948 0.543767
C82   C     C_1   0.500050 0.678822 0.996135 -0.026838
C83   C     C_1   0.500050 0.321178 0.996133 -0.029282
C84   C     C_1   0.000050 0.178822 0.996136 -0.028939
C85   C     C_1   0.000050 0.821178 0.996133 -0.028886
C86   C     C_1   0.500047 0.728991 0.996993 0.009251
C87   C     C_1   0.000710 0.000086 0.158735 0.061625
C88   C     C_1   0.500047 0.271009 0.996988 0.007659
C89   C     C_1   0.000047 0.228991 0.996993 0.007857
C90   C     C_1   0.000047 0.771009 0.996989 0.007573
C91   C     C_1   0.000042 0.271314 0.997687 0.007218
C92   C     C_1   0.000042 0.728685 0.997681 0.006912
C93   C     C_1   0.500042 0.771314 0.997687 0.008223
C94   C     C_1   0.500042 0.228685 0.997681 0.007108
C95   C     C_1   0.000034 0.321485 0.998433 -0.030119
C96   C     C_1   0.000034 0.678514 0.998425 -0.030375
C97   C     C_1   0.500034 0.821486 0.998432 -0.029421
C98   C     C_1   0.500703 0.500195 0.336285 -0.037103
C99   C     C_1   0.500034 0.178514 0.998425 -0.030160
C100  C     C_1   0.000026 0.363813 0.998913 -0.035820
C101  C     C_1   0.000026 0.636187 0.998906 -0.036001
C102  C     C_1   0.500026 0.863813 0.998913 -0.035348
C103  C     C_1   0.500026 0.136187 0.998906 -0.035822
C104  C     C_3   0.522710 0.545874 0.295152 -0.005338
C105  C     C_3   0.531461 0.460136 0.303965 0.010634
C106  C     C_3   0.029176 0.041408 0.301752 0.003757
C107  C     C_3   0.023495 0.955345 0.295956 -0.007470
C108  C     C_3   0.529005 0.456618 0.250530 0.279013
Cu1   Cu    Cu3+1 0.499970 0.542470 0.500570 0.956207
Cu2   Cu    Cu3+1 0.499990 0.000000 0.958110 0.961987
Cu3   Cu    Cu3+1 0.999980 0.500000 0.041890 0.957005
Cu4   Cu    Cu3+1 0.499980 0.000000 0.041890 0.958887
Cu5   Cu    Cu3+1 0.499970 0.457530 0.500570 0.966508
Cu6   Cu    Cu3+1 0.999970 0.042470 0.500570 0.965107
Cu7   Cu    Cu3+1 0.999970 0.957530 0.500570 0.964516
Cu8   Cu    Cu3+1 0.542500 0.500000 0.035600 0.958856
Cu9   Cu    Cu3+1 0.042500 0.000000 0.035600 0.957383
Cu10  Cu    Cu3+1 0.457550 0.500000 0.950640 0.978905
Cu11  Cu    Cu3+1 0.957550 1.000000 0.950640 0.979509
Cu12  Cu    Cu3+1 0.999990 0.500000 0.958110 0.962277
H1    H     H_    0.558171 0.547026 0.343337 0.139407
H2    H     H_    0.575162 0.544169 0.248786 0.253496
H3    H     H_    0.593971 0.429486 0.312172 0.221056
H4    H     H_    0.573765 0.447324 0.244008 0.250032
H5    H     H_    0.096620 0.065739 0.316924 0.212600
H6    H     H_    0.078608 0.044893 0.251308 0.248349
H7    H     H_    0.070091 0.943345 0.242091 0.250071
H8    H     H_    0.085384 0.920518 0.305016 0.214068
H9    H     H_    0.544964 0.392903 0.331683 0.227071
H10   H     H_    0.488750 0.404858 0.273534 0.281607
H11   H     H_    0.506109 0.589172 0.329348 0.234394
H12   H     H_    0.567131 0.468453 0.349008 0.135545
H13   H     H_    0.465363 0.585931 0.250157 0.244074
H14   H     H_    0.023289 0.886599 0.309130 0.232106
H15   H     H_    0.970570 0.908664 0.250497 0.260281
H16   H     H_    0.037195 0.109680 0.323193 0.229247
H17   H     H_    0.982355 0.094429 0.260658 0.293310
H18   H     H_    0.526483 0.390273 0.238853 0.326854
H19   H     H_    0.516656 0.611181 0.227471 0.372522
H20   H     H_    0.014860 0.888588 0.225008 0.327855
H21   H     H_    0.032156 0.108244 0.242145 0.324641
H22   H     H_    0.424223 0.558769 0.151512 0.342986
H23   H     H_    0.064549 0.036172 0.349217 0.142807
H24   H     H_    0.422209 0.460197 0.097940 0.361014
H25   H     H_    0.924671 0.044778 0.102200 0.363835
H26   H     H_    0.922668 0.942640 0.146129 0.345809
H27   H     H_    0.059474 0.956343 0.343371 0.149263
H28   H     H_    0.428822 0.520358 0.215823 0.082931
H29   H     H_    0.437791 0.461893 0.221458 0.169598
H30   H     H_    0.934585 0.034208 0.220138 0.162934
H31   H     H_    0.930575 0.974901 0.216111 0.096849
H32   H     H_    0.594710 0.531436 0.319053 0.236696
N1    N     N_3   0.571882 0.551399 0.278605 -0.620144
N2    N     N_3   0.575354 0.455487 0.278656 -0.689282
N3    N     N_3   0.077577 0.039506 0.283873 -0.618448
N4    N     N_3   0.070431 0.949231 0.275961 -0.612196
N5    N     N_3   0.520389 0.417191 0.315062 -0.622924
N6    N     N_3   0.500368 0.586864 0.290135 -0.612983
N7    N     N_3   0.002925 0.914867 0.295477 -0.635229
N8    N     N_3   0.013196 0.084237 0.305224 -0.631826
O1    O     O_R   0.561950 0.535860 0.562460 -0.483270
O2    O     O_R   0.500010 0.061990 0.963800 -0.481662
O3    O     O_R   1.000000 0.438000 0.034540 -0.481685
O4    O     O_R   1.000000 0.562000 0.034540 -0.481944
O5    O     O_R   0.500000 0.938000 0.034540 -0.481266
O6    O     O_R   0.500000 0.062000 0.034540 -0.481725
O7    O     O_R   0.938010 0.500000 0.902650 -0.481243
O8    O     O_R   0.438010 0.000000 0.902650 -0.481454
O9    O     O_R   0.938010 0.500000 0.973390 -0.482195
O10   O     O_R   0.438010 0.000000 0.973390 -0.482036
O11   O     O_R   0.061960 0.500000 0.026610 -0.480451
O12   O     O_R   0.561950 0.464140 0.562460 -0.482550
O13   O     O_R   0.561960 0.000000 0.026610 -0.480573
O14   O     O_R   0.061960 0.500000 0.097350 -0.482838
O15   O     O_R   0.561960 0.000000 0.097350 -0.482541
O16   O     O_R   0.499980 0.535870 0.439370 -0.501756
O17   O     O_R   0.499980 0.464130 0.439370 -0.487025
O18   O     O_R   0.999980 0.035870 0.439370 -0.492457
O19   O     O_R   0.999980 0.964130 0.439370 -0.492527
O20   O     O_R   0.438000 0.535860 0.438500 -0.483654
O21   O     O_R   0.438000 0.464140 0.438500 -0.482952
O22   O     O_R   0.938000 0.035860 0.438500 -0.483160
O23   O     O_R   0.061950 0.035860 0.562460 -0.483152
O24   O     O_R   0.938000 0.964140 0.438500 -0.483261
O25   O     O_R   0.499970 0.535850 0.561590 -0.480457
O26   O     O_R   0.499970 0.464150 0.561590 -0.480940
O27   O     O_R   0.999970 0.035850 0.561590 -0.481079
O28   O     O_R   0.999970 0.964150 0.561590 -0.481002
O29   O     O_R   0.535890 0.561890 0.029840 -0.483548
O30   O     O_R   0.535890 0.438110 0.029840 -0.484806
O31   O     O_R   0.035890 0.061890 0.029840 -0.484277
O32   O     O_R   0.035890 0.938110 0.029840 -0.484724
O33   O     O_R   0.464160 0.561920 0.958100 -0.480120
O34   O     O_R   0.061950 0.964140 0.562460 -0.483355
O35   O     O_R   0.464160 0.438080 0.958100 -0.482364
O36   O     O_R   0.964160 0.061920 0.958100 -0.482209
O37   O     O_R   0.964160 0.938080 0.958100 -0.479879
O38   O     O_R   0.535890 0.500000 0.090110 -0.500900
O39   O     O_R   0.035890 0.000000 0.090110 -0.501133
O40   O     O_R   0.464150 0.500000 0.018360 -0.482629
O41   O     O_R   0.964150 0.000000 0.018360 -0.482006
O42   O     O_R   0.535900 0.500000 0.967880 -0.482864
O43   O     O_R   0.035900 0.000000 0.967880 -0.482768
O44   O     O_3   0.505966 0.416719 0.214303 -0.660993
O45   O     O_R   0.464160 0.500000 0.896130 -0.483413
O46   O     O_3   0.499431 0.582881 0.203982 -0.655754
O47   O     O_3   0.997494 0.917068 0.202841 -0.708933
O48   O     O_3   0.010622 0.082824 0.215550 -0.676201
O49   O     O_3   0.424515 0.533583 0.130501 -0.651918
O50   O     O_3   0.429709 0.456436 0.136705 -0.621008
O51   O     O_3   0.931609 0.046310 0.140694 -0.629780
O52   O     O_3   0.922794 0.969573 0.126961 -0.655027
O53   O     O_R   0.964160 0.000000 0.896130 -0.483163
O54   O     O_R   0.000010 0.438010 0.963800 -0.481589
O55   O     O_R   0.000010 0.561990 0.963800 -0.481468
O56   O     O_R   0.500010 0.938010 0.963800 -0.481822

loop_
_geom_bond_atom_site_label_1
_geom_bond_atom_site_label_2
_ccdc_geom_bond_type
C3    C104  S    
C99   C103  T    
Cu8   O29   S    
Cu7   O28   S    
H4    N2    S    
Cu3   O14   S    
C10   C108  S    
Cu11  O41   S    
C92   C96   S    
Cu10  O40   S    
C8    C105  S    
C59   C77   S    
H24   O50   S    
Cu7   O24   S    
C73   O14   A    
Cu1   O16   S    
C106  H23   S    
C39   C41   T    
C28   C72   S    
C26   O19   A    
Cu12  O55   S    
C60   C78   S    
H10   N5    S    
H19   O46   S    
C5    C11   S    
Cu9   Cu11  S    
C25   O17   A    
C53   C56   T    
C8    C104  S    
C77   C83   T    
Cu12  O54   S    
Cu6   O23   S    
C63   O39   A    
C3    N1    S    
C32   O50   S    
C18   C20   T    
C15   C17   T    
Cu11  O36   S    
C65   H30   S    
C68   O55   A    
Cu10  O33   S    
C8    C98   S    
Cu6   O22   S    
Cu9   O31   S    
C17   C19   S    
Cu8   O38   S    
H18   O44   S    
C105  N5    S    
C11   C87   S    
Cu6   O18   S    
C61   O32   A    
C80   O25   A    
C71   O9    A    
C11   C43   S    
C23   C27   T    
C21   O34   A    
C105  H12   S    
C1    O12   A    
C43   O51   S    
C81   O28   A    
C12   C98   T    
C97   C102  T    
Cu9   O39   S    
C52   C55   S    
Cu1   Cu5   S    
C49   O20   A    
H6    N3    S    
C26   O18   A    
H14   N7    S    
C1    O1    A    
C30   C33   T    
C10   C32   S    
C71   O7    A    
C96   C101  T    
C72   O8    A    
C50   O22   A    
C69   O56   A    
Cu2   O8    S    
C70   O2    A    
C32   C54   S    
C105  C108  S    
C44   C46   T    
C58   C75   S    
Cu6   Cu7   S    
Cu5   O12   S    
C69   O5    A    
C5    C106  S    
C45   C47   S    
Cu2   O2    S    
C37   C39   S    
C4    C107  S    
C88   C94   T    
H15   N7    S    
Cu8   O30   S    
C19   C22   T    
Cu3   O3    S    
C68   C101  S    
C62   O38   A    
C74   O13   A    
C8    C54   S    
C69   C102  S    
C95   C100  T    
C47   C51   T    
C104  H1    S    
Cu1   O25   S    
C9    C106  S    
C5    N3    S    
Cu6   O27   S    
Cu3   Cu12  S    
Cu3   O9    S    
C42   C45   T    
C72   O10   A    
C57   C74   S    
C65   H31   S    
H11   N6    S    
Cu2   O56   S    
C43   O52   S    
C86   C93   T    
C67   O3    A    
C107  H27   S    
C90   C92   T    
C20   C23   S    
C48   C52   T    
C43   C65   S    
Cu4   O6    S    
C107  N7    S    
Cu10  O45   S    
C58   O29   A    
C31   C34   S    
C108  N2    S    
Cu12  O11   S    
C4    C11   S    
Cu10  O35   S    
C2    C13   T    
C7    C63   S    
C67   C100  S    
C49   O21   A    
C66   O43   A    
C16   C18   S    
C4    N4    S    
Cu7   O34   S    
Cu11  O53   S    
C55   C57   T    
H2    N1    S    
C22   C24   S    
C13   C26   S    
Cu5   O21   S    
C73   O11   A    
C84   C89   S    
C61   O37   A    
H20   O47   S    
C93   C97   S    
C79   C85   T    
C27   C71   S    
C60   O36   A    
C4    O47   S    
C54   H28   S    
Cu2   O13   S    
C44   C50   S    
C21   O23   A    
C64   O42   A    
C9    C65   S    
C56   C73   S    
C63   O41   A    
H17   N8    S    
C35   C37   T    
Cu11  O37   S    
C3    O46   S    
C10   C76   S    
C50   O24   A    
Cu3   O4    S    
C24   C28   T    
C104  N6    S    
C59   O30   A    
H7    N4    S    
H26   O52   S    
C85   C90   S    
C75   C82   T    
C6    C76   T    
C41   C66   S    
H25   O51   S    
C9    C107  S    
C64   O45   A    
C58   O33   A    
C40   C64   S    
C12   C25   S    
Cu4   O10   S    
C6    C62   S    
C66   O53   A    
C70   O6    A    
C68   O4    A    
C62   O40   A    
C74   O15   A    
C29   C31   T    
C3    C10   S    
C82   C86   S    
C5    O48   S    
C38   C40   T    
C32   O49   S    
Cu1   O20   S    
C29   C80   S    
C94   C99   S    
C61   C79   S    
C60   O31   A    
C106  N8    S    
Cu5   O26   S    
Cu9   O32   S    
C36   C38   S    
C33   C35   S    
C34   C36   T    
Cu8   Cu10  S    
Cu4   O5    S    
C83   C88   S    
C14   C16   T    
H13   N6    S    
H9    N5    S    
Cu2   Cu4   S    
H21   O48   S    
C59   O35   A    
H8    N4    S    
C42   C49   S    
C91   C95   S    
H16   N8    S    
C46   C48   S    
C78   C84   T    
C15   C21   S    
Cu4   O15   S    
C7    C87   T    
H32   N1    S    
C108  O44   S    
C89   C91   T    
Cu8   O42   S    
C80   O26   A    
C67   O54   A    
Cu1   O1    S    
C1    C14   S    
H22   O49   S    
C51   C53   S    
Cu9   O43   S    
C2    C9    S    
Cu5   O17   S    
C81   O27   A    
C30   C81   S    
Cu7   O19   S    
C54   H29   S    
H5    N3    S    
Cu12  O7    S    
C25   O16   A    
C70   C103  S    
H3    N2    S    
