data_mof_unit_20961.cif
_audit_creation_date              2012-12-10T20:28:42-0500
_audit_creation_method            fapswitch 2.2
_symmetry_space_group_name_H-M    P1
_symmetry_Int_Tables_number       1
_space_group_crystal_system       triclinic
_cell_length_a                    10.632866
_cell_length_b                    10.685923
_cell_length_c                    9.88262
_cell_angle_alpha                 89.964779
_cell_angle_beta                  90.360507
_cell_angle_gamma                 89.489135
_cell_volume                      1122.81581128

loop_
_atom_site_label
_atom_site_type_symbol
_atom_type_description
_atom_site_fract_x
_atom_site_fract_y
_atom_site_fract_z
_atom_type_partial_charge
C1    C     C_R   0.496146 0.260047 0.500171 0.839747
C2    C     C_R   0.067774 0.387445 0.561304 0.099340
C3    C     C_R   0.128560 0.488432 0.498349 -0.093486
C4    C     C_R   0.063117 0.584382 0.433075 -0.203259
C5    C     C_R   0.934581 0.584652 0.434111 -0.160904
C6    C     C_R   0.872013 0.489179 0.500751 -0.082842
C7    C     C_R   0.477637 0.063767 0.623375 0.049026
C8    C     C_R   0.476206 0.128851 0.501145 -0.060009
C9    C     C_R   0.451393 0.065219 0.379873 -0.203265
C10   C     C_R   0.452050 0.935775 0.379590 -0.214426
C11   C     C_R   0.478515 0.871571 0.500401 -0.069029
C12   C     C_R   0.260596 0.497194 0.499586 0.854070
C13   C     C_R   0.481332 0.936284 0.622536 0.044234
C14   C     C_3   0.569969 0.929554 0.740868 0.140520
C15   C     C_3   0.564635 0.071601 0.742640 -0.512036
C16   C     C_R   0.392882 0.473539 0.070390 0.202214
C17   C     C_R   0.601953 0.538656 0.072835 -0.239831
C18   C     C_R   0.602022 0.538977 0.929199 0.652101
C19   C     C_R   0.392681 0.474061 0.928130 0.116185
C20   C     C_3   0.318061 0.356829 0.921591 -0.483969
C21   C     C_3   0.319480 0.355485 0.075387 -0.474140
C22   C     C_R   0.496489 0.739932 0.499907 0.917418
C23   C     C_R   0.739557 0.496960 0.500356 0.898474
C24   C     C_R   0.134518 0.285009 0.618607 -0.209986
C25   C     C_R   0.070553 0.186933 0.679684 -0.130986
C26   C     C_R   0.939776 0.188176 0.682782 -0.105178
C27   C     C_R   0.872521 0.287148 0.624109 -0.163833
C28   C     C_R   0.936002 0.388200 0.563346 0.100736
H1    H     H_    0.111908 0.660487 0.383894 0.154534
H2    H     H_    0.517012 0.109467 0.833770 0.174624
H3    H     H_    0.654938 0.117151 0.718018 0.217459
H4    H     H_    0.684971 0.568200 0.127450 0.190324
H5    H     H_    0.222644 0.373628 0.878438 0.225697
H6    H     H_    0.370881 0.277694 0.875494 0.203583
H7    H     H_    0.224860 0.370142 0.120229 0.213058
H8    H     H_    0.374548 0.276096 0.118880 0.200983
H9    H     H_    0.235969 0.279010 0.615806 0.147857
H10   H     H_    0.122624 0.109372 0.723824 0.148837
H11   H     H_    0.890421 0.111614 0.729660 0.176203
H12   H     H_    0.771137 0.282995 0.625321 0.136463
H13   H     H_    0.883553 0.660746 0.385256 0.164819
H14   H     H_    0.440040 0.114246 0.284631 0.160637
H15   H     H_    0.440316 0.887073 0.284288 0.170114
H16   H     H_    0.526583 0.885949 0.831233 0.134248
N1    N     N_R   0.499160 0.499140 0.142800 -0.140126
N2    N     N_R   0.499160 0.499180 0.857150 -0.168707
O1    O     O_R   0.500020 0.316790 0.614690 -0.636562
O2    O     O_R   0.500000 0.316760 0.385350 -0.619316
O3    O     O_R   0.316770 0.500020 0.614690 -0.620751
O4    O     O_R   0.316760 0.499980 0.385350 -0.618535
O5    O     O_R   0.500000 0.683240 0.614650 -0.585840
O6    O     O_R   0.499980 0.683210 0.385310 -0.628100
O7    O     O_R   0.683240 0.500020 0.614650 -0.530317
O8    O     O_R   0.683230 0.499980 0.385310 -0.631643
Zn1   Zn    Zn3+2 0.500010 0.500020 0.653130 1.005061
Zn2   Zn    Zn3+2 0.499990 0.499980 0.346870 0.948849
Br1   Br    Br    0.736710 0.865125 0.696257 -0.482877
F1    F     F_    0.706168 0.577764 0.863857 -0.617466

loop_
_geom_bond_atom_site_label_1
_geom_bond_atom_site_label_2
_ccdc_geom_bond_type
C16   N1    A    
N2    Zn1   S    
C4    H1    S    
C12   O4    A    
C14   Br1   S    
C1    O2    A    
C15   H3    S    
C16   C21   S    
C21   H7    S    
C25   H10   S    
C24   H9    S    
C1    C8    S    
O4    Zn2   S    
C9    C10   A    
C10   H15   S    
C11   C22   S    
C1    O1    A    
C19   C20   S    
C27   H12   S    
C20   H6    S    
C7    C15   S    
C12   O3    A    
C9    H14   S    
C19   N2    A    
C7    C8    A    
C21   H8    S    
C13   C14   S    
C24   C25   A    
C4    C5    A    
C11   C13   A    
C26   C27   A    
C23   O8    A    
C16   C19   A    
C6    C23   S    
C18   N2    A    
C23   O7    A    
C22   O6    A    
C17   N1    A    
C2    C3    A    
C14   H16   S    
O5    Zn1   S    
O7    Zn1   S    
C2    C24   A    
C5    C6    A    
C17   H4    S    
O8    Zn2   S    
C26   H11   S    
C10   C11   A    
C20   H5    S    
C3    C4    A    
C7    C13   A    
C20   C21   S    
C15   H2    S    
C17   C18   A    
C27   C28   A    
O2    Zn2   S    
O1    Zn1   S    
C5    H13   S    
C14   C15   S    
C22   O5    A    
C2    C28   A    
C3    C12   S    
C25   C26   A    
O3    Zn1   S    
C18   F1    S    
C6    C28   A    
O6    Zn2   S    
N1    Zn2   S    
C8    C9    A    
