data_mof_unit_67062.cif
_audit_creation_date              2012-12-11T17:41:20-0500
_audit_creation_method            fapswitch 2.2
_symmetry_space_group_name_H-M    P1
_symmetry_Int_Tables_number       1
_space_group_crystal_system       triclinic
_cell_length_a                    8.174947
_cell_length_b                    12.659402
_cell_length_c                    14.217906
_cell_angle_alpha                 92.784551
_cell_angle_beta                  90.597074
_cell_angle_gamma                 98.328405
_cell_volume                      1453.94699828

loop_
_atom_site_label
_atom_site_type_symbol
_atom_type_description
_atom_site_fract_x
_atom_site_fract_y
_atom_site_fract_z
_atom_type_partial_charge
Ba1   Ba    Ba6+2 0.855630 0.555280 0.454520 1.638106
Ba2   Ba    Ba6+2 0.334200 0.444810 0.545490 1.642553
Br1   Br    Br    0.288761 0.169748 0.121210 -0.642263
C1    C     C_3   0.602811 0.948601 0.179437 -0.379551
C2    C     C_R   0.183333 0.497970 0.195637 0.047205
C3    C     C_R   0.338453 0.549899 0.225666 -0.303637
C4    C     C_3   0.143077 0.803066 0.194934 0.365677
C5    C     C_R   0.451343 0.597037 0.162114 0.016514
C6    C     C_R   0.406519 0.600007 0.067344 -0.147009
C7    C     C_R   0.249359 0.551306 0.034546 -0.001817
C8    C     C_R   0.137751 0.496233 0.097858 -0.009018
C9    C     C_R   0.053185 0.501645 0.901879 -0.022923
C10   C     C_R   0.941778 0.446234 0.965145 -0.008911
C11   C     C_R   0.007884 0.499729 0.804017 0.045249
C12   C     C_3   0.647705 0.856868 0.234945 0.317685
C13   C     C_R   0.854406 0.445249 0.773629 -0.293762
C14   C     C_R   0.740854 0.398842 0.837270 0.012201
C15   C     C_R   0.784984 0.396958 0.932240 -0.148636
C16   C     C_3   0.126956 0.839344 0.095239 -0.339318
C17   C     C_R   0.205017 0.555737 0.938796 -0.034099
C18   C     C_R   0.763849 0.176656 0.536850 -0.276709
C19   C     C_R   0.429119 0.813213 0.461374 -0.286519
C20   C     C_R   0.405870 0.994996 0.427819 -0.101386
C21   C     C_R   0.340885 0.887476 0.423054 -0.008782
C22   C     C_R   0.576178 0.846253 0.512388 0.067477
C23   C     C_3   0.476675 0.309495 0.258326 0.329050
C24   C     C_R   0.641052 0.956892 0.521936 -0.057653
C25   C     C_R   0.555207 0.031576 0.477315 -0.063712
C26   C     C_R   0.619084 0.141368 0.485239 0.041477
C27   C     C_R   0.853330 0.104455 0.576677 -0.006389
C28   C     C_3   0.226033 0.762899 0.656464 0.281211
C29   C     C_R   0.789864 0.995558 0.572665 -0.091182
C30   C     C_3   0.240604 0.882561 0.677617 -0.352142
C31   C     C_3   0.969174 0.236762 0.344314 0.301698
C32   C     C_3   0.956227 0.117181 0.322814 -0.314472
C33   C     C_3   0.713922 0.672748 0.737834 0.307272
C34   C     C_3   0.462630 0.287705 0.152132 0.086289
C35   C     C_3   0.729828 0.696240 0.843818 -0.392907
C36   C     C_3   0.044830 0.194296 0.804292 0.323863
C37   C     C_3   0.057339 0.156220 0.903383 -0.315234
C38   C     C_3   0.540035 0.141391 0.765384 0.344226
C39   C     C_3   0.587499 0.052079 0.823079 -0.395926
C40   C     C_R   0.985703 0.442378 0.061031 -0.014033
H1    H     H_    0.740140 0.888966 0.290783 0.080668
H2    H     H_    0.831380 0.650433 0.711373 0.010922
H3    H     H_    0.612282 0.605514 0.723552 0.066331
H4    H     H_    0.555213 0.008305 0.227646 0.124946
H5    H     H_    0.837082 0.759149 0.860398 0.129332
H6    H     H_    0.748132 0.623254 0.880111 0.063548
H7    H     H_    0.615562 0.724244 0.870604 0.119287
H8    H     H_    0.533732 0.819957 0.269497 -0.046508
H9    H     H_    0.505907 0.917784 0.125768 0.126142
H10   H     H_    0.356852 0.329097 0.284588 0.019030
H11   H     H_    0.574757 0.378889 0.273166 0.004140
H12   H     H_    0.325893 0.905905 0.738424 0.113637
H13   H     H_    0.433894 0.359681 0.117515 0.009433
H14   H     H_    0.581502 0.267208 0.124826 0.074081
H15   H     H_    0.712955 0.987733 0.142843 0.138722
H16   H     H_    0.209308 0.915907 0.086738 0.157994
H17   H     H_    0.126598 0.272041 0.800597 0.097186
H18   H     H_    0.914926 0.205625 0.790471 -0.065652
H19   H     H_    0.018879 0.216073 0.955078 0.099731
H20   H     H_    0.976407 0.078628 0.909812 0.110257
H21   H     H_    0.186867 0.145406 0.919159 0.196170
H22   H     H_    0.652899 0.178170 0.729643 -0.058514
H23   H     H_    0.289232 0.926471 0.616064 0.080522
H24   H     H_    0.447971 0.106876 0.710175 0.079411
H25   H     H_    0.682603 0.085562 0.876918 0.118416
H26   H     H_    0.638109 0.992193 0.776405 0.087704
H27   H     H_    0.059496 0.726442 0.200720 0.088953
H28   H     H_    0.477800 0.012389 0.859719 0.139713
H29   H     H_    0.374621 0.549781 0.299088 0.071732
H30   H     H_    0.494722 0.639389 0.019348 0.071065
H31   H     H_    0.696323 0.358274 0.980347 0.073806
H32   H     H_    0.818916 0.444300 0.700026 0.068333
H33   H     H_    0.899312 0.397122 0.106201 0.093040
H34   H     H_    0.117348 0.904512 0.694824 0.143171
H35   H     H_    0.291316 0.601187 0.893720 0.096751
H36   H     H_    0.335063 0.048885 0.394637 0.110606
H37   H     H_    0.860089 0.942895 0.607777 0.103372
H38   H     H_    0.812651 0.260950 0.541158 0.062145
H39   H     H_    0.272686 0.789912 0.206911 -0.074877
H40   H     H_    0.377899 0.729360 0.456178 0.070584
H41   H     H_    0.162235 0.778027 0.043900 0.055172
H42   H     H_    0.997441 0.850942 0.080129 0.156355
H43   H     H_    0.348335 0.742059 0.637849 0.006890
H44   H     H_    0.137911 0.741547 0.596364 0.076573
H45   H     H_    0.847887 0.256845 0.365447 -0.014151
H46   H     H_    0.060108 0.258841 0.402829 0.073595
H47   H     H_    0.869388 0.093227 0.262781 0.121464
H48   H     H_    0.910463 0.072770 0.384629 0.064851
H49   H     H_    0.079585 0.096210 0.304425 0.173093
O1    O     O_2   0.887370 0.460630 0.272300 -0.472522
O2    O     O_2   0.194964 0.110826 0.567094 -0.484793
O3    O     O_3   0.095141 0.117900 0.740197 -0.601207
O4    O     O_3   0.129410 0.451380 0.388510 -0.498805
O5    O     O_3   0.575400 0.626570 0.547370 -0.491614
O6    O     O_2   0.344320 0.238700 0.455090 -0.466992
O7    O     O_3   0.517014 0.218229 0.299933 -0.634749
O8    O     O_2   0.402039 0.408513 0.835576 -0.489783
O9    O     O_3   0.468409 0.213166 0.825309 -0.580193
O10   O     O_3   0.670210 0.653170 0.329170 -0.476473
O11   O     O_2   0.791329 0.592198 0.164836 -0.499097
O12   O     O_3   0.680215 0.764925 0.695688 -0.642461
O13   O     O_3   0.016952 0.289018 0.262593 -0.605025
O14   O     O_3   0.717297 0.785698 0.173443 -0.593116
O15   O     O_2   0.845380 0.761330 0.544970 -0.472671
O16   O     O_3   0.088930 0.704860 0.376040 -0.491912
O17   O     O_2   0.001480 0.889474 0.433874 -0.487516
O18   O     O_3   0.099139 0.881494 0.259370 -0.588855
O19   O     O_2   0.302330 0.539400 0.727760 -0.470115
O20   O     O_3   0.060300 0.548700 0.611500 -0.496846
O21   O     O_3   0.519500 0.346920 0.670840 -0.474051
O22   O     O_3   0.171891 0.711077 0.737449 -0.638725
O23   O     O_3   0.614310 0.373510 0.452640 -0.479697
O24   O     O_3   0.100780 0.295230 0.623970 -0.486232
P1    P     P_3+3 0.054400 0.427280 0.286870 0.985945
P2    P     P_3+3 0.668300 0.742890 0.573060 0.968993
P3    P     P_3+3 0.132924 0.842884 0.373793 0.952122
P4    P     P_3+3 0.135310 0.572810 0.713130 0.969262
P5    P     P_3+3 0.060458 0.155826 0.625892 0.950453
P6    P     P_3+3 0.657839 0.654602 0.206503 0.956020
P7    P     P_3+3 0.527104 0.241600 0.422165 0.943262
P8    P     P_3+3 0.532655 0.344110 0.793317 0.968456

loop_
_geom_bond_atom_site_label_1
_geom_bond_atom_site_label_2
_ccdc_geom_bond_type
C30   H12   S    
C13   H32   S    
C38   C39   S    
O13   P1    S    
C22   P2    S    
C4    H27   S    
C38   H24   S    
C35   H6    S    
C3    H29   S    
Ba2   O20   S    
C37   H20   S    
C6    H30   S    
C10   C15   A    
C1    H9    S    
C12   O14   S    
C25   C26   A    
C12   H1    S    
C2    C8    A    
Ba1   O20   S    
C2    C3    A    
C31   C32   S    
Ba2   O21   S    
C37   H19   S    
Ba1   Ba2   S    
O5    P2    S    
C30   H34   S    
C34   H13   S    
Ba2   O24   S    
Ba2   O5    S    
C7    C17   A    
C5    C6    A    
C19   C22   A    
C20   C21   A    
C28   C30   S    
C33   H3    S    
C12   H8    S    
C6    C7    A    
O15   P2    D    
C35   H5    S    
C23   O7    S    
C32   H49   S    
O3    P5    S    
C15   H31   S    
C28   H43   S    
C39   H25   S    
O16   P3    S    
O14   P6    S    
O1    P1    D    
C23   H11   S    
C30   H23   S    
O12   P2    S    
O6    P7    D    
C36   H18   S    
Ba2   O19   S    
O9    P8    S    
O23   P7    S    
O24   P5    S    
O4    P1    S    
C28   H44   S    
Ba1   O5    S    
C36   C37   S    
O20   P4    S    
Ba2   P4    S    
C13   C14   A    
C38   H22   S    
C16   H16   S    
C18   C26   A    
C39   H26   S    
C2    P1    S    
O19   P4    D    
O8    P8    D    
O2    P5    D    
C29   H37   S    
Ba2   O23   S    
C14   P8    S    
C27   P5    S    
C9    C17   A    
C14   C15   A    
C33   H2    S    
C31   H45   S    
C20   C25   A    
C8    C40   A    
C36   O3    S    
Ba1   O15   S    
C9    C11   A    
C11   P4    S    
C11   C13   A    
C16   H41   S    
C23   H10   S    
C10   C40   A    
O17   P3    D    
O7    P7    S    
C40   H33   S    
C21   P3    S    
C28   O22   S    
C24   C29   A    
C31   O13   S    
C18   H38   S    
C16   H42   S    
O18   P3    S    
C3    C5    A    
C23   C34   S    
C35   H7    S    
C22   C24   A    
C18   C27   A    
C4    C16   S    
C37   H21   S    
C4    O18   S    
C17   H35   S    
C33   O12   S    
C19   H40   S    
C1    C12   S    
Ba2   O4    S    
C31   H46   S    
O10   P6    S    
C27   C29   A    
C5    P6    S    
O21   P8    S    
Ba1   O4    S    
C36   H17   S    
C26   P7    S    
C33   C35   S    
C39   H28   S    
C38   O9    S    
C19   C21   A    
Ba1   P2    S    
O22   P4    S    
C7    C8    A    
Ba1   O16   S    
C32   H47   S    
C4    H39   S    
C9    C10   A    
Ba2   O6    S    
Ba1   O1    S    
C1    H15   S    
C24   C25   A    
Ba1   O23   S    
C20   H36   S    
Ba1   P1    S    
O11   P6    D    
Ba1   O10   S    
C34   H14   S    
Br1   C34   S    
C1    H4    S    
C32   H48   S    
