data_mof_unit_20890.cif
_audit_creation_date              2012-10-26T21:00:43-0400
_audit_creation_method            fapswitch 2.2
_symmetry_space_group_name_H-M    P1
_symmetry_Int_Tables_number       1
_space_group_crystal_system       triclinic
_cell_length_a                    10.802238
_cell_length_b                    9.522347
_cell_length_c                    10.940133
_cell_angle_alpha                 89.980101
_cell_angle_beta                  90.434665
_cell_angle_gamma                 90.19373
_cell_volume                      1125.2922925

loop_
_atom_site_label
_atom_site_type_symbol
_atom_type_description
_atom_site_fract_x
_atom_site_fract_y
_atom_site_fract_z
_atom_type_partial_charge
C1    C     C_R   0.262370 0.499737 0.504307 0.529466
C2    C     C_R   0.507606 0.500162 0.737858 0.570996
C3    C     C_R   0.440813 0.756617 0.111350 -0.064561
C4    C     C_R   0.560660 0.756678 0.888202 -0.061286
C5    C     C_R   0.467269 0.883380 0.053562 -0.114597
C6    C     C_R   0.534490 0.883440 0.945696 -0.115468
C7    C     C_R   0.520369 0.627897 0.938878 -0.030552
C8    C     C_R   0.480650 0.627878 0.060889 -0.031330
C9    C     C_R   0.485435 0.500159 0.127527 -0.002658
C10   C     C_R   0.515143 0.500156 0.872391 0.001536
C11   C     C_R   0.500442 0.372329 0.064070 0.217185
C12   C     C_R   0.737819 0.500292 0.502311 0.581272
C13   C     C_R   0.500186 0.372269 0.935977 0.219210
C14   C     C_R   0.063592 0.395531 0.448041 -0.164375
C15   C     C_R   0.935899 0.395898 0.446676 -0.176604
C16   C     C_R   0.871758 0.501124 0.508146 0.029900
C17   C     C_R   0.128659 0.498942 0.512677 -0.017407
C18   C     C_R   0.935041 0.604706 0.576222 0.291989
C19   C     C_R   0.065083 0.601469 0.581643 0.233988
C20   C     C_R   0.415771 0.073910 0.431413 0.461625
C21   C     C_R   0.584182 0.074491 0.568637 0.458426
C22   C     C_R   0.414934 0.925264 0.432722 0.029532
C23   C     C_R   0.584977 0.925873 0.567354 0.020543
C24   C     C_R   0.492553 0.500150 0.262110 0.566475
Cu1   Cu    Cu3+1 0.500000 0.640660 0.500000 0.969894
Cu2   Cu    Cu3+1 0.500000 0.359340 0.500000 1.167330
F1    F     F_    0.331940 0.142853 0.361129 -0.613284
F2    F     F_    0.668027 0.143976 0.638954 -0.595237
H1    H     H_    0.386215 0.760627 0.193267 0.137877
H2    H     H_    0.433935 0.183348 0.921633 0.326944
H3    H     H_    0.922980 0.771323 0.680725 0.378588
H4    H     H_    0.203817 0.653038 0.686870 0.341079
H5    H     H_    0.615325 0.760658 0.806300 0.158060
H6    H     H_    0.438254 0.980995 0.094541 0.162113
H7    H     H_    0.563709 0.981129 0.904511 0.163985
H8    H     H_    0.111755 0.316025 0.396068 0.200465
H9    H     H_    0.886999 0.315947 0.394719 0.160931
H10   H     H_    0.345910 0.869111 0.379912 0.141533
H11   H     H_    0.653847 0.870258 0.620301 0.170862
H12   H     H_    0.567189 0.184204 0.078718 0.325728
N1    N     N_R   0.500000 0.852070 0.500000 -0.310903
N2    N     N_R   0.500000 0.147940 0.500000 -0.215844
O1    O     O_R   0.319640 0.618740 0.499990 -0.507070
O2    O     O_3   0.486058 0.247737 0.872584 -0.661299
O3    O     O_3   0.867084 0.702387 0.640883 -0.695472
O4    O     O_3   0.126232 0.696309 0.656518 -0.693324
O5    O     O_R   0.680360 0.618740 0.500010 -0.471261
O6    O     O_R   0.319620 0.381170 0.499990 -0.459480
O7    O     O_R   0.680380 0.381170 0.500010 -0.467931
O8    O     O_R   0.500000 0.618810 0.319650 -0.541831
O9    O     O_R   0.500000 0.618810 0.680350 -0.541260
O10   O     O_R   0.499970 0.381240 0.319640 -0.401258
O11   O     O_R   0.500030 0.381240 0.680360 -0.397679
O12   O     O_3   0.514703 0.247962 0.127582 -0.665564

loop_
_geom_bond_atom_site_label_1
_geom_bond_atom_site_label_2
_ccdc_geom_bond_type
C24   O10   A    
C7    C10   A    
C20   N2    A    
Cu1   O9    S    
C1    O6    A    
Cu1   O8    S    
C20   F1    S    
Cu2   O10   S    
C11   C13   A    
Cu1   O5    S    
C1    C17   S    
C23   N1    A    
Cu2   O6    S    
C5    H6    S    
Cu1   O1    S    
C21   C23   A    
C12   O7    A    
C19   O4    S    
C7    C8    A    
C9    C24   S    
C18   O3    S    
C24   O8    A    
C9    C11   A    
C14   C17   A    
H2    O2    S    
C11   O12   S    
C12   O5    A    
C23   H11   S    
C15   C16   A    
C4    C6    A    
C17   C19   A    
C21   F2    S    
C20   C22   A    
C3    C8    A    
H12   O12   S    
C4    C7    A    
C14   H8    S    
C5    C6    A    
C22   N1    A    
C2    O9    A    
C21   N2    A    
C2    C10   S    
Cu2   O11   S    
C6    H7    S    
Cu2   N2    S    
C16   C18   A    
C18   C19   A    
H3    O3    S    
Cu2   O7    S    
Cu1   N1    S    
C3    H1    S    
C4    H5    S    
C15   H9    S    
Cu1   Cu2   S    
C14   C15   A    
H4    O4    S    
C1    O1    A    
C13   O2    S    
C12   C16   S    
C2    O11   A    
C8    C9    A    
C3    C5    A    
C10   C13   A    
C22   H10   S    
