data_mof_unit_7558.cif
_audit_creation_date              2012-12-10T18:47:41-0500
_audit_creation_method            fapswitch 2.2
_symmetry_space_group_name_H-M    P1
_symmetry_Int_Tables_number       1
_space_group_crystal_system       triclinic
_cell_length_a                    9.867277
_cell_length_b                    10.653167
_cell_length_c                    15.559977
_cell_angle_alpha                 90.614365
_cell_angle_beta                  67.26216
_cell_angle_gamma                 89.388625
_cell_volume                      1508.23220765

loop_
_atom_site_label
_atom_site_type_symbol
_atom_type_description
_atom_site_fract_x
_atom_site_fract_y
_atom_site_fract_z
_atom_type_partial_charge
C1    C     C_R   0.499198 0.739391 0.500443 0.892337
C2    C     C_R   0.500851 0.260608 0.499482 0.896976
C3    C     C_R   0.328569 0.473968 0.105803 -0.237480
C4    C     C_R   0.629255 0.628340 0.913273 -0.243033
C5    C     C_R   0.225413 0.453536 0.066577 -0.013914
C6    C     C_R   0.729660 0.654214 0.953747 -0.014507
C7    C     C_R   0.513194 0.936264 0.575672 -0.047236
C8    C     C_R   0.486968 0.063723 0.424246 -0.047988
C9    C     C_R   0.515021 0.066207 0.575028 -0.060162
C10   C     C_R   0.484893 0.933801 0.424945 -0.059545
C11   C     C_R   0.501956 0.128034 0.499296 -0.127157
C12   C     C_R   0.498131 0.871952 0.500627 -0.125290
C13   C     C_R   0.961584 0.413450 0.448018 0.044909
C14   C     C_R   0.038101 0.585573 0.552837 0.052623
C15   C     C_R   0.105339 0.414163 0.447783 -0.111468
C16   C     C_R   0.894658 0.585704 0.552402 -0.104018
C17   C     C_R   0.407308 0.500326 0.676347 0.877897
C18   C     C_R   0.592320 0.503188 0.323997 0.878285
C19   C     C_R   0.346685 0.501567 0.778743 -0.098485
C20   C     C_R   0.649743 0.525247 0.223614 -0.085848
C21   C     C_R   0.160209 0.455260 0.929914 -0.230355
C22   C     C_R   0.804570 0.635291 0.086051 -0.237182
C23   C     C_R   0.201566 0.467005 0.833986 -0.007682
C24   C     C_R   0.774143 0.598620 0.177376 -0.005976
C25   C     C_R   0.442314 0.533985 0.821713 -0.219364
C26   C     C_R   0.560143 0.489423 0.177520 -0.225850
C27   C     C_R   0.401014 0.527363 0.918127 0.090916
C28   C     C_R   0.577461 0.539282 0.091259 0.096160
C29   C     C_R   0.260692 0.479323 0.972206 0.094950
C30   C     C_R   0.705736 0.608986 0.042793 0.094686
C31   C     C_R   0.500740 0.558917 0.960384 0.053336
C32   C     C_R   0.469238 0.522323 0.053060 0.057494
H1    H     H_    0.473258 0.425170 0.212652 0.161707
H2    H     H_    0.553332 0.557169 0.777670 0.167378
H3    H     H_    0.050048 0.423983 0.970863 0.158680
H4    H     H_    0.902064 0.689883 0.050920 0.158675
H5    H     H_    0.293352 0.454847 0.179125 0.152454
H6    H     H_    0.650487 0.669689 0.846323 0.158847
H7    H     H_    0.186783 0.345492 0.406406 0.147037
H8    H     H_    0.813025 0.653910 0.594263 0.144522
N1    N     N_R   0.142780 0.500030 0.500020 -0.099962
N2    N     N_R   0.857220 0.499970 0.499980 -0.099801
O1    O     O_R   0.385370 0.683250 0.500010 -0.610675
O2    O     O_R   0.614630 0.316750 0.499990 -0.609218
O3    O     O_R   0.614700 0.683220 0.500000 -0.616643
O4    O     O_R   0.385300 0.316780 0.500000 -0.617008
O5    O     O_R   0.319830 0.500020 0.632250 -0.608445
O6    O     O_R   0.680170 0.499980 0.367750 -0.605730
O7    O     O_R   0.549160 0.499990 0.632240 -0.612998
O8    O     O_R   0.450840 0.500010 0.367760 -0.611753
Zn1   Zn    Zn3+2 0.346870 0.500020 0.500000 0.980582
Zn2   Zn    Zn3+2 0.653130 0.499980 0.500000 0.982218
C33   C     C_1   0.087739 0.396857 0.123180 0.157239
N3    N     N_1   0.977572 0.350780 0.167525 -0.183133
C34   C     C_1   0.855393 0.729825 0.902682 0.164631
N4    N     N_1   0.955969 0.790625 0.862450 -0.172592
C35   C     C_1   0.867609 0.643509 0.222904 0.202974
N5    N     N_1   0.942555 0.679465 0.259310 -0.182722
C36   C     C_1   0.094671 0.436817 0.794806 0.209611
N6    N     N_1   0.008660 0.412710 0.763710 -0.191275
C37   C     C_1   0.523029 0.869179 0.654024 0.188887
N7    N     N_1   0.530903 0.815977 0.716421 -0.221626
C38   C     C_1   0.477275 0.130806 0.345867 0.187726
N8    N     N_1   0.469527 0.183992 0.283433 -0.217726
C39   C     C_1   0.525686 0.136118 0.652953 0.192684
N9    N     N_1   0.534096 0.191811 0.714935 -0.182855
C40   C     C_1   0.473274 0.864066 0.347234 0.190194
N10   N     N_1   0.463927 0.808718 0.285397 -0.183172
C41   C     C_1   0.925430 0.317777 0.395018 0.228823
N11   N     N_1   0.896816 0.239594 0.352906 -0.178096
C42   C     C_1   0.072987 0.676681 0.609541 0.223435
N12   N     N_1   0.101076 0.750431 0.654986 -0.180898

loop_
_geom_bond_atom_site_label_1
_geom_bond_atom_site_label_2
_ccdc_geom_bond_type
C18   O6    A    
C19   C23   A    
C34   N4    T    
C21   H3    S    
C14   C16   A    
N1    Zn1   S    
C26   C28   A    
C27   C29   A    
C22   H4    S    
C14   C42   S    
C25   H2    S    
C26   H1    S    
C18   C20   S    
C31   C32   A    
C28   C32   A    
C6    C34   S    
C3    C5    A    
O7    Zn2   S    
C15   H7    S    
O2    Zn2   S    
C28   C30   A    
O8    Zn1   S    
C36   N6    T    
C33   N3    T    
C2    O4    A    
C23   C36   S    
C9    C11   A    
C1    O3    A    
C35   N5    T    
C7    C12   A    
C1    C12   S    
C13   C41   S    
O1    Zn1   S    
C8    C11   A    
C2    C11   S    
C10   C12   A    
C22   C24   A    
C4    C6    A    
C13   N2    A    
C17   C19   S    
C16   H8    S    
C5    C29   A    
C41   N11   T    
C13   C15   A    
C21   C23   A    
C3    C32   A    
C19   C25   A    
C14   N1    A    
C9    C39   S    
C4    C31   A    
C25   C27   A    
C37   N7    T    
C8    C38   S    
C27   C31   A    
C40   N10   T    
C16   N2    A    
O6    Zn2   S    
C42   N12   T    
C2    O2    A    
C18   O8    A    
C8    C10   A    
C39   N9    T    
C24   C35   S    
C5    C33   S    
C7    C9    A    
C20   C24   A    
C7    C37   S    
O5    Zn1   S    
C22   C30   A    
O3    Zn2   S    
C6    C30   A    
C10   C40   S    
C21   C29   A    
O4    Zn1   S    
C1    O1    A    
C15   N1    A    
C17   O7    A    
C17   O5    A    
C3    H5    S    
C4    H6    S    
C38   N8    T    
C20   C26   A    
N2    Zn2   S    
