data_mof_unit_25886.cif
_audit_creation_date              2012-12-10T19:22:59-0500
_audit_creation_method            fapswitch 2.2
_symmetry_space_group_name_H-M    P1
_symmetry_Int_Tables_number       1
_space_group_crystal_system       triclinic
_cell_length_a                    11.183093
_cell_length_b                    17.832179
_cell_length_c                    16.472611
_cell_angle_alpha                 91.868525
_cell_angle_beta                  102.936794
_cell_angle_gamma                 89.230564
_cell_volume                      3199.80471596

loop_
_atom_site_label
_atom_site_type_symbol
_atom_type_description
_atom_site_fract_x
_atom_site_fract_y
_atom_site_fract_z
_atom_type_partial_charge
C1    C     C_R   0.501960 0.354789 0.499616 0.900138
C2    C     C_R   0.495612 0.644980 0.500729 0.873492
C3    C     C_R   0.472558 0.886395 0.505300 -0.205537
C4    C     C_R   0.468239 0.114334 0.505427 -0.225169
C5    C     C_1   0.465496 0.966782 0.506370 0.130277
C6    C     C_1   0.463083 0.034066 0.506662 0.119817
C7    C     C_R   0.595082 0.533426 0.846210 0.336530
C8    C     C_R   0.430751 0.448070 0.157364 0.307855
C9    C     C_R   0.596893 0.530012 0.760127 0.536295
C10   C     C_R   0.430041 0.449133 0.244076 0.501793
C11   C     C_R   0.399933 0.474535 0.726893 -0.029172
C12   C     C_R   0.562692 0.554025 0.268691 -0.021048
C13   C     C_R   0.394349 0.477752 0.811696 -0.377048
C14   C     C_R   0.560224 0.557457 0.182965 -0.379056
C15   C     C_R   0.492123 0.507158 0.872621 -0.023423
C16   C     C_R   0.493569 0.504753 0.125977 -0.008655
C17   C     C_1   0.489443 0.507680 0.961657 0.022979
C18   C     C_1   0.490848 0.507899 0.036258 0.020625
C19   C     C_R   0.263368 0.505607 0.466364 0.756138
C20   C     C_R   0.737462 0.496618 0.533073 0.784064
C21   C     C_2   0.129335 0.511464 0.443639 0.245215
C22   C     C_2   0.871906 0.499936 0.551481 0.168011
C23   C     C_2   0.062950 0.520851 0.502360 0.330507
C24   C     C_2   0.934246 0.491326 0.489117 0.237846
C25   C     C_R   0.487786 0.848535 0.579977 0.344746
C26   C     C_R   0.431218 0.150885 0.429786 0.358046
C27   C     C_R   0.487368 0.769138 0.578925 0.274271
C28   C     C_R   0.458086 0.227320 0.426181 0.305109
C29   C     C_R   0.485128 0.728444 0.502779 -0.354888
C30   C     C_R   0.498749 0.270981 0.500340 -0.386304
C31   C     C_R   0.468526 0.767991 0.427771 0.282986
C32   C     C_R   0.530317 0.233615 0.577269 0.273320
C33   C     C_R   0.468615 0.846851 0.430066 0.350294
C34   C     C_R   0.524798 0.154654 0.577862 0.353091
Cu1   Cu    Cu3+1 0.499990 0.499980 0.580420 0.989532
Cu2   Cu    Cu3+1 0.500010 0.500020 0.419580 0.962465
H1    H     H_    0.314474 0.456091 0.829756 0.177548
H2    H     H_    0.610483 0.601289 0.161366 0.167785
H3    H     H_    0.323317 0.450848 0.681903 0.176519
H4    H     H_    0.614979 0.595301 0.311221 0.180312
N1    N     N_R   0.499970 0.499970 0.701210 -0.228294
N2    N     N_R   0.500030 0.500030 0.298790 -0.236370
O1    O     O_R   0.499990 0.391240 0.567930 -0.561038
O2    O     O_R   0.500010 0.608760 0.432070 -0.551532
O3    O     O_R   0.500000 0.391270 0.432120 -0.519798
O4    O     O_R   0.500000 0.608730 0.567880 -0.554130
O5    O     O_R   0.320680 0.500000 0.542950 -0.579254
O6    O     O_R   0.679320 0.500000 0.457050 -0.620888
O7    O     O_R   0.320690 0.500030 0.407130 -0.572422
O8    O     O_R   0.679310 0.499970 0.592870 -0.512504
O9    O     O_3   0.899346 0.431640 0.431675 -0.602264
C35   C     C_3   0.836910 0.454911 0.351735 0.166617
H5    H     H_    0.897333 0.451923 0.307393 0.216358
H6    H     H_    0.796603 0.512132 0.351651 0.143761
C36   C     C_3   0.739696 0.398051 0.313984 -0.838103
H7    H     H_    0.695202 0.413413 0.249431 0.193209
H8    H     H_    0.783044 0.341869 0.311530 0.237154
H9    H     H_    0.669823 0.395939 0.351584 0.294390
O10   O     O_3   0.119448 0.555018 0.578004 -0.585153
C37   C     C_3   0.081942 0.631305 0.579666 0.131663
H10   H     H_    0.098602 0.650630 0.645973 0.180418
H11   H     H_    0.982004 0.639682 0.553230 0.128511
C38   C     C_3   0.155653 0.681162 0.535439 -0.949760
H12   H     H_    0.122128 0.675508 0.467282 0.230511
H13   H     H_    0.143782 0.740804 0.553546 0.216783
H14   H     H_    0.254243 0.665834 0.551544 0.276731
O11   O     O_3   0.930098 0.520956 0.632097 -0.582694
C39   C     C_3   0.973273 0.455374 0.675362 0.156286
H15   H     H_    0.041818 0.425392 0.646145 0.135481
H16   H     H_    0.896131 0.416788 0.676654 0.150623
C40   C     C_3   0.035631 0.476803 0.764748 -0.771957
H17   H     H_    0.108606 0.518653 0.765551 0.251433
H18   H     H_    0.967381 0.501044 0.797966 0.276675
H19   H     H_    0.077395 0.426207 0.797633 0.186528
O12   O     O_3   0.073725 0.506947 0.359963 -0.634816
C41   C     C_3   0.082096 0.576463 0.322202 0.044963
H20   H     H_    0.094262 0.564816 0.257981 0.166510
H21   H     H_    0.162423 0.610686 0.353948 0.134763
C42   C     C_3   0.964113 0.622145 0.315178 -0.904733
H22   H     H_    0.938886 0.628057 0.376501 0.236199
H23   H     H_    0.977171 0.678898 0.292867 0.220450
H24   H     H_    0.888037 0.594401 0.269660 0.237804
O13   O     O_3   0.501174 0.889652 0.654113 -0.567330
C43   C     C_3   0.627488 0.895648 0.690733 -0.297550
H25   H     H_    0.677489 0.923829 0.648996 0.148352
H26   H     H_    0.669259 0.839746 0.707934 0.164125
H27   H     H_    0.638642 0.930619 0.748835 0.187555
O14   O     O_3   0.359156 0.114652 0.360465 -0.544627
C44   C     C_3   0.431326 0.069310 0.317958 -0.249063
H28   H     H_    0.380588 0.016815 0.296187 0.221575
H29   H     H_    0.523197 0.053645 0.356062 0.122909
H30   H     H_    0.443151 0.098119 0.261683 0.165573
O15   O     O_3   0.498222 0.730596 0.652354 -0.592507
C45   C     C_3   0.405888 0.752026 0.695218 0.122630
H31   H     H_    0.322188 0.775646 0.653844 0.142953
H32   H     H_    0.443062 0.794516 0.744927 0.190468
C46   C     C_3   0.368087 0.684199 0.737137 -0.836335
H33   H     H_    0.444798 0.666003 0.787670 0.214106
H34   H     H_    0.288492 0.699018 0.764585 0.202342
H35   H     H_    0.342441 0.636897 0.691428 0.289681
O16   O     O_3   0.455427 0.256436 0.349398 -0.492904
C47   C     C_3   0.569364 0.238316 0.329245 0.138658
H36   H     H_    0.597990 0.178925 0.340836 0.093812
H37   H     H_    0.643001 0.273300 0.367921 0.132339
C48   C     C_3   0.561030 0.250736 0.237593 -0.785944
H38   H     H_    0.542048 0.310517 0.224758 0.272489
H39   H     H_    0.649110 0.234882 0.221013 0.182211
H40   H     H_    0.486197 0.216329 0.198958 0.244893
O17   O     O_3   0.455398 0.729569 0.351859 -0.548465
C49   C     C_3   0.331125 0.733237 0.308569 0.135767
H41   H     H_    0.309699 0.789188 0.280905 0.185638
H42   H     H_    0.267147 0.722528 0.349953 0.100094
C50   C     C_3   0.308054 0.674435 0.237962 -0.823607
H43   H     H_    0.322926 0.617447 0.263610 0.249444
H44   H     H_    0.211868 0.678917 0.201734 0.188591
H45   H     H_    0.371040 0.683068 0.195725 0.259665
O18   O     O_3   0.583688 0.272785 0.650102 -0.547947
C51   C     C_3   0.500856 0.276936 0.703627 0.143621
H46   H     H_    0.464551 0.221071 0.713844 0.165295
H47   H     H_    0.421971 0.314182 0.677577 0.131529
C52   C     C_3   0.567217 0.309141 0.788102 -0.764494
H48   H     H_    0.607759 0.364265 0.780704 0.257553
H49   H     H_    0.501860 0.316620 0.829563 0.189098
H50   H     H_    0.641852 0.270344 0.817332 0.243797
O19   O     O_3   0.460629 0.885439 0.357572 -0.582330
C53   C     C_3   0.579093 0.889491 0.341586 -0.336973
H51   H     H_    0.616387 0.832796 0.330754 0.198597
H52   H     H_    0.643195 0.920058 0.393149 0.142436
H53   H     H_    0.573219 0.921241 0.284020 0.172209
O20   O     O_3   0.568661 0.117166 0.650928 -0.551596
C54   C     C_3   0.695419 0.104208 0.659312 -0.278925
H54   H     H_    0.746968 0.157804 0.665495 0.185234
H55   H     H_    0.713966 0.069275 0.606158 0.130175
H56   H     H_    0.730244 0.072838 0.716984 0.172256
O21   O     O_3   0.700860 0.555405 0.903255 -0.559391
C55   C     C_3   0.681267 0.623391 0.945275 -0.332549
H57   H     H_    0.672060 0.611724 0.009302 0.181507
H58   H     H_    0.600497 0.656698 0.913042 0.127117
H59   H     H_    0.763326 0.659171 0.951345 0.180387
O22   O     O_3   0.362022 0.394393 0.104494 -0.591920
C56   C     C_3   0.435873 0.348622 0.063391 -0.302930
H60   H     H_    0.536634 0.354084 0.088984 0.142152
H61   H     H_    0.414695 0.361147 0.996127 0.181615
H62   H     H_    0.411211 0.289161 0.068133 0.184697
O23   O     O_3   0.703629 0.550388 0.737600 -0.543541
C57   C     C_3   0.714709 0.629468 0.738632 0.199041
H63   H     H_    0.654720 0.660511 0.774015 0.129799
H64   H     H_    0.691964 0.648462 0.673571 0.192277
C58   C     C_3   0.846868 0.651804 0.776226 -0.847213
H65   H     H_    0.907959 0.630516 0.736011 0.277687
H66   H     H_    0.853831 0.713920 0.781268 0.185944
H67   H     H_    0.877868 0.628711 0.839263 0.271821
O24   O     O_3   0.371667 0.392744 0.275882 -0.512154
C59   C     C_3   0.242953 0.399131 0.248701 0.131864
H68   H     H_    0.211417 0.379605 0.182906 0.176438
H69   H     H_    0.211349 0.457809 0.255072 0.134042
C60   C     C_3   0.182111 0.349248 0.300820 -0.653092
H70   H     H_    0.214718 0.363661 0.368122 0.244837
H71   H     H_    0.080966 0.356799 0.283207 0.191524
H72   H     H_    0.204598 0.289467 0.289778 0.257549

loop_
_geom_bond_atom_site_label_1
_geom_bond_atom_site_label_2
_ccdc_geom_bond_type
C36   H7    S    
C38   H13   S    
O16   C47   S    
C10   N2    A    
C36   H8    S    
Cu2   N2    S    
Cu1   Cu2   S    
C43   H27   S    
C32   O18   S    
C54   H56   S    
Cu1   O5    S    
C51   H47   S    
C46   H33   S    
O21   C55   S    
O18   C51   S    
C2    O4    A    
C23   O10   S    
C48   H39   S    
C53   H51   S    
C2    C29   S    
C19   C21   S    
C41   H21   S    
C50   H43   S    
C58   H66   S    
C5    C6    T    
C19   O5    A    
C27   C29   A    
C3    C33   A    
C47   C48   S    
C37   H11   S    
C9    O23   S    
C49   H41   S    
C52   H50   S    
C12   N2    A    
C40   H19   S    
C51   H46   S    
C28   O16   S    
C1    O1    A    
C60   H70   S    
C2    O2    A    
C39   H15   S    
C20   O8    A    
C23   C24   S    
C31   C33   A    
Cu2   O6    S    
C44   H29   S    
Cu1   O1    S    
C59   H69   S    
C35   C36   S    
C45   H32   S    
C50   H45   S    
C24   O9    S    
C7    C15   A    
C38   H14   S    
O10   C37   S    
C60   H71   S    
C45   H31   S    
C55   H59   S    
C10   O24   S    
Cu2   O2    S    
C46   H34   S    
C35   H6    S    
O23   C57   S    
C57   H64   S    
C48   H40   S    
C4    C34   A    
O9    C35   S    
C3    C25   A    
C43   H25   S    
O22   C56   S    
C59   C60   S    
C4    C6    S    
C56   H62   S    
C42   H23   S    
C53   H53   S    
C3    C5    S    
C38   H12   S    
O11   C39   S    
C37   H10   S    
C51   C52   S    
C32   C34   A    
C12   H4    S    
C47   H37   S    
O12   C41   S    
C7    O21   S    
C14   H2    S    
C57   C58   S    
C19   O7    A    
O13   C43   S    
C13   C15   A    
Cu1   O8    S    
C33   O19   S    
C17   C18   T    
C31   O17   S    
Cu2   O3    S    
O15   C45   S    
C41   H20   S    
C44   H30   S    
C11   H3    S    
C49   C50   S    
C59   H68   S    
C52   H48   S    
C20   O6    A    
C26   O14   S    
C20   C22   S    
C60   H72   S    
C21   C23   D    
O19   C53   S    
C22   C24   D    
C58   H67   S    
C54   H54   S    
C37   C38   S    
C46   H35   S    
C35   H5    S    
C55   H58   S    
C40   H18   S    
C57   H63   S    
C7    C9    A    
C53   H52   S    
C9    N1    A    
C8    C10   A    
C12   C14   A    
C55   H57   S    
C54   H55   S    
C42   H24   S    
C4    C26   A    
C15   C17   S    
C25   C27   A    
C48   H38   S    
C21   O12   S    
C26   C28   A    
C45   C46   S    
C8    O22   S    
C16   C18   S    
C56   H61   S    
O20   C54   S    
O24   C59   S    
C40   H17   S    
C29   C31   A    
C56   H60   S    
C30   C32   A    
C11   C13   A    
C1    O3    A    
C13   H1    S    
C39   C40   S    
C28   C30   A    
C1    C30   S    
C11   N1    A    
C14   C16   A    
C47   H36   S    
Cu1   N1    S    
C49   H42   S    
C22   O11   S    
C52   H49   S    
C27   O15   S    
C42   H22   S    
C41   C42   S    
O14   C44   S    
C34   O20   S    
C8    C16   A    
C36   H9    S    
O17   C49   S    
C25   O13   S    
C39   H16   S    
C43   H26   S    
C44   H28   S    
C58   H65   S    
Cu1   O4    S    
Cu2   O7    S    
C50   H44   S    
