data_mof_unit_66935.cif
_audit_creation_date              2013-03-05T15:57:29-0500
_audit_creation_method            fapswitch 2.2
_symmetry_space_group_name_H-M    P1
_symmetry_Int_Tables_number       1
_space_group_crystal_system       triclinic
_cell_length_a                    17.112869
_cell_length_b                    18.229768
_cell_length_c                    8.380642
_cell_angle_alpha                 89.999924
_cell_angle_beta                  101.791232
_cell_angle_gamma                 90.001214
_cell_volume                      2559.28702874

loop_
_atom_site_label
_atom_site_type_symbol
_atom_site_description
_atom_site_fract_x
_atom_site_fract_y
_atom_site_fract_z
_atom_type_partial_charge
P1    P     P_3+3 0.834140 0.419320 0.003900 0.966905
P2    P     P_3+3 0.834140 0.580680 0.503900 0.967285
P3    P     P_3+3 0.334140 0.919320 0.003900 0.967144
P4    P     P_3+3 0.334140 0.080680 0.503900 0.966936
O1    O     O_2   0.841960 0.394640 0.833410 -0.466947
O2    O     O_2   0.841960 0.605360 0.333410 -0.467743
O3    O     O_2   0.341960 0.894640 0.833410 -0.467292
O4    O     O_2   0.341960 0.105360 0.333410 -0.467451
O5    O     O_3   0.907950 0.463080 0.102990 -0.490851
O6    O     O_3   0.907950 0.536920 0.602990 -0.490180
O7    O     O_3   0.407950 0.963080 0.102990 -0.490429
O8    O     O_3   0.407950 0.036920 0.602990 -0.490501
O9    O     O_3   0.972780 0.329600 0.629720 -0.480642
O10   O     O_3   0.972780 0.670400 0.129720 -0.480875
O11   O     O_3   0.472780 0.829600 0.629720 -0.480501
O12   O     O_3   0.472780 0.170400 0.129720 -0.480972
O13   O     O_2   0.838843 0.272827 0.690156 -0.482022
O14   O     O_2   0.838830 0.727178 0.190136 -0.481740
O15   O     O_2   0.338669 0.773034 0.689834 -0.481613
O16   O     O_2   0.339036 0.227440 0.190483 -0.482412
O17   O     O_3   0.751049 0.477403 0.969167 -0.645237
O18   O     O_3   0.751061 0.522576 0.469530 -0.645174
O19   O     O_3   0.251056 0.977415 0.969398 -0.645270
O20   O     O_3   0.251060 0.022578 0.469308 -0.645227
O21   O     O_3   0.942895 0.176830 0.639354 -0.603734
O22   O     O_3   0.942918 0.823164 0.139266 -0.603760
O23   O     O_3   0.442675 0.676871 0.639813 -0.603534
O24   O     O_3   0.443174 0.323225 0.138593 -0.604176
H1    H     H_    0.063232 0.200308 0.700368 0.080305
H2    H     H_    0.063286 0.799846 0.200370 0.080206
H3    H     H_    0.563222 0.699419 0.700095 0.079894
H4    H     H_    0.563333 0.298990 0.200266 0.080332
C1    C     C_3   0.041808 0.093967 0.587045 -0.396947
C2    C     C_3   0.041719 0.905995 0.086153 -0.397365
C3    C     C_3   0.540605 0.593461 0.585351 -0.398242
C4    C     C_3   0.542935 0.405477 0.087272 -0.395608
H5    H     H_    0.602398 0.588968 0.564031 0.090075
H6    H     H_    0.605178 0.409159 0.068159 0.089376
H7    H     H_    0.103776 0.089865 0.566572 0.089612
H8    H     H_    0.103718 0.910096 0.065842 0.089762
H9    H     H_    0.036971 0.063964 0.699689 0.126509
H10   H     H_    0.036765 0.936207 0.198453 0.126508
H11   H     H_    0.535838 0.563260 0.697789 0.126496
H12   H     H_    0.537745 0.435593 0.199565 0.126359
P5    P     P_3+3 0.165830 0.418670 0.685610 0.966058
P6    P     P_3+3 0.165830 0.581330 0.185610 0.966400
P7    P     P_3+3 0.665830 0.918670 0.685610 0.966218
P8    P     P_3+3 0.665830 0.081330 0.185610 0.966263
P9    P     P_3+3 0.099936 0.261533 0.109945 0.952044
P10   P     P_3+3 0.099959 0.738452 0.609959 0.951871
P11   P     P_3+3 0.599984 0.761569 0.109950 0.952242
P12   P     P_3+3 0.599902 0.238502 0.609999 0.951312
O25   O     O_2   0.157990 0.394030 0.856030 -0.467060
O26   O     O_2   0.157990 0.605970 0.356030 -0.467444
O27   O     O_2   0.657990 0.894030 0.856030 -0.466987
O28   O     O_2   0.657990 0.105970 0.356030 -0.467484
O29   O     O_3   0.027110 0.329490 0.059550 -0.480266
O30   O     O_3   0.027110 0.670510 0.559550 -0.480628
O31   O     O_3   0.527110 0.829490 0.059550 -0.480271
O32   O     O_3   0.527110 0.170510 0.559550 -0.481031
O33   O     O_2   0.160697 0.272122 0.998603 -0.482090
O34   O     O_2   0.160762 0.727810 0.498731 -0.481679
O35   O     O_2   0.660851 0.772313 0.998910 -0.481616
O36   O     O_2   0.660582 0.228054 0.498413 -0.482042
O37   O     O_3   0.249044 0.476649 0.720938 -0.645518
O38   O     O_3   0.249041 0.523350 0.220705 -0.645524
O39   O     O_3   0.749056 0.976635 0.720861 -0.645578
O40   O     O_3   0.749031 0.023337 0.220765 -0.645462
O41   O     O_3   0.056330 0.176590 0.050213 -0.603821
O42   O     O_3   0.056428 0.823416 0.550154 -0.603968
O43   O     O_3   0.556533 0.676614 0.049758 -0.603678
O44   O     O_3   0.556250 0.323501 0.550926 -0.604449
C5    C     C_3   0.979996 0.174166 0.087838 0.343548
C6    C     C_3   0.980023 0.825829 0.587420 0.343530
C7    C     C_3   0.480291 0.673879 0.087775 0.343720
C8    C     C_3   0.479487 0.325322 0.586558 0.343253
H13   H     H_    0.936130 0.200553 0.988224 0.080655
H14   H     H_    0.936301 0.799149 0.488034 0.080781
H15   H     H_    0.436230 0.700204 0.988420 0.080430
H16   H     H_    0.436436 0.298091 0.486823 0.081665
H17   H     H_    0.977555 0.201729 0.205033 -0.058129
H18   H     H_    0.977578 0.798558 0.704909 -0.058185
H19   H     H_    0.477872 0.701317 0.205098 -0.058519
H20   H     H_    0.476870 0.298223 0.704179 -0.057613
C9    C     C_3   0.956831 0.094417 0.102841 -0.397196
C10   C     C_3   0.956610 0.905569 0.601290 -0.396394
C11   C     C_3   0.457480 0.594030 0.102644 -0.397551
C12   C     C_3   0.455007 0.404883 0.598907 -0.394185
H21   H     H_    0.395522 0.590075 0.123253 0.089789
H22   H     H_    0.392206 0.408016 0.614998 0.088350
H23   H     H_    0.894741 0.090721 0.122770 0.089754
H24   H     H_    0.894387 0.909231 0.620521 0.089352
H25   H     H_    0.961756 0.064039 0.990725 0.126485
H26   H     H_    0.961747 0.935699 0.488979 0.126591
H27   H     H_    0.462218 0.563827 0.990211 0.126509
H28   H     H_    0.461156 0.435045 0.487207 0.126913
C13   C     C_3   0.229905 0.455945 0.282699 0.269066
C14   C     C_3   0.229669 0.544227 0.781744 0.268834
C15   C     C_3   0.729771 0.955861 0.282250 0.269068
C16   C     C_3   0.729716 0.044207 0.781783 0.268872
H29   H     H_    0.232026 0.462252 0.414450 0.034946
H30   H     H_    0.230403 0.538064 0.912992 0.034598
H31   H     H_    0.731119 0.962143 0.413707 0.034595
H32   H     H_    0.730571 0.038034 0.913106 0.034476
H33   H     H_    0.170546 0.434926 0.220530 0.049155
H34   H     H_    0.170849 0.565517 0.717212 0.050489
H35   H     H_    0.670714 0.934668 0.218809 0.049824
H36   H     H_    0.670845 0.065493 0.717444 0.050386
C17   C     C_3   0.292050 0.399928 0.257839 -0.334190
C18   C     C_3   0.292677 0.599832 0.759440 -0.332650
C19   C     C_3   0.792403 0.900062 0.258934 -0.333099
C20   C     C_3   0.792669 0.099830 0.759233 -0.332636
H37   H     H_    0.352233 0.424994 0.282584 0.138365
H38   H     H_    0.352701 0.574541 0.787636 0.137167
H39   H     H_    0.852510 0.925266 0.285636 0.137575
H40   H     H_    0.852727 0.074523 0.787053 0.137245
H41   H     H_    0.291948 0.352386 0.340172 0.068008
H42   H     H_    0.291793 0.647664 0.840572 0.067851
H43   H     H_    0.791837 0.852374 0.340673 0.067779
H44   H     H_    0.791871 0.147629 0.840562 0.067892
H45   H     H_    0.278839 0.380580 0.129983 0.141214
H46   H     H_    0.281095 0.618761 0.631301 0.140735
H47   H     H_    0.780120 0.880912 0.130907 0.141083
H48   H     H_    0.780916 0.118829 0.631074 0.140616
Ba1   Ba    Ba6+2 0.000000 0.447380 0.844850 1.631913
Ba2   Ba    Ba6+2 0.000000 0.552620 0.344850 1.631921
Ba3   Ba    Ba6+2 0.500000 0.947380 0.844850 1.632013
Ba4   Ba    Ba6+2 0.500000 0.052620 0.344850 1.631639
C21   C     C_3   0.770708 0.545103 0.909551 0.269228
C22   C     C_3   0.770412 0.455134 0.408222 0.269489
C23   C     C_3   0.270510 0.044938 0.908633 0.269387
C24   C     C_3   0.270586 0.955000 0.408898 0.269311
H49   H     H_    0.771703 0.539000 0.779015 0.032609
H50   H     H_    0.769911 0.461565 0.277111 0.033166
H51   H     H_    0.270485 0.038608 0.777707 0.033191
H52   H     H_    0.270885 0.961262 0.278080 0.032975
C25   C     C_3   0.706612 0.600181 0.928331 -0.330221
C26   C     C_3   0.707180 0.399567 0.429479 -0.331332
C27   C     C_3   0.207011 0.100358 0.929098 -0.331241
C28   C     C_3   0.206886 0.899689 0.428827 -0.330678
H53   H     H_    0.646878 0.574471 0.896613 0.135658
H54   H     H_    0.647258 0.425137 0.402372 0.137181
H55   H     H_    0.147154 0.074729 0.900714 0.136856
H56   H     H_    0.147043 0.925342 0.399278 0.136334
H57   H     H_    0.708209 0.648169 0.848002 0.067978
H58   H     H_    0.707676 0.352165 0.346975 0.067567
H59   H     H_    0.207796 0.147900 0.847138 0.067669
H60   H     H_    0.207975 0.851981 0.347435 0.067738
H61   H     H_    0.716316 0.618912 0.056492 0.140613
H62   H     H_    0.718873 0.379945 0.557130 0.141160
H63   H     H_    0.218134 0.119774 0.056852 0.140738
H64   H     H_    0.217529 0.880525 0.556785 0.140967
O45   O     O_3   0.092100 0.536880 0.086720 -0.489999
O46   O     O_3   0.092100 0.463120 0.586720 -0.490464
O47   O     O_3   0.592100 0.036880 0.086720 -0.490146
O48   O     O_3   0.592100 0.963120 0.586720 -0.490427
P13   P     P_3+3 0.899715 0.738106 0.079193 0.951689
P14   P     P_3+3 0.899719 0.261889 0.579201 0.951753
P15   P     P_3+3 0.399789 0.238164 0.079155 0.951144
P16   P     P_3+3 0.399657 0.761938 0.579198 0.952071
C29   C     C_3   0.019110 0.173885 0.601270 0.343491
C30   C     C_3   0.019116 0.826090 0.101076 0.343351
C31   C     C_3   0.518704 0.673505 0.600926 0.343387
C32   C     C_3   0.519531 0.325709 0.101042 0.342987
H65   H     H_    0.021514 0.201096 0.483679 -0.058514
H66   H     H_    0.021547 0.798690 0.983704 -0.058283
H67   H     H_    0.521162 0.700963 0.483635 -0.058606
H68   H     H_    0.521864 0.298510 0.983390 -0.057979
H69   H     H_    0.498535 0.568064 0.482027 0.112827
H70   H     H_    0.502043 0.431581 0.983166 0.112171
H71   H     H_    0.000250 0.068069 0.483652 0.112621
H72   H     H_    0.000188 0.931670 0.982408 0.112554
H73   H     H_    0.499049 0.568229 0.206161 0.112701
H74   H     H_    0.494629 0.431343 0.704389 0.111637
H75   H     H_    0.998064 0.068610 0.206849 0.112509
H76   H     H_    0.997564 0.931655 0.705329 0.112411
C33   C     C_R   0.135944 0.678165 0.923237 -0.287111
C34   C     C_R   0.135913 0.321796 0.423280 -0.286851
C35   C     C_R   0.636003 0.178118 0.923177 -0.287486
C36   C     C_R   0.635894 0.821784 0.423314 -0.286734
C37   C     C_R   0.864001 0.322229 0.265851 -0.286987
C38   C     C_R   0.863977 0.677737 0.765904 -0.287398
C39   C     C_R   0.364023 0.822219 0.265824 -0.287004
C40   C     C_R   0.363952 0.177725 0.765907 -0.287506
C41   C     C_R   0.792337 0.211167 0.299276 -0.092169
C42   C     C_R   0.792380 0.788852 0.799236 -0.092262
C43   C     C_R   0.292374 0.711142 0.299225 -0.092365
C44   C     C_R   0.292346 0.288825 0.799252 -0.091838
C45   C     C_R   0.848918 0.264235 0.363091 -0.006054
C46   C     C_R   0.848934 0.735765 0.863085 -0.006140
C47   C     C_R   0.348961 0.764207 0.363031 -0.006395
C48   C     C_R   0.348882 0.235729 0.863122 -0.005496
C49   C     C_R   0.817442 0.332918 0.110089 0.055235
C50   C     C_R   0.817451 0.667075 0.610101 0.055691
C51   C     C_R   0.317459 0.832911 0.110071 0.055571
C52   C     C_R   0.317428 0.167064 0.610103 0.055173
C53   C     C_R   0.755987 0.281441 0.046733 -0.068281
C54   C     C_R   0.755983 0.718543 0.546748 -0.067988
C55   C     C_R   0.255985 0.781447 0.046730 -0.068117
C56   C     C_R   0.255973 0.218539 0.546735 -0.068059
C57   C     C_R   0.243921 0.719049 0.142269 -0.067830
C58   C     C_R   0.243908 0.280932 0.642281 -0.068035
C59   C     C_R   0.743916 0.219051 0.142284 -0.067878
C60   C     C_R   0.743919 0.780940 0.642289 -0.067921
C61   C     C_R   0.182450 0.667596 0.079037 0.054452
C62   C     C_R   0.182451 0.332394 0.579043 0.054034
C63   C     C_R   0.682473 0.167579 0.079019 0.054265
C64   C     C_R   0.682441 0.832387 0.579067 0.054441
C65   C     C_R   0.150950 0.736179 0.825971 -0.005131
C66   C     C_R   0.150951 0.263812 0.325960 -0.005126
C67   C     C_R   0.651014 0.236128 0.825915 -0.004556
C68   C     C_R   0.650918 0.763788 0.326015 -0.005475
C69   C     C_R   0.207508 0.789321 0.889766 -0.092077
C70   C     C_R   0.207526 0.210684 0.389734 -0.092068
C71   C     C_R   0.707536 0.289295 0.889742 -0.091876
C72   C     C_R   0.707515 0.710674 0.389768 -0.092128
H77   H     H_    0.286097 0.665005 0.375512 0.103797
H78   H     H_    0.286133 0.335008 0.875445 0.103911
H79   H     H_    0.786071 0.165024 0.375545 0.103744
H80   H     H_    0.786139 0.835017 0.875473 0.103974
H81   H     H_    0.713745 0.335495 0.813581 0.103698
H82   H     H_    0.713799 0.664526 0.313515 0.103321
H83   H     H_    0.213749 0.835501 0.813570 0.103501
H84   H     H_    0.213782 0.164518 0.313513 0.103404
H85   H     H_    0.090597 0.638399 0.873127 0.064393
H86   H     H_    0.090498 0.361513 0.373250 0.064493
H87   H     H_    0.590654 0.138353 0.873069 0.064505
H88   H     H_    0.590514 0.861525 0.373244 0.064377
H89   H     H_    0.909397 0.361931 0.316065 0.064738
H90   H     H_    0.909294 0.637979 0.816210 0.064649
H91   H     H_    0.409374 0.861954 0.316092 0.064628
H92   H     H_    0.409328 0.138010 0.816147 0.064811
H93   H     H_    0.828829 0.566710 0.977040 0.052164
H94   H     H_    0.829146 0.433750 0.473088 0.050429
H95   H     H_    0.329052 0.066388 0.974333 0.050985
H96   H     H_    0.329003 0.933494 0.475171 0.051361

loop_
_geom_bond_atom_site_label_1
_geom_bond_atom_site_label_2
_geom_bond_distance
_ccdc_geom_bond_type
P6    C61   1.858907 S    
C15   H31   1.103173 S    
C12   H28   1.109036 S    
P1    O17   1.748904 S    
P5    C62   1.859048 S    
C14   C18   1.519026 S    
C39   H91   1.082047 S    
P3    O19   1.748936 S    
C2    H10   1.108555 S    
O4    Ba4   2.853439 S    
C20   H40   1.107066 S    
P4    O4    1.529702 D    
C54   C72   1.411856 A    
C28   H60   1.107798 S    
C9    H23   1.110823 S    
C53   C59   1.430071 A    
C12   H74   1.108559 S    
O8    Ba3   2.819473 S    
C22   H50   1.103319 S    
C26   H62   1.106789 S    
O26   Ba2   2.856709 S    
C27   H59   1.107647 S    
C1    H7    1.110833 S    
P7    C64   1.859008 S    
C29   H65   1.111544 S    
P1    O1    1.529704 D    
O15   P16   1.544474 D    
O38   C13   1.398786 S    
C25   H57   1.107589 S    
C3    H5    1.110873 S    
P1    Ba1   3.411851 S    
O37   C14   1.398701 S    
C20   H48   1.107121 S    
P3    O3    1.529704 D    
O29   Ba1   2.780347 S    
P4    O20   1.748922 S    
P3    Ba3   3.411851 S    
P7    O48   1.583701 S    
O2    Ba2   2.853439 S    
O31   Ba3   2.780347 S    
C35   C67   1.390792 A    
C16   H32   1.103424 S    
P9    O29   1.746774 S    
C34   C66   1.390878 A    
O22   P13   1.747056 S    
C19   H43   1.108065 S    
C33   C65   1.390834 A    
C57   C61   1.428047 A    
C36   C68   1.390862 A    
P13   C46   1.842269 S    
C25   H53   1.106433 S    
P12   O32   1.746846 S    
Ba4   O47   2.939342 S    
O23   C31   1.405718 S    
C30   H66   1.111542 S    
P5    O37   1.749364 S    
C9    H25   1.108608 S    
P11   C68   1.842602 S    
C38   H90   1.082057 S    
C10   H24   1.111043 S    
C60   C64   1.428070 A    
P10   C65   1.842491 S    
O21   C29   1.405678 S    
O16   P15   1.544669 D    
C11   H27   1.108520 S    
P9    C66   1.842637 S    
P2    O18   1.748928 S    
P12   C67   1.842386 S    
C56   C70   1.411837 A    
C40   C48   1.390778 A    
O41   C5    1.405749 S    
C14   H34   1.110781 S    
C38   C50   1.397050 A    
P4    O8    1.578855 S    
O6    Ba1   2.819473 S    
C3    H11   1.108660 S    
C28   H64   1.106970 S    
C43   C47   1.395634 A    
C53   C71   1.411788 A    
C4    H12   1.108650 S    
C52   C56   1.428419 A    
O9    Ba1   2.781065 S    
C33   H85   1.082070 S    
C28   H56   1.106864 S    
P7    O27   1.529022 D    
C15   C19   1.518980 S    
P9    O41   1.747160 S    
O18   C22   1.398122 S    
O12   P15   1.746297 S    
C25   H61   1.106750 S    
P2    O2    1.529702 D    
P11   O43   1.747135 S    
C6    H18   1.111410 S    
C71   H81   1.075053 S    
C5    H17   1.111591 S    
Ba1   O45   2.819417 S    
C51   C55   1.428430 A    
C10   H26   1.108664 S    
C11   H73   1.108007 S    
C1    H71   1.107985 S    
H3    C31   1.111530 S    
C8    H20   1.111649 S    
C16   H36   1.110990 S    
C16   C20   1.519093 S    
P9    O33   1.544559 D    
P4    Ba4   3.411870 S    
O10   P13   1.746356 S    
C19   H47   1.106837 S    
P10   O30   1.746823 S    
C7    H19   1.111443 S    
C68   C72   1.396287 A    
O32   Ba4   2.780335 S    
C2    H72   1.107965 S    
P11   O35   1.544498 D    
C40   H92   1.082041 S    
P12   O36   1.544665 D    
P14   C45   1.842371 S    
C37   H89   1.082033 S    
C37   C45   1.390830 A    
C23   C27   1.518937 S    
C27   H63   1.106583 S    
C23   H95   1.110972 S    
O23   P16   1.747002 S    
C40   C52   1.397035 A    
C42   H80   1.075054 S    
C22   H94   1.111049 S    
O24   P15   1.747190 S    
P3    C51   1.859644 S    
C8    C12   1.519066 S    
O19   C23   1.398086 S    
C21   H93   1.111032 S    
P2    C50   1.859609 S    
C3    C31   1.518792 S    
C42   C46   1.395675 A    
C1    C29   1.518727 S    
C4    C32   1.518921 S    
O42   C6    1.405696 S    
P12   O44   1.747299 S    
P5    Ba1   3.414092 S    
P8    Ba4   3.414073 S    
C13   C17   1.519153 S    
O20   C24   1.398130 S    
C39   C51   1.397039 A    
C33   C61   1.396670 A    
C35   C63   1.396636 A    
C32   H68   1.111638 S    
C31   H67   1.111513 S    
C24   H52   1.103321 S    
O17   C21   1.398075 S    
P6    O26   1.529026 D    
P1    O5    1.578829 S    
O44   C8    1.405782 S    
P7    O39   1.749365 S    
C6    C10   1.518610 S    
P7    Ba3   3.414092 S    
C18   H42   1.107727 S    
O12   Ba4   2.781076 S    
C5    C9    1.518828 S    
O25   Ba1   2.856750 S    
O39   C16   1.398811 S    
C21   H49   1.103203 S    
P2    Ba2   3.411870 S    
C7    C11   1.518773 S    
P5    O46   1.583701 S    
P8    O47   1.583675 S    
C12   H22   1.111614 S    
O30   Ba2   2.780335 S    
C44   H78   1.074983 S    
C11   H21   1.110873 S    
C54   C60   1.430096 A    
Ba1   Ba2   4.608628 S    
P10   O34   1.544554 D    
C2    H8    1.110870 S    
C17   H41   1.108025 S    
P11   O31   1.746862 S    
H2    C30   1.111598 S    
Ba3   O47   2.819417 S    
Ba3   Ba4   4.608628 S    
P2    O6    1.578855 S    
Ba2   O46   2.819453 S    
O9    P14   1.746333 S    
C42   C60   1.411666 A    
C37   C49   1.397054 A    
Ba1   O46   2.939335 S    
O24   C32   1.405912 S    
C20   H44   1.108070 S    
C43   H77   1.075056 S    
C58   C62   1.428040 A    
P4    C52   1.859540 S    
P6    O45   1.583675 S    
C18   H38   1.106493 S    
C5    H13   1.111628 S    
C41   H79   1.075014 S    
C55   C69   1.411822 A    
C4    H70   1.108084 S    
P15   C48   1.842332 S    
P6    Ba2   3.414073 S    
C8    H16   1.111810 S    
P16   C47   1.842279 S    
O27   Ba3   2.856750 S    
C2    C30   1.518817 S    
C39   C47   1.390802 A    
Ba3   O48   2.939335 S    
C19   H39   1.106845 S    
P6    O38   1.749362 S    
C41   C45   1.395618 A    
C27   H55   1.106571 S    
C17   H37   1.106882 S    
C24   C28   1.518950 S    
C15   H35   1.110718 S    
C43   C57   1.411665 A    
C23   H51   1.103203 S    
O5    Ba2   2.819438 S    
O10   Ba2   2.781076 S    
P8    O40   1.749376 S    
C44   C48   1.395655 A    
C1    H9    1.108661 S    
C41   C59   1.411650 A    
C4    H6    1.111062 S    
C67   C71   1.396279 A    
P10   O42   1.747160 S    
O40   C15   1.398789 S    
C13   H33   1.110773 S    
O11   P16   1.746418 S    
O14   P13   1.544565 D    
C14   H30   1.103180 S    
C18   H46   1.106614 S    
O43   C7    1.405757 S    
C69   H83   1.075063 S    
C36   H88   1.082069 S    
C50   C54   1.428451 A    
C59   C63   1.428034 A    
C26   H58   1.107827 S    
C49   C53   1.428402 A    
H4    C32   1.111709 S    
P8    C63   1.858813 S    
C44   C58   1.411633 A    
C9    H75   1.107997 S    
C3    H69   1.108018 S    
O22   C30   1.405777 S    
O7    Ba4   2.819438 S    
C10   H76   1.108057 S    
O28   Ba4   2.856709 S    
C35   H87   1.082071 S    
C65   C69   1.396284 A    
C34   H86   1.082057 S    
C72   H82   1.075066 S    
P3    O7    1.578829 S    
Ba4   O48   2.819453 S    
P5    O25   1.529022 D    
C24   H96   1.111137 S    
Ba2   O45   2.939342 S    
C21   C25   1.518754 S    
P8    O28   1.529026 D    
C56   C58   1.430074 A    
C6    H14   1.111489 S    
C34   C62   1.396688 A    
O1    Ba1   2.853400 S    
O21   P14   1.747071 S    
C55   C57   1.430087 A    
C26   H54   1.106907 S    
P1    C49   1.859681 S    
O13   P14   1.544539 D    
O11   Ba3   2.781065 S    
C17   H45   1.106633 S    
C38   C46   1.390795 A    
H1    C29   1.111569 S    
O3    Ba3   2.853400 S    
C66   C70   1.396277 A    
C36   C64   1.396690 A    
C7    H15   1.111569 S    
C13   H29   1.103318 S    
C70   H84   1.075051 S    
C22   C26   1.519051 S    
