data_mof_unit_34124.cif
_audit_creation_date              2013-03-05T15:47:47-0500
_audit_creation_method            fapswitch 2.2
_symmetry_space_group_name_H-M    P1
_symmetry_Int_Tables_number       1
_space_group_crystal_system       triclinic
_cell_length_a                    21.674338
_cell_length_b                    7.206846
_cell_length_c                    18.593834
_cell_angle_alpha                 89.471007
_cell_angle_beta                  95.995036
_cell_angle_gamma                 89.884809
_cell_volume                      2888.40362747

loop_
_atom_site_label
_atom_site_type_symbol
_atom_site_description
_atom_site_fract_x
_atom_site_fract_y
_atom_site_fract_z
_atom_type_partial_charge
O1    O     O_R   0.449650 0.506500 0.414480 -0.587504
O2    O     O_R   0.550350 0.006500 0.585520 -0.562489
O3    O     O_R   0.432010 0.173150 0.560250 -0.560346
O4    O     O_R   0.567990 0.673150 0.439750 -0.570612
C1    C     C_R   0.416364 0.343952 0.581448 0.962417
C2    C     C_R   0.582920 0.845000 0.417612 0.963980
O5    O     O_R   0.442320 0.176650 0.413480 -0.564416
O6    O     O_R   0.557680 0.676650 0.586520 -0.594365
O7    O     O_R   0.560730 0.008380 0.437700 -0.556489
O8    O     O_R   0.439270 0.508380 0.562300 -0.579290
C3    C     C_R   0.428405 0.346527 0.387640 0.959316
C4    C     C_R   0.571626 0.844303 0.612393 0.938668
O9    O     O_3   0.538840 0.339860 0.508120 -0.274228
O10   O     O_3   0.461160 0.839860 0.491880 -0.282405
V1    V     V_3+5 0.492800 0.064220 0.498490 1.261743
V2    V     V_3+5 0.507200 0.564220 0.501510 1.229103
C5    C     C_R   0.869874 0.000207 0.690435 -0.175395
C6    C     C_R   0.125664 0.392492 0.310624 -0.174459
H1    H     H_    0.957746 0.027879 0.753818 0.108526
H2    H     H_    0.037582 0.420859 0.247317 0.104555
H3    H     H_    0.787587 0.005697 0.574622 0.133482
H4    H     H_    0.206249 0.342709 0.426577 0.132190
H5    H     H_    0.889180 0.037596 0.640833 0.116077
H6    H     H_    0.104411 0.378959 0.360647 0.115667
C7    C     C_R   0.886129 0.945602 0.819678 -0.088535
C8    C     C_R   0.113080 0.434219 0.180606 -0.083652
C9    C     C_R   0.587110 0.799735 0.744374 -0.069685
C10   C     C_R   0.415631 0.388225 0.255434 -0.061896
C11   C     C_R   0.623523 0.792038 0.810459 -0.101496
C12   C     C_R   0.380266 0.411647 0.189236 -0.107623
C13   C     C_R   0.686858 0.829425 0.814818 -0.182418
C14   C     C_R   0.315738 0.413518 0.184934 -0.179273
C15   C     C_R   0.715820 0.876405 0.752420 0.094329
C16   C     C_R   0.284493 0.392845 0.247599 0.095770
C17   C     C_R   0.677771 0.886704 0.684530 0.091742
C18   C     C_R   0.321304 0.365547 0.315623 0.090093
C19   C     C_R   0.781183 0.912814 0.755134 0.088961
C20   C     C_R   0.218099 0.401331 0.245091 0.089401
C21   C     C_R   0.806423 0.960640 0.689909 0.182157
C22   C     C_R   0.190417 0.383630 0.310810 0.181939
C23   C     C_R   0.768323 0.969711 0.624407 -0.229428
C24   C     C_R   0.227331 0.356613 0.376442 -0.228887
C25   C     C_R   0.705187 0.932970 0.621612 -0.207539
C26   C     C_R   0.291600 0.347242 0.378906 -0.207564
C27   C     C_R   0.822635 0.904487 0.819996 -0.241293
C28   C     C_R   0.177913 0.426619 0.179935 -0.241147
C29   C     C_R   0.909131 0.994171 0.754714 -0.160911
C30   C     C_R   0.087450 0.417053 0.246163 -0.162208
C31   C     C_R   0.613084 0.847755 0.681066 -0.187354
C32   C     C_R   0.387275 0.361307 0.318878 -0.194611
H7    H     H_    0.807088 0.869632 0.871610 0.103478
H8    H     H_    0.195217 0.438017 0.127820 0.100561
H9    H     H_    0.538162 0.767376 0.742542 0.159008
H10   H     H_    0.465666 0.393736 0.257224 0.176047
H11   H     H_    0.711854 0.819847 0.867903 0.118186
H12   H     H_    0.291744 0.434258 0.131780 0.118314
H13   H     H_    0.602482 0.755371 0.858936 0.129576
H14   H     H_    0.403165 0.431037 0.140684 0.130723
H15   H     H_    0.677903 0.941404 0.569463 0.108452
H16   H     H_    0.317961 0.326719 0.431143 0.100354
C33   C     C_R   0.632052 0.015165 0.317795 0.321629
C34   C     C_R   0.359985 0.211607 0.683945 0.311632
C35   C     C_R   0.630476 0.858955 0.364984 -0.292197
C36   C     C_R   0.367186 0.353480 0.632014 -0.308050
C37   C     C_R   0.675336 0.718396 0.362648 -0.240897
C38   C     C_R   0.327657 0.509271 0.629000 -0.204843
C39   C     C_R   0.722011 0.732696 0.315853 0.143930
C40   C     C_R   0.282126 0.527736 0.676857 0.157103
C41   C     C_R   0.725311 0.892312 0.271780 -0.003505
C42   C     C_R   0.273960 0.385169 0.727381 -0.012710
C43   C     C_R   0.680584 0.034786 0.272977 -0.036887
C44   C     C_R   0.312317 0.225346 0.730566 -0.031317
C45   C     C_R   0.765731 0.589791 0.312538 -0.184341
C46   C     C_R   0.244795 0.687673 0.675295 -0.162851
C47   C     C_R   0.812194 0.604199 0.265884 -0.230536
C48   C     C_R   0.199890 0.707162 0.723643 -0.240325
C49   C     C_R   0.816226 0.762647 0.222154 0.140894
C50   C     C_R   0.190878 0.566174 0.773996 0.148609
C51   C     C_R   0.772874 0.907780 0.225293 0.064027
C52   C     C_R   0.227807 0.403974 0.775593 0.063691
C53   C     C_R   0.776722 0.067607 0.181489 0.157628
C54   C     C_R   0.218743 0.260831 0.825523 0.155583
C55   C     C_R   0.732534 0.208794 0.183445 -0.231741
C56   C     C_R   0.256437 0.102259 0.828046 -0.243042
C57   C     C_R   0.684683 0.191858 0.227850 -0.138341
C58   C     C_R   0.303056 0.085554 0.781892 -0.126637
C59   C     C_R   0.862629 0.777924 0.175056 -0.243705
C60   C     C_R   0.145350 0.583916 0.822366 -0.251906
C61   C     C_R   0.867060 0.937729 0.131494 -0.140252
C62   C     C_R   0.135091 0.439372 0.871165 -0.139968
C63   C     C_R   0.824113 0.082683 0.135671 -0.265580
C64   C     C_R   0.172220 0.278440 0.872236 -0.255785
H17   H     H_    0.674283 0.597905 0.397830 0.177098
H18   H     H_    0.332588 0.617800 0.589253 0.174078
H19   H     H_    0.763719 0.465919 0.345693 0.139763
H20   H     H_    0.250725 0.798877 0.637015 0.144161
H21   H     H_    0.844985 0.491079 0.263968 0.138197
H22   H     H_    0.172098 0.832634 0.721529 0.142405
H23   H     H_    0.895690 0.665538 0.172848 0.140427
H24   H     H_    0.116858 0.708011 0.820717 0.137931
H25   H     H_    0.826693 0.205677 0.102106 0.145454
H26   H     H_    0.165248 0.166810 0.910017 0.145706
H27   H     H_    0.734580 0.332139 0.149989 0.143864
H28   H     H_    0.250170 0.991053 0.866221 0.142961
H29   H     H_    0.651205 0.303592 0.226531 0.181194
H30   H     H_    0.331514 0.961740 0.786779 0.182881
O11   O     O_R   0.060820 0.290050 0.937800 -0.592050
O12   O     O_R   0.939180 0.790050 0.062200 -0.594118
O13   O     O_R   0.057690 0.616620 0.086540 -0.585438
O14   O     O_R   0.942310 0.116620 0.913460 -0.584423
C65   C     C_R   0.071442 0.447586 0.112585 0.901468
C66   C     C_R   0.928282 0.949503 0.887529 0.905115
O15   O     O_R   0.068010 0.619890 0.939770 -0.593681
O16   O     O_R   0.931990 0.119890 0.060230 -0.594884
O17   O     O_R   0.949640 0.787940 0.914460 -0.581741
O18   O     O_R   0.050360 0.287940 0.085540 -0.582286
C67   C     C_R   0.084570 0.451326 0.919411 0.928746
C68   C     C_R   0.916074 0.950689 0.081371 0.931927
O19   O     O_3   0.961210 0.453080 0.991940 -0.281963
O20   O     O_3   0.038790 0.953080 0.008060 -0.283015
V3    V     V_3+5 0.007200 0.728820 0.001500 1.155043
V4    V     V_3+5 0.992800 0.228820 0.998500 1.156069
N1    N     N_R   0.581674 0.145418 0.310965 0.224230
O21   O     O_R   0.526283 0.089852 0.287177 -0.438089
O22   O     O_R   0.589876 0.314093 0.334351 -0.438319
N2    N     N_R   0.403739 0.061525 0.692920 0.229865
O23   O     O_R   0.461722 0.094706 0.714201 -0.424097
O24   O     O_R   0.386563 0.893583 0.675737 -0.441084

loop_
_geom_bond_atom_site_label_1
_geom_bond_atom_site_label_2
_geom_bond_distance
_ccdc_geom_bond_type
C38   C40   1.403028 A    
C35   C37   1.406796 A    
N2    O23   1.300855 A    
O17   V3    1.980051 S    
C9    C11   1.389901 A    
C23   C25   1.390064 A    
O1    C3    1.324772 A    
O12   V3    1.999061 S    
O2    C4    1.329524 A    
C2    O7    1.341866 A    
C4    C31   1.483072 S    
O3    V1    1.999893 S    
N1    O21   1.300619 A    
C21   C23   1.399220 A    
O5    C3    1.333438 A    
C5    H5    1.083892 S    
C55   H27   1.083900 S    
C6    H6    1.083890 S    
C48   C50   1.403061 A    
O13   C65   1.328486 A    
H1    C29   1.083596 S    
N1    O22   1.301108 A    
C27   H7    1.077546 S    
C40   C46   1.405288 A    
C28   H8    1.077483 S    
C47   H21   1.083742 S    
C54   C64   1.404195 A    
C41   C43   1.412617 A    
C5    C21   1.404112 A    
C33   C35   1.423591 A    
C6    C22   1.404429 A    
C34   C36   1.419882 A    
C7    C66   1.478910 S    
C43   C57   1.411305 A    
C10   C32   1.398106 A    
C37   C39   1.404925 A    
C17   C31   1.425380 A    
C13   C15   1.414405 A    
C65   O18   1.322957 A    
C39   C45   1.404235 A    
C61   C63   1.405883 A    
C17   C25   1.404176 A    
C7    C29   1.396016 A    
C16   C18   1.434947 A    
C25   H15   1.082867 S    
C38   H18   1.084225 S    
C33   C43   1.415096 A    
C37   H17   1.084073 S    
O6    V2    2.004517 S    
C45   C47   1.399526 A    
C58   H30   1.081430 S    
C24   C26   1.390430 A    
C63   H25   1.084254 S    
C57   H29   1.081253 S    
C53   C55   1.399270 A    
C59   H23   1.084265 S    
C49   C51   1.410295 A    
C42   C52   1.418328 A    
C12   C14   1.392565 A    
C62   C67   1.489103 S    
O12   C68   1.326923 A    
C52   C54   1.409243 A    
C51   C53   1.412210 A    
C10   H10   1.082311 S    
C15   C19   1.437103 A    
C1    C36   1.495010 S    
C39   C41   1.412477 A    
C36   C38   1.408090 A    
C2    C35   1.496459 S    
O4    V2    1.993639 S    
C46   H20   1.083700 S    
C62   C64   1.409135 A    
O6    C4    1.328347 A    
C34   C44   1.420189 A    
O1    V2    1.985060 S    
O16   C68   1.334781 A    
C53   C63   1.405064 A    
O2    V1    1.977734 S    
C47   C49   1.403867 A    
C60   H24   1.084174 S    
C46   C48   1.399913 A    
H3    C23   1.084085 S    
O4    C2    1.352055 A    
C55   C57   1.396369 A    
C60   C62   1.408372 A    
C54   C56   1.401052 A    
C59   C61   1.411080 A    
C56   H28   1.083830 S    
O15   C67   1.335302 A    
C41   C51   1.416746 A    
C45   H19   1.083755 S    
C19   C27   1.427387 A    
C7    C27   1.408930 A    
C18   C32   1.425089 A    
O20   V3    1.756829 S    
C34   N2    1.434088 S    
O18   V4    1.987547 S    
O19   V4    1.752219 S    
C50   C60   1.409252 A    
N2    O24   1.299885 A    
H2    C30   1.083615 S    
C16   C20   1.436074 A    
C5    C29   1.393128 A    
C11   H13   1.082708 S    
C22   C24   1.399403 A    
O3    C1    1.349371 A    
C6    C30   1.393583 A    
C44   C58   1.410363 A    
C9    H9    1.083828 S    
C8    C30   1.395948 A    
C33   N1    1.433277 S    
C10   C12   1.389120 A    
O7    V1    1.990225 S    
C1    O8    1.344987 A    
C19   C21   1.421455 A    
C3    C32   1.483153 S    
O8    V2    1.987201 S    
O14   V4    2.004342 S    
C20   C22   1.421299 A    
O13   V3    1.990742 S    
H4    C24   1.084100 S    
C26   H16   1.082959 S    
C12   H14   1.082767 S    
O5    V1    1.990894 S    
C15   C17   1.435165 A    
C14   H12   1.076657 S    
C50   C52   1.413734 A    
O14   C66   1.325533 A    
C20   C28   1.426351 A    
C18   C26   1.404344 A    
C8    C28   1.407534 A    
O16   V4    1.993597 S    
O15   V3    1.999845 S    
C61   C68   1.487105 S    
C49   C59   1.404711 A    
C11   C13   1.393630 A    
O9    V2    1.753316 S    
C40   C42   1.409676 A    
O10   V1    1.757946 S    
C56   C58   1.398025 A    
C42   C44   1.416315 A    
O11   V4    1.995767 S    
C13   H11   1.076785 S    
C48   H22   1.083646 S    
C8    C65   1.477291 S    
O11   C67   1.328401 A    
C66   O17   1.326426 A    
C9    C31   1.397872 A    
C14   C16   1.414387 A    
C64   H26   1.084339 S    
