data_mof_unit_28108.cif
_audit_creation_date              2012-12-10T17:23:08-0500
_audit_creation_method            fapswitch 2.2
_symmetry_space_group_name_H-M    P1
_symmetry_Int_Tables_number       1
_space_group_crystal_system       triclinic
_cell_length_a                    15.851307
_cell_length_b                    10.860387
_cell_length_c                    9.704388
_cell_angle_alpha                 93.160949
_cell_angle_beta                  89.936274
_cell_angle_gamma                 99.731979
_cell_volume                      1644.01946457

loop_
_atom_site_label
_atom_site_type_symbol
_atom_type_description
_atom_site_fract_x
_atom_site_fract_y
_atom_site_fract_z
_atom_type_partial_charge
C1    C     C_R   0.504577 0.264123 0.496647 0.873573
C2    C     C_3   0.083038 0.498709 0.500743 -0.087892
C3    C     C_3   0.983976 0.615467 0.520631 -0.245168
C4    C     C_3   0.916130 0.496147 0.499398 -0.045661
C5    C     C_3   0.035842 0.567922 0.398311 -0.297847
C6    C     C_3   0.966894 0.449189 0.378646 0.347307
C7    C     C_1   0.174968 0.500476 0.500841 0.146421
C8    C     C_1   0.824579 0.496832 0.499464 0.093538
C9    C     C_R   0.614618 0.165727 0.685060 -0.189950
C10   C     C_R   0.635391 0.128037 0.812834 -0.188061
C11   C     C_R   0.600145 0.009418 0.852326 0.476189
C12   C     C_R   0.340344 0.501664 0.500142 0.884223
C13   C     C_R   0.556206 0.921256 0.754523 -0.246357
C14   C     C_R   0.537852 0.956691 0.620648 -0.004954
C15   C     C_R   0.556656 0.085335 0.596621 0.097282
C16   C     C_R   0.512328 0.132246 0.491311 -0.134705
C17   C     C_R   0.461220 0.050568 0.397901 -0.108707
C18   C     C_R   0.454369 0.921962 0.405388 0.158383
C19   C     C_R   0.495519 0.873013 0.513621 -0.083278
C20   C     C_R   0.641518 0.652798 0.141708 0.287341
C21   C     C_R   0.713307 0.699458 0.062155 0.175383
C22   C     C_R   0.704782 0.703213 0.921142 -0.217757
C23   C     C_R   0.498897 0.737943 0.504429 0.787930
C24   C     C_R   0.628206 0.652275 0.858230 -0.117042
C25   C     C_R   0.563934 0.575433 0.928151 0.081032
C26   C     C_R   0.566577 0.575569 0.076805 0.100041
C27   C     C_R   0.439584 0.417959 0.070084 0.359394
C28   C     C_R   0.438657 0.418687 0.919207 0.364949
C29   C     C_R   0.659805 0.500158 0.500033 0.745713
C30   C     C_3   0.962856 0.426514 0.601967 -0.280379
C31   C     C_3   0.014684 0.380990 0.479804 0.324613
C32   C     C_1   0.250617 0.501345 0.500468 -0.069800
C33   C     C_1   0.749222 0.498266 0.499759 -0.143522
C34   C     C_3   0.031729 0.545121 0.620867 0.387113
Cu1   Cu    Cu3+1 0.499990 0.499990 0.640660 1.020776
Cu2   Cu    Cu3+1 0.500010 0.500010 0.359340 1.067761
H1    H     H_    0.529235 0.831387 0.790227 0.206638
H2    H     H_    0.756291 0.751916 0.861008 0.162316
H3    H     H_    0.621683 0.673191 0.753018 0.192843
H4    H     H_    0.932576 0.368963 0.685552 0.220363
H5    H     H_    0.066230 0.624909 0.314379 0.214501
H6    H     H_    0.970552 0.712067 0.538993 0.195478
H7    H     H_    0.423993 0.086169 0.321270 0.233643
H8    H     H_    0.639650 0.260665 0.659905 0.163048
H9    H     H_    0.673265 0.194812 0.884889 0.173987
N1    N     N_R   0.500800 0.501210 0.147910 -0.261799
N2    N     N_R   0.500830 0.501290 0.852040 -0.272950
O1    O     O_R   0.499990 0.319640 0.618810 -0.523095
O2    O     O_R   0.500000 0.319660 0.381240 -0.525001
O3    O     O_R   0.379070 0.499980 0.618770 -0.502819
O4    O     O_R   0.379080 0.500000 0.381190 -0.516128
O5    O     O_R   0.500000 0.680340 0.618760 -0.628837
O6    O     O_R   0.500010 0.680360 0.381190 -0.518351
O7    O     O_R   0.620920 0.500000 0.618810 -0.616905
O8    O     O_R   0.620930 0.500020 0.381230 -0.560145
S1    S     S_3+6 0.037524 0.226008 0.456520 0.078064
O9    O     O_2   0.092305 0.216595 0.331090 -0.262001
O10   O     O_2   0.085130 0.196446 0.580945 -0.212114
O11   O     O_3   0.945568 0.123323 0.437854 -0.482725
H10   H     H_    0.938778 0.103170 0.337282 0.396451
S2    S     S_3+6 0.602440 0.979962 0.028262 -0.014487
O12   O     O_2   0.548941 0.855835 0.054118 -0.322930
O13   O     O_2   0.693118 0.981193 0.073440 -0.316617
O14   O     O_3   0.563056 0.092942 0.120182 -0.492852
H11   H     H_    0.610505 0.165189 0.127838 0.359038
N3    N     N_3   0.399160 0.840850 0.309518 -0.533517
H12   H     H_    0.418399 0.862751 0.209570 0.303662
H13   H     H_    0.337088 0.860152 0.322010 0.233697
S3    S     S_3+6 0.364687 0.294611 0.148868 0.089729
O15   O     O_2   0.390732 0.172609 0.100957 -0.259381
O16   O     O_2   0.355802 0.288659 0.301214 -0.289578
O17   O     O_3   0.264403 0.299489 0.095332 -0.431332
H14   H     H_    0.230357 0.217915 0.117580 0.409539
N4    N     N_3   0.641916 0.707096 0.278900 -0.495657
H15   H     H_    0.699545 0.701359 0.328520 0.218159
H16   H     H_    0.640043 0.802488 0.273129 0.270294
N5    N     N_3   0.792693 0.755466 0.127775 -0.567750
H17   H     H_    0.840389 0.707685 0.089115 0.274291
H18   H     H_    0.808491 0.847952 0.099645 0.278545
S4    S     S_3+6 0.347291 0.320618 0.824030 0.127864
O18   O     O_2   0.323431 0.193538 0.879273 -0.191715
O19   O     O_2   0.272906 0.388966 0.844633 -0.208717
O20   O     O_3   0.349583 0.281241 0.654841 -0.505467
H19   H     H_    0.289859 0.244327 0.628606 0.381825
S5    S     S_3+6 0.922063 0.387080 0.215676 0.068796
O21   O     O_2   0.851501 0.279004 0.237517 -0.244959
O22   O     O_2   0.886036 0.486484 0.144799 -0.271050
O23   O     O_3   0.997955 0.337529 0.116343 -0.424308
H20   H     H_    0.044734 0.410515 0.114568 0.380883
S6    S     S_3+6 0.074398 0.608981 0.784169 0.071970
O24   O     O_2   0.116826 0.513885 0.851458 -0.185490
O25   O     O_2   0.139181 0.724700 0.764969 -0.243475
O26   O     O_3   0.994975 0.644820 0.885640 -0.478274
H21   H     H_    0.966450 0.701183 0.831831 0.336923

loop_
_geom_bond_atom_site_label_1
_geom_bond_atom_site_label_2
_ccdc_geom_bond_type
N3    H13   S    
C28   N2    A    
O26   H21   S    
S2    O14   S    
Cu1   Cu2   S    
C4    C8    S    
Cu1   N2    S    
C34   S6    S    
C23   O5    A    
C3    H6    S    
N5    H17   S    
C6    S5    S    
N4    H16   S    
C30   C31   S    
C29   O7    A    
C15   C16   A    
C22   H2    S    
C29   C33   S    
C24   H3    S    
S1    O9    D    
S2    O13   D    
C18   C19   A    
S3    O16   D    
Cu2   O6    S    
C2    C7    S    
C16   C17   A    
Cu2   N1    S    
C31   S1    S    
C9    C10   A    
C25   N2    A    
C13   H1    S    
C27   S3    S    
C2    C34   S    
N5    H18   S    
C6    C31   S    
O11   H10   S    
C21   C22   A    
C12   C32   S    
Cu1   O7    S    
S2    O12   D    
C10   H9    S    
S4    O20   S    
Cu1   O1    S    
C23   O6    A    
S5    O22   D    
N4    H15   S    
C30   C34   S    
C30   H4    S    
C24   C25   A    
C4    C6    S    
O17   H14   S    
C29   O8    A    
C3    C34   S    
C3    C5    S    
C25   C26   A    
S5    O21   D    
C2    C31   S    
S3    O17   S    
C19   C23   S    
C17   H7    S    
S6    O25   D    
O20   H19   S    
Cu1   O3    S    
C17   C18   A    
C20   N4    S    
C1    C16   S    
O23   H20   S    
Cu2   O4    S    
C27   N1    A    
S4    O19   D    
C22   C24   A    
C2    C5    S    
C3    C4    S    
Cu1   O5    S    
C12   O4    A    
S6    O26   S    
S5    O23   S    
C5    H5    S    
C9    H8    S    
C7    C32   T    
C14   C19   A    
S4    O18   D    
C11   S2    S    
C12   O3    A    
C1    O1    A    
C18   N3    S    
S1    O11   S    
O14   H11   S    
C9    C15   A    
Cu2   O8    S    
C11   C13   A    
S6    O24   D    
C5    C6    S    
C20   C26   A    
S1    O10   D    
N3    H12   S    
C8    C33   T    
S3    O15   D    
C28   S4    S    
C10   C11   A    
C26   N1    A    
C20   C21   A    
C21   N5    S    
C27   C28   A    
C14   C15   A    
C13   C14   A    
C1    O2    A    
C4    C30   S    
Cu2   O2    S    
