data_mof_unit_37309.cif
_audit_creation_date              2013-03-05T15:58:18-0500
_audit_creation_method            fapswitch 2.2
_symmetry_space_group_name_H-M    P1
_symmetry_Int_Tables_number       1
_space_group_crystal_system       triclinic
_cell_length_a                    12.603724
_cell_length_b                    13.21088
_cell_length_c                    15.552873
_cell_angle_alpha                 83.646314
_cell_angle_beta                  99.296767
_cell_angle_gamma                 97.126586
_cell_volume                      2525.00927006

loop_
_atom_site_label
_atom_site_type_symbol
_atom_site_description
_atom_site_fract_x
_atom_site_fract_y
_atom_site_fract_z
_atom_type_partial_charge
O1    O     O_R   0.374950 0.371210 0.521360 -0.631231
O2    O     O_R   0.542050 0.338030 0.492790 -0.625763
C1    C     C_R   0.442746 0.308782 0.509067 0.857943
O3    O     O_R   0.368720 0.526070 0.390200 -0.581384
O4    O     O_R   0.535820 0.492890 0.361630 -0.561439
C2    C     C_R   0.435948 0.515225 0.336187 0.916423
Zn1   Zn    Zn3+2 0.388420 0.522150 0.519080 1.037386
Zn2   Zn    Zn3+2 0.611580 0.477850 0.480920 1.005467
O5    O     O_R   0.457950 0.661970 0.507210 -0.508540
O6    O     O_R   0.625050 0.628790 0.478640 -0.582122
O7    O     O_R   0.464180 0.507110 0.638370 -0.595440
O8    O     O_R   0.631280 0.473930 0.609800 -0.657638
C3    C     C_R   0.554478 0.691795 0.483998 0.944208
C4    C     C_R   0.564940 0.487346 0.663523 0.839094
C5    C     C_R   0.396742 0.526159 0.242117 -0.165424
C6    C     C_R   0.607645 0.496662 0.755236 -0.075503
C7    C     C_R   0.251618 0.487262 0.125063 -0.153266
C8    C     C_R   0.287708 0.496637 0.212998 -0.147071
C9    C     C_R   0.469283 0.556849 0.181537 0.240923
C10   C     C_R   0.432710 0.549690 0.090948 -0.021574
C11   C     C_R   0.324453 0.507415 0.064940 0.109376
C12   C     C_R   0.502537 0.572671 0.026470 0.072675
C13   C     C_R   0.474155 0.527212 0.946420 0.067021
C14   C     C_R   0.366363 0.483293 0.923721 -0.226183
C15   C     C_R   0.291518 0.479162 0.980426 -0.163806
C16   C     C_R   0.598668 0.640121 0.038439 -0.117097
C17   C     C_R   0.676144 0.644337 0.983863 -0.202280
C18   C     C_R   0.656568 0.586808 0.912183 0.122264
C19   C     C_R   0.554065 0.529920 0.891274 0.084001
C20   C     C_R   0.736100 0.590109 0.858113 -0.133562
C21   C     C_R   0.711296 0.545472 0.779374 -0.145082
C22   C     C_R   0.534211 0.480402 0.814343 -0.253755
H1    H     H_    0.209206 0.446405 0.960150 0.156760
H2    H     H_    0.458935 0.434886 0.794816 0.143294
H3    H     H_    0.769663 0.555917 0.734616 0.188967
H4    H     H_    0.750998 0.693893 0.997161 0.172827
H5    H     H_    0.168230 0.457502 0.104968 0.180860
H6    H     H_    0.232132 0.472707 0.259206 0.244673
H7    H     H_    0.335880 0.453294 0.861897 0.137339
H8    H     H_    0.614395 0.692233 0.088811 0.200815
H9    H     H_    0.814914 0.632474 0.874063 0.186284
C23   C     C_R   0.716253 0.939933 0.515462 -0.256395
H10   H     H_    0.731481 0.101377 0.604151 0.147714
H11   H     H_    0.798857 0.969685 0.538431 0.191464
C24   C     C_R   0.585498 0.802229 0.466415 -0.254885
C25   C     C_R   0.297362 0.184217 0.449549 -0.322309
C26   C     C_R   0.271041 0.097256 0.403723 0.549173
C27   C     C_R   0.350082 0.031841 0.405209 -0.178440
C28   C     C_R   0.447538 0.039624 0.465241 0.018389
C29   C     C_R   0.471852 0.127081 0.512634 0.078788
C30   C     C_R   0.525587 0.968236 0.475713 -0.008523
C31   C     C_R   0.631688 0.997199 0.519160 0.060347
C32   C     C_R   0.652590 0.082430 0.566577 -0.177332
C33   C     C_R   0.571061 0.142232 0.568465 -0.160657
C34   C     C_R   0.502611 0.867276 0.450203 0.224036
C35   C     C_R   0.694669 0.844598 0.482589 0.295456
C36   C     C_R   0.400405 0.202671 0.498129 -0.171232
H12   H     H_    0.242776 0.243149 0.438008 0.186202
H13   H     H_    0.334428 0.978752 0.355809 0.214813
H14   H     H_    0.588522 0.204548 0.610132 0.148459
C37   C     C_R   0.141314 0.657785 0.610143 0.355862
N1    N     N_R   0.239390 0.551900 0.544730 -0.168305
C38   C     C_R   0.756529 0.382535 0.394389 0.022544
C39   C     C_R   0.849287 0.372150 0.360634 -0.279968
C40   C     C_R   0.946498 0.428600 0.391719 0.324555
C41   C     C_R   0.951545 0.485694 0.465429 -0.045716
C42   C     C_R   0.853297 0.499623 0.492105 0.164217
C43   C     C_R   0.048274 0.530528 0.512660 -0.083094
C44   C     C_R   0.044648 0.601930 0.574449 -0.135028
C45   C     C_R   0.944678 0.615937 0.597993 0.359572
C46   C     C_R   0.851100 0.565729 0.555669 -0.226032
C47   C     C_R   0.148928 0.502053 0.504716 -0.082077
C48   C     C_R   0.239633 0.628182 0.596701 0.583794
N2    N     N_R   0.759950 0.448600 0.455730 -0.119477
H15   H     H_    0.158120 0.439477 0.468557 0.173987
H16   H     H_    0.679807 0.343736 0.367132 0.167200
H17   H     H_    0.843457 0.326976 0.305722 0.201423
H18   H     H_    0.777026 0.578565 0.574883 0.213191
N3    N     N_R   0.782526 0.794583 0.463839 0.228365
O9    O     O_R   0.767853 0.741315 0.396580 -0.295085
O10   O     O_R   0.881477 0.824304 0.497219 -0.409843
N4    N     N_R   0.395073 0.825297 0.416657 0.206307
O11   O     O_R   0.378299 0.779616 0.344936 -0.364117
O12   O     O_R   0.317836 0.818745 0.463914 -0.402809
O13   O     O_3   0.175931 0.083632 0.345642 -0.582147
C49   C     C_3   0.086541 0.075414 0.391168 -0.182144
H19   H     H_    0.072867 0.151393 0.409029 0.156746
H20   H     H_    0.095527 0.019517 0.450367 0.139716
H21   H     H_    0.013094 0.046900 0.347306 0.214486
O14   O     O_3   0.337221 0.680143 0.629873 -0.561957
C50   C     C_3   0.355609 0.661736 0.721879 -0.221821
H22   H     H_    0.443453 0.678611 0.744667 0.188070
H23   H     H_    0.331723 0.580536 0.744646 0.125904
H24   H     H_    0.313391 0.713697 0.752742 0.207016
N5    N     N_R   0.936972 0.670854 0.671207 0.234475
O15   O     O_R   0.861521 0.731125 0.665914 -0.397766
O16   O     O_R   0.988972 0.643645 0.747960 -0.384603
O17   O     O_3   0.139847 0.740485 0.657206 -0.576603
C51   C     C_3   0.153609 0.832133 0.602397 -0.126933
H25   H     H_    0.122982 0.893844 0.631293 0.177213
H26   H     H_    0.107573 0.827147 0.535165 0.189792
H27   H     H_    0.240830 0.854928 0.599578 0.198093
N6    N     N_R   0.031025 0.441018 0.338589 0.180765
O18   O     O_R   0.074176 0.532749 0.315761 -0.357202
O19   O     O_R   0.050292 0.364220 0.299892 -0.441462
N7    N     N_R   0.581523 0.582723 0.213807 0.195145
O20   O     O_R   0.652025 0.520617 0.207984 -0.372677
O21   O     O_R   0.611516 0.663322 0.256498 -0.337082

loop_
_geom_bond_atom_site_label_1
_geom_bond_atom_site_label_2
_geom_bond_distance
_ccdc_geom_bond_type
C5    C8    1.396696 A    
C41   C43   1.415801 A    
C39   H17   1.082865 S    
C37   O17   1.384256 S    
C33   H14   1.083136 S    
C32   C33   1.377411 A    
C6    C21   1.396253 A    
Zn1   O7    1.945890 S    
C16   C17   1.385995 A    
C29   C33   1.408234 A    
C35   N3    1.440951 S    
C13   C19   1.419373 A    
C18   C19   1.420235 A    
C48   O14   1.383510 S    
C19   C22   1.399314 A    
O3    Zn1   1.975242 S    
C20   C21   1.391234 A    
O7    C4    1.316492 A    
C49   H20   1.114637 S    
C38   H16   1.081734 S    
C14   H7    1.075380 S    
O5    C3    1.325595 A    
C23   C35   1.390751 A    
C2    C5    1.463873 S    
H10   C32   1.084299 S    
N5    O15   1.301229 A    
C24   C35   1.413533 A    
C43   C44   1.428600 A    
C28   C30   1.424111 A    
C13   C14   1.414851 A    
C20   H9    1.083831 S    
C45   C46   1.384195 A    
C4    C6    1.453912 S    
C30   C34   1.415763 A    
Zn2   O8    1.975242 S    
C41   C42   1.406690 A    
C25   H12   1.083409 S    
C23   H11   1.084167 S    
C47   H15   1.077409 S    
C30   C31   1.424641 A    
C14   C15   1.384198 A    
N6    O19   1.301550 A    
C50   H22   1.109320 S    
N3    O10   1.301349 A    
C49   H19   1.111082 S    
C37   C48   1.397953 A    
O13   C49   1.411684 S    
O6    C3    1.309163 A    
C7    C11   1.396272 A    
N3    O9    1.300689 A    
O1    C1    1.307443 A    
C22   H2    1.076898 S    
C5    C9    1.410622 A    
Zn1   N1    2.074061 S    
C50   H23   1.112206 S    
C26   C27   1.393396 A    
C43   C47   1.394821 A    
Zn2   N2    2.061378 S    
C7    C8    1.383905 A    
N1    C47   1.340166 A    
N1    C48   1.359278 A    
C42   N2    1.353220 A    
C7    H5    1.084153 S    
C34   N4    1.437324 S    
C1    C36   1.454870 S    
O3    C2    1.315643 A    
C27   C28   1.417897 A    
C51   H26   1.115403 S    
C10   C12   1.422618 A    
O17   C51   1.410634 S    
N4    O12   1.300578 A    
C25   C36   1.400774 A    
C12   C16   1.411609 A    
C21   H3    1.078788 S    
C40   N6    1.433790 S    
C26   O13   1.384898 S    
C17   C18   1.390483 A    
C31   C32   1.388699 A    
C27   H13   1.075679 S    
C37   C44   1.409297 A    
Zn1   O5    1.946572 S    
C11   C15   1.390391 A    
C25   C26   1.395750 A    
O1    Zn1   1.977021 S    
C29   C36   1.402362 A    
O2    Zn2   1.946573 S    
O8    C4    1.312977 A    
C49   H21   1.109285 S    
O4    Zn2   1.945890 S    
N5    O16   1.301706 A    
C38   N2    1.354782 A    
C17   H4    1.084031 S    
C6    C22   1.389136 A    
C51   H25   1.109431 S    
C39   C40   1.397400 A    
C9    C10   1.419618 A    
C18   C20   1.402603 A    
C45   N5    1.438213 S    
C8    H6    1.079121 S    
C50   H24   1.109442 S    
C3    C24   1.469976 S    
C16   H8    1.078109 S    
O14   C50   1.410767 S    
O4    C2    1.316624 A    
N7    O21   1.301162 A    
O2    C1    1.319325 A    
C42   C46   1.395245 A    
C40   C41   1.429393 A    
C44   C45   1.406356 A    
C38   C39   1.383928 A    
C9    N7    1.434764 S    
C51   H27   1.109778 S    
C10   C11   1.421210 A    
C24   C34   1.408214 A    
Zn2   O6    1.977020 S    
C28   C29   1.414137 A    
N7    O20   1.301656 A    
C23   C31   1.393254 A    
N6    O18   1.301555 A    
C12   C13   1.416674 A    
N4    O11   1.301656 A    
C46   H18   1.063167 S    
C15   H1    1.084482 S    
