data_mof_unit_36162.cif
_audit_creation_date              2012-12-11T15:46:54-0500
_audit_creation_method            fapswitch 2.2
_symmetry_space_group_name_H-M    P1
_symmetry_Int_Tables_number       1
_space_group_crystal_system       triclinic
_cell_length_a                    11.553749
_cell_length_b                    11.502915
_cell_length_c                    19.554207
_cell_angle_alpha                 90.226967
_cell_angle_beta                  90.142513
_cell_angle_gamma                 59.916447
_cell_volume                      2248.70214734

loop_
_atom_site_label
_atom_site_type_symbol
_atom_type_description
_atom_site_fract_x
_atom_site_fract_y
_atom_site_fract_z
_atom_type_partial_charge
C1    C     C_R   0.640546 0.117273 0.599284 0.556945
C2    C     C_1   0.641506 0.703475 0.667992 0.007089
C3    C     C_1   0.126599 0.199010 0.859285 0.004962
C4    C     C_1   0.171674 0.169942 0.727748 -0.029155
C5    C     C_1   0.150137 0.182318 0.798970 -0.029007
C6    C     C_1   0.195497 0.160425 0.667431 0.004234
C7    C     C_1   0.678243 0.191689 0.860736 0.005525
C8    C     C_1   0.658711 0.167093 0.729005 -0.028989
C9    C     C_1   0.665500 0.181162 0.800296 -0.028935
C10   C     C_1   0.653300 0.149355 0.668645 0.006583
C11   C     C_R   0.651240 0.685501 0.188206 0.024687
C12   C     C_R   0.612650 0.745645 0.598595 0.555789
C13   C     C_R   0.536113 0.708508 0.223414 -0.016380
C14   C     C_R   0.530231 0.722225 0.292542 0.030219
C15   C     C_R   0.741369 0.716856 0.293837 -0.162203
C16   C     C_R   0.748706 0.702218 0.222790 -0.163749
C17   C     C_3   0.463132 0.630460 0.226223 -0.219177
C18   C     C_3   0.456044 0.648704 0.302949 0.098868
C19   C     C_R   0.636349 0.715056 0.329358 0.065551
C20   C     C_R   0.169548 0.185303 0.185670 0.017662
C21   C     C_R   0.201554 0.271597 0.220590 0.022929
C22   C     C_R   0.246305 0.246182 0.287055 0.011137
C23   C     C_R   0.240990 0.145170 0.598230 0.556257
C24   C     C_R   0.250413 0.034815 0.283761 -0.160457
C25   C     C_R   0.204378 0.060824 0.215794 -0.164118
C26   C     C_3   0.117428 0.419404 0.233193 -0.262037
C27   C     C_3   0.164554 0.391754 0.306480 -0.263673
C28   C     C_R   0.263045 0.132314 0.321497 0.015735
C29   C     C_R   0.670909 0.172863 0.189796 0.008495
C30   C     C_R   0.766217 0.055090 0.223086 0.028346
C31   C     C_R   0.755765 0.037822 0.291515 -0.004325
C32   C     C_R   0.542582 0.241282 0.294345 -0.098722
C33   C     C_R   0.552485 0.260403 0.224406 -0.146675
C34   C     C_R   0.641927 0.110060 0.400857 0.564207
C35   C     C_3   0.915953 0.990426 0.228542 -0.115641
C36   C     C_3   0.902651 0.970343 0.304082 -0.267620
C37   C     C_R   0.651288 0.136342 0.329524 0.042398
C38   C     C_R   0.081758 0.231197 0.928555 0.545293
C39   C     C_R   0.683737 0.604735 0.929545 0.544230
C40   C     C_R   0.708247 0.206740 0.930112 0.545768
C41   C     C_R   0.086026 0.234357 0.124596 0.541565
C42   C     C_R   0.681335 0.614350 0.124346 0.551453
C43   C     C_R   0.708078 0.209145 0.126097 0.544991
C44   C     C_R   0.614339 0.744431 0.400943 0.580078
C45   C     C_R   0.299949 0.115997 0.393883 0.544111
C46   C     C_1   0.670046 0.646894 0.860151 0.006413
C47   C     C_1   0.654897 0.683473 0.728453 -0.029683
C48   C     C_1   0.663260 0.666891 0.799695 -0.029619
Cr1   Cr    Cr6+3 0.404720 0.198220 0.499960 1.048483
Cr2   Cr    Cr6+3 0.698290 0.897110 0.500380 1.028646
Cr3   Cr    Cr6+3 0.396970 0.904720 0.499610 1.048049
Cr4   Cr    Cr6+3 0.926290 0.152010 0.028150 1.044646
Cr5   Cr    Cr6+3 0.921440 0.451830 0.027490 1.045426
Cr6   Cr    Cr6+3 0.626370 0.446880 0.028730 1.032782
H1    H     H_    0.819569 0.724069 0.320753 0.135896
H2    H     H_    0.154772 0.477699 0.204919 0.162961
H3    H     H_    0.225958 0.437456 0.320920 0.142435
H4    H     H_    0.082632 0.412199 0.342922 0.167946
H5    H     H_    0.453755 0.312522 0.321539 0.169830
H6    H     H_    0.473090 0.347921 0.199297 0.127515
H7    H     H_    0.953562 0.060609 0.218324 0.138843
H8    H     H_    0.944496 0.863890 0.319974 0.139127
H9    H     H_    0.930782 0.030627 0.337597 0.147559
H10   H     H_    0.835950 0.691063 0.196357 0.152395
H11   H     H_    0.525874 0.523895 0.210332 0.196784
H12   H     H_    0.363371 0.685072 0.201191 0.115364
H13   H     H_    0.352880 0.713219 0.322637 0.128062
H14   H     H_    0.266962 0.943578 0.307967 0.122120
H15   H     H_    0.186327 0.988729 0.189154 0.129348
H16   H     H_    0.008602 0.456650 0.227894 0.159643
O1    O     O_R   0.267750 0.231960 0.575440 -0.499007
O2    O     O_R   0.685950 0.784660 0.430010 -0.521718
O3    O     O_R   0.502510 0.767000 0.423980 -0.491010
O4    O     O_R   0.288320 0.026340 0.429250 -0.502749
O5    O     O_3   0.499990 0.000020 0.499980 -0.288407
O6    O     O_R   0.821590 0.119350 0.952850 -0.501255
O7    O     O_R   0.037230 0.162540 0.957390 -0.494060
O8    O     O_R   0.056530 0.344750 0.951370 -0.502644
O9    O     O_R   0.798000 0.560370 0.957490 -0.492770
O10   O     O_R   0.596230 0.579400 0.952760 -0.503314
O11   O     O_R   0.639160 0.321170 0.958690 -0.493494
O12   O     O_R   0.527290 0.186640 0.570530 -0.486287
O13   O     O_R   0.821370 0.124220 0.104400 -0.512542
O14   O     O_R   0.037020 0.167050 0.097880 -0.508433
O15   O     O_R   0.056310 0.349620 0.102920 -0.511049
O16   O     O_R   0.797790 0.564880 0.097980 -0.502648
O17   O     O_R   0.596000 0.584270 0.104310 -0.524001
O18   O     O_R   0.638950 0.325690 0.099180 -0.507652
O19   O     O_3   0.824700 0.350240 0.028120 -0.257409
O20   O     O_R   0.728110 0.003450 0.576380 -0.501135
O21   O     O_R   0.682980 0.789190 0.570500 -0.491844
O22   O     O_R   0.499300 0.771880 0.575540 -0.494181
O23   O     O_R   0.285350 0.030870 0.569740 -0.488879
O24   O     O_R   0.270960 0.227070 0.423890 -0.513558
O25   O     O_R   0.530270 0.182120 0.430040 -0.504613
O26   O     O_R   0.731320 0.998570 0.424830 -0.519877
C49   C     C_1   0.986035 0.863519 0.189958 0.197649
N1    N     N_1   0.041352 0.763754 0.159597 -0.335763
Cl1   Cl    Cl    0.552383 0.495953 0.349280 -0.642562

loop_
_geom_bond_atom_site_label_1
_geom_bond_atom_site_label_2
_ccdc_geom_bond_type
C21   C26   S    
C1    O20   A    
C34   C37   S    
C43   O13   A    
C14   C18   S    
C12   O21   A    
C35   C36   S    
Cr3   O4    S    
C2    C12   S    
C49   N1    T    
C15   C19   A    
C26   C27   S    
C30   C35   S    
C43   O18   A    
Cr5   O9    S    
C34   O26   A    
Cr6   O17   S    
C20   C25   A    
C15   C16   A    
C29   C33   A    
C11   C42   S    
Cr4   O14   S    
Cr2   O2    S    
Cr2   O20   S    
C3    C38   S    
C8    C9    S    
C7    C40   S    
Cr1   O5    S    
Cr5   O16   S    
C42   O16   A    
Cr1   O24   S    
C36   H9    S    
C24   C28   A    
C22   C28   A    
C13   C14   A    
C29   C43   S    
Cr4   O19   S    
C36   H8    S    
C45   O24   A    
C14   C19   A    
C20   C41   S    
Cr6   O10   S    
C46   C48   T    
C28   C45   S    
C23   O1    A    
C24   C25   A    
Cr6   O19   S    
C4    C6    T    
C27   H3    S    
C38   O8    A    
Cr4   O6    S    
C18   H13   S    
C41   O14   A    
Cr1   O25   S    
C23   O23   A    
C31   C37   A    
C45   O4    A    
C15   H1    S    
Cr1   O12   S    
Cr4   O13   S    
C29   C30   A    
Cr3   O22   S    
C11   C16   A    
C47   C48   S    
C17   C18   S    
C17   H12   S    
C35   H7    S    
C32   C37   A    
C34   O25   A    
Cr3   O23   S    
C39   C46   S    
C33   H6    S    
C22   C27   S    
Cr5   O19   S    
C26   H16   S    
C25   H15   S    
C18   Cl1   S    
Cr4   O7    S    
C19   C44   S    
C7    C9    T    
C40   O11   A    
C12   O22   A    
C1    C10   S    
Cr3   O3    S    
Cr3   O5    S    
C4    C5    S    
C3    C5    T    
C27   H4    S    
C26   H2    S    
C38   O7    A    
C2    C47   T    
C41   O15   A    
C17   H11   S    
C13   C17   S    
C32   C33   A    
Cr5   O8    S    
C1    O12   A    
C35   C49   S    
Cr2   O5    S    
C39   O10   A    
Cr6   O18   S    
C11   C13   A    
Cr2   O26   S    
C30   C31   A    
C6    C23   S    
C44   O2    A    
C44   O3    A    
C24   H14   S    
C40   O6    A    
Cr2   O21   S    
C20   C21   A    
C8    C10   T    
Cr1   O1    S    
C31   C36   S    
Cr5   O15   S    
C42   O17   A    
C16   H10   S    
C32   H5    S    
C21   C22   A    
Cr6   O11   S    
C39   O9    A    
