data_mof_unit_52370.cif
_audit_creation_date              2012-12-11T15:09:46-0500
_audit_creation_method            fapswitch 2.2
_symmetry_space_group_name_H-M    P1
_symmetry_Int_Tables_number       1
_space_group_crystal_system       triclinic
_cell_length_a                    20.79558
_cell_length_b                    7.130556
_cell_length_c                    14.239706
_cell_angle_alpha                 90.000149
_cell_angle_beta                  98.320421
_cell_angle_gamma                 89.999856
_cell_volume                      2089.29595385

loop_
_atom_site_label
_atom_site_type_symbol
_atom_type_description
_atom_site_fract_x
_atom_site_fract_y
_atom_site_fract_z
_atom_type_partial_charge
O1    O     O_R   0.447130 0.507140 0.597350 -0.535974
O2    O     O_R   0.552870 0.007140 0.402650 -0.535973
O3    O     O_R   0.578910 0.181280 0.586990 -0.537734
O4    O     O_R   0.421090 0.681280 0.413010 -0.537759
C1    C     C_R   0.603216 0.345245 0.610183 0.727855
C2    C     C_R   0.396790 0.845248 0.389804 0.727763
O5    O     O_R   0.449230 0.177860 0.608640 -0.544570
O6    O     O_R   0.550770 0.677860 0.391360 -0.544571
O7    O     O_R   0.422260 0.000770 0.424450 -0.534715
O8    O     O_R   0.577740 0.500770 0.575550 -0.534731
C3    C     C_R   0.432556 0.346855 0.634123 0.693848
C4    C     C_R   0.567445 0.846858 0.365880 0.693830
O9    O     O_3   0.491310 0.336980 0.439550 -0.375766
O10   O     O_3   0.508690 0.836980 0.560450 -0.375756
V1    V     V_3+5 0.501610 0.064760 0.511210 1.431586
V2    V     V_3+5 0.498390 0.564760 0.488790 1.431539
C5    C     C_R   0.622960 0.993756 0.138449 -0.166188
C6    C     C_R   0.377052 0.493612 0.861588 -0.166190
H1    H     H_    0.531828 0.993264 0.191968 0.108874
H2    H     H_    0.468173 0.493272 0.808036 0.108884
H3    H     H_    0.708107 0.054277 0.020735 0.125020
H4    H     H_    0.291915 0.553922 0.979344 0.125015
H5    H     H_    0.602171 0.058893 0.072183 0.114858
H6    H     H_    0.397842 0.558728 0.927860 0.114858
C7    C     C_R   0.607565 0.862635 0.289840 -0.037884
C8    C     C_R   0.392441 0.362607 0.710171 -0.037887
C9    C     C_R   0.921749 0.783006 0.295762 -0.235943
C10   C     C_R   0.078236 0.283263 0.704198 -0.235937
C11   C     C_R   0.887185 0.766984 0.371808 0.218549
C12   C     C_R   0.112802 0.267306 0.628150 0.218532
C13   C     C_R   0.820471 0.811958 0.359973 -0.005301
C14   C     C_R   0.179534 0.312072 0.640026 -0.005296
C15   C     C_R   0.786633 0.855939 0.267516 -0.027474
C16   C     C_R   0.213376 0.355859 0.732508 -0.027476
C17   C     C_R   0.824616 0.888714 0.193382 0.052055
C18   C     C_R   0.175394 0.388583 0.806649 0.052056
C19   C     C_R   0.717213 0.875961 0.246054 0.078418
C20   C     C_R   0.282799 0.375817 0.753984 0.078388
C21   C     C_R   0.689761 0.955725 0.157687 0.148034
C22   C     C_R   0.310253 0.455526 0.842363 0.148031
C23   C     C_R   0.728889 0.996159 0.088760 -0.203950
C24   C     C_R   0.271130 0.495868 0.911307 -0.203945
C25   C     C_R   0.794827 0.957915 0.105079 -0.176832
C26   C     C_R   0.205190 0.457641 0.894980 -0.176812
C27   C     C_R   0.673548 0.815474 0.307541 -0.213875
C28   C     C_R   0.326464 0.315367 0.692489 -0.213866
C29   C     C_R   0.582626 0.953637 0.205633 -0.168172
C30   C     C_R   0.417380 0.453595 0.794382 -0.168188
C31   C     C_R   0.892050 0.852437 0.208956 -0.101053
C32   C     C_R   0.107952 0.352449 0.791047 -0.101028
H7    H     H_    0.689378 0.733622 0.370096 0.119277
H8    H     H_    0.310634 0.233505 0.629938 0.119313
H9    H     H_    0.973191 0.749691 0.305981 0.122293
H10   H     H_    0.026782 0.250113 0.693946 0.122275
H11   H     H_    0.822521 0.986759 0.047949 0.122715
H12   H     H_    0.177497 0.486429 0.952117 0.122688
C33   C     C_1   0.168472 0.857941 0.163755 -0.184408
C34   C     C_1   0.831525 0.357944 0.836253 -0.184392
C35   C     C_1   0.222084 0.856906 0.211917 -0.006469
C36   C     C_1   0.777914 0.356911 0.788091 -0.006627
C37   C     C_1   0.284640 0.856901 0.270137 -0.038515
C38   C     C_1   0.715360 0.356902 0.729863 -0.038673
C39   C     C_1   0.336415 0.854103 0.323115 -0.218398
C40   C     C_1   0.663590 0.354092 0.676871 -0.218193
O11   O     O_R   0.922300 0.202240 0.924350 -0.536022
O12   O     O_R   0.077700 0.702240 0.075650 -0.536015
O13   O     O_R   0.050780 0.535130 0.891350 -0.543751
O14   O     O_R   0.949220 0.035130 0.108650 -0.543762
C41   C     C_R   0.068080 0.367335 0.866930 0.704128
C42   C     C_R   0.931917 0.867335 0.133068 0.704123
O15   O     O_R   0.921100 0.531560 0.912990 -0.536833
O16   O     O_R   0.078900 0.031560 0.087010 -0.536833
O17   O     O_R   0.947120 0.708470 0.097370 -0.538295
O18   O     O_R   0.052880 0.208470 0.902630 -0.538294
C43   C     C_R   0.895410 0.363692 0.894608 0.714681
C44   C     C_R   0.104589 0.863691 0.105396 0.714686
O19   O     O_3   0.008710 0.375800 0.060400 -0.375163
O20   O     O_3   0.991290 0.875800 0.939600 -0.375158
V3    V     V_3+5 0.998380 0.648080 0.988790 1.433504
V4    V     V_3+5 0.001620 0.148080 0.011210 1.433489
C45   C     C_R   0.793058 0.857336 0.447102 0.120660
C46   C     C_R   0.788120 0.720553 0.516716 -0.103735
C47   C     C_R   0.764025 0.769411 0.599892 -0.139504
C48   C     C_R   0.744603 0.953386 0.613811 -0.076178
C49   C     C_R   0.750009 0.089865 0.544796 -0.110851
C50   C     C_R   0.774172 0.042309 0.461925 -0.142035
H13   H     H_    0.802736 0.577082 0.506385 0.121014
H14   H     H_    0.760848 0.665421 0.653904 0.131135
H15   H     H_    0.725829 0.989119 0.678392 0.122470
H16   H     H_    0.736274 0.233398 0.554659 0.110751
H17   H     H_    0.778602 0.149873 0.409484 0.113165
C51   C     C_R   0.206988 0.357430 0.552929 0.120680
C52   C     C_R   0.211887 0.220691 0.483280 -0.103783
C53   C     C_R   0.236095 0.269498 0.400184 -0.139600
C54   C     C_R   0.255676 0.453367 0.386389 -0.076145
C55   C     C_R   0.250297 0.589809 0.455433 -0.110720
C56   C     C_R   0.226008 0.542318 0.538211 -0.142111
H18   H     H_    0.197166 0.077288 0.493527 0.121116
H19   H     H_    0.239251 0.165542 0.346146 0.131156
H20   H     H_    0.274557 0.489048 0.321887 0.122458
H21   H     H_    0.264162 0.733260 0.445678 0.110678
H22   H     H_    0.221612 0.649850 0.590682 0.113193
N1    N     N_3   0.921157 0.716635 0.463269 -0.672728
H23   H     H_    0.958411 0.814037 0.481955 0.229639
H24   H     H_    0.942519 0.585179 0.457461 0.223910
N2    N     N_3   0.078816 0.217303 0.536647 -0.672734
H25   H     H_    0.041632 0.314943 0.518005 0.229634
H26   H     H_    0.057363 0.085947 0.542359 0.223950

loop_
_geom_bond_atom_site_label_1
_geom_bond_atom_site_label_2
_ccdc_geom_bond_type
O14   V4    S    
C20   C22   A    
C52   C53   A    
C9    C11   A    
C54   C55   A    
O1    C3    A    
O16   C44   A    
O2    C4    A    
C2    O7    A    
O15   V3    S    
C45   C46   A    
O3    V1    S    
C21   C23   A    
C14   C51   S    
C49   C50   A    
O5    C3    A    
O12   V3    S    
C5    H5    S    
C6    H6    S    
C33   C44   S    
C32   C41   S    
C50   H17   S    
O20   V4    S    
C33   C35   T    
N2    H25   S    
C27   H7    S    
C34   C36   T    
C46   H13   S    
C28   H8    S    
C11   N1    S    
C36   C38   S    
C5    C21   A    
C37   C39   T    
C6    C22   A    
C38   C40   T    
C10   C32   A    
C17   C31   A    
C13   C15   A    
C12   C14   A    
C17   C25   A    
C7    C29   A    
C16   C18   A    
C56   H22   S    
C8    C30   A    
O5    V1    S    
C47   H14   S    
O6    V2    S    
O11   V4    S    
O18   V4    S    
C55   H21   S    
C12   N2    S    
C11   C13   A    
C23   C25   A    
C24   C26   A    
C51   C56   A    
O19   V3    S    
C35   C37   S    
O13   V3    S    
C48   C49   A    
O4    C2    A    
C10   H10   S    
C54   H20   S    
C16   C20   A    
C3    C8    S    
C15   C19   A    
C1    C40   S    
O13   C41   A    
C14   C16   A    
C2    C39   S    
O4    V2    S    
C26   H12   S    
C47   C48   A    
O6    C4    A    
O12   C44   A    
C55   C56   A    
C42   O17   A    
O17   V3    S    
C45   C50   A    
C41   O18   A    
N1    H24   S    
O1    V2    S    
O2    V1    S    
H2    C30   S    
H3    C23   S    
C25   H11   S    
C31   C42   S    
C18   C26   A    
C48   H15   S    
C19   C27   A    
C7    C27   A    
C18   C32   A    
O19   V4    S    
O20   V3    S    
C5    C29   A    
O3    C1    A    
C6    C30   A    
C49   H16   S    
C9    H9    S    
C13   C45   S    
C4    C7    S    
C10   C12   A    
O7    V1    S    
C1    O8    A    
C19   C21   A    
O8    V2    S    
O15   C43   A    
H4    C24   S    
N2    H26   S    
C53   H19   S    
C22   C24   A    
C51   C52   A    
C15   C17   A    
H1    C29   S    
C53   C54   A    
C20   C28   A    
C8    C28   A    
O16   V4    S    
C46   C47   A    
O9    V2    S    
N1    H23   S    
O14   C42   A    
O10   V1    S    
C52   H18   S    
O11   C43   A    
C9    C31   A    
C34   C43   S    
