data_mof_unit_45067.cif
_audit_creation_date              2012-12-11T16:51:16-0500
_audit_creation_method            fapswitch 2.2
_symmetry_space_group_name_H-M    P1
_symmetry_Int_Tables_number       1
_space_group_crystal_system       triclinic
_cell_length_a                    24.417953
_cell_length_b                    17.199878
_cell_length_c                    15.557792
_cell_angle_alpha                 89.810632
_cell_angle_beta                  128.898592
_cell_angle_gamma                 90.232904
_cell_volume                      5085.13757502

loop_
_atom_site_label
_atom_site_type_symbol
_atom_type_description
_atom_site_fract_x
_atom_site_fract_y
_atom_site_fract_z
_atom_type_partial_charge
C1    C     C_R   0.833616 0.892159 0.198245 -0.060115
C2    C     C_R   0.166331 0.890230 0.799546 -0.098449
C3    C     C_R   0.333616 0.392159 0.198245 -0.060115
C4    C     C_R   0.666331 0.390230 0.799546 -0.098449
C5    C     C_R   0.906467 0.142319 0.588855 -0.138578
C6    C     C_R   0.118255 0.099234 0.411538 -0.068672
C7    C     C_R   0.406467 0.642319 0.588855 -0.138578
C8    C     C_R   0.618255 0.599234 0.411538 -0.068672
C9    C     C_R   0.853238 0.182669 0.494547 0.038664
C10   C     C_R   0.186452 0.115020 0.504936 0.014125
C11   C     C_R   0.353238 0.682669 0.494547 0.038664
C12   C     C_R   0.686452 0.615020 0.504936 0.014125
C13   C     C_R   0.872103 0.168520 0.180003 -0.035006
C14   C     C_R   0.131642 0.165705 0.824076 -0.035690
C15   C     C_R   0.372103 0.668520 0.180003 -0.035006
C16   C     C_R   0.631642 0.665705 0.824076 -0.035690
C17   C     C_R   0.850075 0.717301 0.611692 0.175117
C18   C     C_R   0.214322 0.829499 0.386637 0.172885
C19   C     C_R   0.350075 0.217302 0.611693 0.175116
C20   C     C_R   0.714322 0.329499 0.386637 0.172886
C21   C     C_R   0.834228 0.739188 0.511620 0.054694
C22   C     C_R   0.235379 0.860015 0.486498 0.059628
C23   C     C_R   0.334228 0.239188 0.511620 0.054694
C24   C     C_R   0.735379 0.360015 0.486498 0.059628
C25   C     C_R   0.788388 0.691174 0.419150 -0.222804
C26   C     C_R   0.307608 0.858249 0.577829 -0.219341
C27   C     C_R   0.288388 0.191174 0.419150 -0.222804
C28   C     C_R   0.807608 0.358249 0.577829 -0.219341
C29   C     C_R   0.243411 0.140137 0.418960 -0.210764
C30   C     C_R   0.850906 0.304553 0.578645 -0.217196
C31   C     C_R   0.743411 0.640137 0.418960 -0.210765
C32   C     C_R   0.350906 0.804553 0.578645 -0.217196
C33   C     C_R   0.247312 0.135729 0.512993 0.047254
C34   C     C_R   0.821834 0.256772 0.485969 0.050504
C35   C     C_R   0.747312 0.635729 0.512993 0.047254
C36   C     C_R   0.321834 0.756772 0.485969 0.050504
C37   C     C_R   0.307207 0.165863 0.612502 0.165944
C38   C     C_R   0.757130 0.278317 0.386247 0.147901
C39   C     C_R   0.807207 0.665863 0.612502 0.165945
C40   C     C_R   0.257130 0.778317 0.386247 0.147901
C41   C     C_3   0.814956 0.709302 0.703105 -0.532371
C42   C     C_3   0.195601 0.730289 0.296499 -0.527958
C43   C     C_3   0.314956 0.209302 0.703105 -0.532371
C44   C     C_3   0.695601 0.230289 0.296499 -0.527958
C45   C     C_R   0.113156 0.897614 0.406596 -0.230540
C46   C     C_R   0.912619 0.856460 0.593411 -0.208289
C47   C     C_R   0.613156 0.397614 0.406596 -0.230540
C48   C     C_R   0.412619 0.356460 0.593411 -0.208289
C49   C     C_3   0.861973 0.765501 0.702151 -0.511303
C50   C     C_3   0.148839 0.786533 0.296980 -0.507374
C51   C     C_3   0.361973 0.265501 0.702151 -0.511301
C52   C     C_3   0.648839 0.286533 0.296980 -0.507374
C53   C     C_2   0.190962 0.842559 0.975307 -0.195419
C54   C     C_2   0.811178 0.842081 0.025065 -0.193092
C55   C     C_2   0.690962 0.342559 0.975307 -0.195419
C56   C     C_2   0.311178 0.342081 0.025065 -0.193092
C57   C     C_2   0.260628 0.843507 0.033988 -0.121072
C58   C     C_2   0.741294 0.844350 0.963591 -0.125753
C59   C     C_2   0.760628 0.343507 0.033988 -0.121072
C60   C     C_2   0.241294 0.344350 0.963591 -0.125752
C61   C     C_2   0.839490 0.235894 0.107511 -0.219204
C62   C     C_2   0.164018 0.234823 0.894120 -0.208984
C63   C     C_2   0.339490 0.735894 0.107511 -0.219204
C64   C     C_2   0.664018 0.734823 0.894120 -0.208985
C65   C     C_2   0.802070 0.285141 0.118527 -0.109129
C66   C     C_2   0.199997 0.285004 0.880376 -0.101715
C67   C     C_2   0.302070 0.785141 0.118527 -0.109129
C68   C     C_2   0.699997 0.785004 0.880376 -0.101714
C69   C     C_R   0.186899 0.893687 0.589450 0.517554
C70   C     C_R   0.833097 0.859423 0.409880 0.526928
C71   C     C_R   0.686899 0.393688 0.589450 0.517554
C72   C     C_R   0.333097 0.359423 0.409880 0.526928
C73   C     C_R   0.075858 0.892318 0.801787 -0.133966
C74   C     C_R   0.926045 0.890323 0.200759 -0.132609
C75   C     C_R   0.575858 0.392318 0.801787 -0.133966
C76   C     C_R   0.426045 0.390323 0.200759 -0.132609
C77   C     C_R   0.855663 0.871449 0.138187 0.095503
C78   C     C_R   0.145602 0.871542 0.862003 0.109161
C79   C     C_R   0.355663 0.371449 0.138187 0.095503
C80   C     C_R   0.645602 0.371542 0.862003 0.109161
C81   C     C_R   0.181439 0.879776 0.496169 -0.081123
C82   C     C_R   0.858336 0.814488 0.503223 -0.101474
C83   C     C_R   0.681439 0.379776 0.496169 -0.081123
C84   C     C_R   0.358336 0.314487 0.503223 -0.101474
C85   C     C_R   0.832547 0.138591 0.405643 -0.120302
C86   C     C_R   0.189284 0.100364 0.594008 -0.130317
C87   C     C_R   0.332547 0.638591 0.405643 -0.120302
C88   C     C_R   0.689284 0.600364 0.594008 -0.130317
C89   C     C_R   0.936682 0.132815 0.226728 0.537648
C90   C     C_R   0.069327 0.125407 0.784936 0.511576
C91   C     C_R   0.436682 0.632815 0.226728 0.537648
C92   C     C_R   0.569327 0.625406 0.784936 0.511576
C93   C     C_R   0.157031 0.131489 0.774746 -0.188190
C94   C     C_R   0.842124 0.128701 0.218628 -0.212199
C95   C     C_R   0.657031 0.631489 0.774746 -0.188190
C96   C     C_R   0.342124 0.628702 0.218628 -0.212199
H1    H     H_    0.780046 0.895964 0.167649 0.153181
H2    H     H_    0.219092 0.890367 0.826230 0.153266
H3    H     H_    0.280046 0.395964 0.167649 0.153181
H4    H     H_    0.719092 0.390367 0.826230 0.153266
H5    H     H_    0.201179 0.112192 0.342388 0.133856
H6    H     H_    0.903777 0.295125 0.654438 0.130872
H7    H     H_    0.701178 0.612192 0.342388 0.133856
H8    H     H_    0.403777 0.795125 0.654438 0.130872
H9    H     H_    0.765298 0.736786 0.676444 0.202201
H10   H     H_    0.188351 0.732370 0.218438 0.186542
H11   H     H_    0.265298 0.236786 0.676443 0.202201
H12   H     H_    0.688351 0.232370 0.218438 0.186542
H13   H     H_    0.843456 0.674966 0.780793 0.194228
H14   H     H_    0.194334 0.671114 0.324313 0.206812
H15   H     H_    0.343456 0.174966 0.780792 0.194228
H16   H     H_    0.694334 0.171114 0.324313 0.206812
H17   H     H_    0.839005 0.824779 0.674673 0.207711
H18   H     H_    0.114995 0.820998 0.219468 0.188231
H19   H     H_    0.339004 0.324779 0.674673 0.207710
H20   H     H_    0.614995 0.320998 0.219468 0.188231
H21   H     H_    0.917485 0.763292 0.779301 0.189095
H22   H     H_    0.121010 0.759243 0.324891 0.207772
H23   H     H_    0.417485 0.263293 0.779301 0.189095
H24   H     H_    0.621010 0.259243 0.324891 0.207772
H25   H     H_    0.794941 0.276141 0.180188 0.137916
H26   H     H_    0.206321 0.276609 0.817870 0.135077
H27   H     H_    0.294941 0.776141 0.180188 0.137916
H28   H     H_    0.706321 0.776609 0.817870 0.135077
H29   H     H_    0.285280 0.873963 0.005022 0.130678
H30   H     H_    0.715990 0.876204 0.990082 0.129429
H31   H     H_    0.785280 0.373963 0.005022 0.130678
H32   H     H_    0.215990 0.376204 0.990082 0.129429
H33   H     H_    0.842738 0.243926 0.041690 0.130275
H34   H     H_    0.162019 0.244642 0.960689 0.124189
H35   H     H_    0.342738 0.743926 0.041690 0.130275
H36   H     H_    0.662019 0.744642 0.960689 0.124189
H37   H     H_    0.166957 0.811086 0.004886 0.130730
H38   H     H_    0.835765 0.808996 0.998026 0.138109
H39   H     H_    0.666957 0.311086 0.004886 0.130730
H40   H     H_    0.335765 0.308996 0.998026 0.138109
H41   H     H_    0.092816 0.906075 0.322356 0.135874
H42   H     H_    0.945363 0.839318 0.678794 0.138345
H43   H     H_    0.592816 0.406075 0.322356 0.135874
H44   H     H_    0.445363 0.339318 0.678794 0.138345
H45   H     H_    0.046943 0.895641 0.833055 0.108671
H46   H     H_    0.957100 0.890926 0.173091 0.104014
H47   H     H_    0.546943 0.395641 0.833055 0.108671
H48   H     H_    0.457100 0.390926 0.173091 0.104014
H49   H     H_    0.790912 0.150564 0.320706 0.102187
H50   H     H_    0.236121 0.092150 0.678453 0.122610
H51   H     H_    0.290912 0.650564 0.320706 0.102187
H52   H     H_    0.736121 0.592150 0.678453 0.122610
H53   H     H_    0.206169 0.143490 0.790666 0.125567
H54   H     H_    0.788095 0.133465 0.185785 0.127212
H55   H     H_    0.706169 0.643490 0.790666 0.125567
H56   H     H_    0.288095 0.633465 0.185785 0.127212
H57   H     H_    0.931934 0.160053 0.671899 0.154892
H58   H     H_    0.101781 0.090335 0.329710 0.154591
H59   H     H_    0.431934 0.660053 0.671899 0.154891
H60   H     H_    0.601781 0.590335 0.329710 0.154591
H61   H     H_    0.781121 0.699373 0.343595 0.158073
H62   H     H_    0.329124 0.891076 0.651939 0.164615
H63   H     H_    0.281122 0.199373 0.343595 0.158073
H64   H     H_    0.829124 0.391076 0.651939 0.164615
N1    N     N_R   0.888400 0.921830 0.294620 -0.052697
N2    N     N_R   0.111600 0.921830 0.705380 -0.046850
N3    N     N_R   0.388400 0.421830 0.294620 -0.052697
N4    N     N_R   0.611600 0.421830 0.705380 -0.046849
N5    N     N_R   0.079940 0.922160 0.443410 -0.065121
N6    N     N_R   0.920060 0.922160 0.556590 -0.063870
N7    N     N_R   0.579940 0.422160 0.443410 -0.065121
N8    N     N_R   0.420060 0.422160 0.556590 -0.063870
N9    N     N_R   0.125650 0.922400 0.556620 -0.069985
N10   N     N_R   0.874350 0.922400 0.443380 -0.073021
N11   N     N_R   0.625650 0.422400 0.556620 -0.069985
N12   N     N_R   0.374350 0.422400 0.443380 -0.073021
N13   N     N_R   0.054230 0.922730 0.705400 -0.045401
N14   N     N_R   0.945770 0.922730 0.294600 -0.049492
N15   N     N_R   0.554230 0.422730 0.705400 -0.045401
N16   N     N_R   0.445770 0.422730 0.294600 -0.049492
N17   N     N_R   0.873790 0.077030 0.443380 -0.043050
N18   N     N_R   0.126210 0.077030 0.556620 -0.047833
N19   N     N_R   0.373790 0.577030 0.443380 -0.043050
N20   N     N_R   0.626210 0.577030 0.556620 -0.047833
N21   N     N_R   0.945200 0.076700 0.294600 -0.088216
N22   N     N_R   0.054800 0.076700 0.705400 -0.082706
N23   N     N_R   0.445200 0.576700 0.294600 -0.088216
N24   N     N_R   0.554800 0.576700 0.705400 -0.082707
N25   N     N_R   0.111030 0.077600 0.705380 -0.070514
N26   N     N_R   0.888970 0.077600 0.294620 -0.071638
N27   N     N_R   0.611030 0.577600 0.705380 -0.070514
N28   N     N_R   0.388970 0.577600 0.294620 -0.071638
N29   N     N_R   0.919490 0.077280 0.556590 -0.039669
N30   N     N_R   0.080510 0.077280 0.443410 -0.045197
N31   N     N_R   0.419490 0.577280 0.556590 -0.039669
N32   N     N_R   0.580510 0.577280 0.443410 -0.045197
Ni1   Ni    Ni4+2 0.882160 0.999430 0.370180 0.224063
Ni2   Ni    Ni4+2 0.117840 0.999430 0.629820 0.231816
Ni3   Ni    Ni4+2 0.382160 0.499430 0.370180 0.224063
Ni4   Ni    Ni4+2 0.617840 0.499430 0.629820 0.231816
Ni5   Ni    Ni4+2 0.012460 0.999430 0.370180 0.219710
Ni6   Ni    Ni4+2 0.987540 0.999430 0.629820 0.243666
Ni7   Ni    Ni4+2 0.512460 0.499430 0.370180 0.219710
Ni8   Ni    Ni4+2 0.487540 0.499430 0.629820 0.243666
O1    O     O_3   0.246462 0.892818 0.697802 -0.809401
H65   H     H_    0.272618 0.845319 0.707640 0.301426
O2    O     O_3   0.770674 0.851272 0.304781 -0.809207
H66   H     H_    0.738332 0.820559 0.309525 0.313265
O3    O     O_3   0.746462 0.392818 0.697802 -0.809401
H67   H     H_    0.772618 0.345319 0.707640 0.301426
O4    O     O_3   0.270674 0.351272 0.304781 -0.809207
H68   H     H_    0.238332 0.320559 0.309525 0.313265
O5    O     O_3   0.982248 0.142316 0.202430 -0.661530
C97   C     C_3   0.986240 0.220025 0.176898 0.258669
H69   H     H_    0.979126 0.263288 0.222384 0.098212
H70   H     H_    0.946719 0.228956 0.086428 0.113312
C98   C     C_3   0.058176 0.234979 0.207714 -0.955191
H71   H     H_    0.070558 0.189317 0.171949 0.264031
H72   H     H_    0.058354 0.292446 0.175137 0.223385
H73   H     H_    0.099460 0.235598 0.298827 0.257995
O6    O     O_3   0.037814 0.115026 0.834034 -0.647379
C99   C     C_3   0.044542 0.179565 0.895537 0.216642
H74   H     H_    0.037720 0.235608 0.853666 0.084706
H75   H     H_    0.095935 0.176673 0.979937 0.122401
C100  C     C_3   0.987759 0.175389 0.908524 -0.901450
H76   H     H_    0.993054 0.120748 0.951431 0.269738
H77   H     H_    0.993208 0.225596 0.958105 0.216674
H78   H     H_    0.934663 0.177302 0.826554 0.246799
O7    O     O_3   0.482248 0.642316 0.202430 -0.661530
C101  C     C_3   0.486240 0.720025 0.176898 0.258670
H79   H     H_    0.479126 0.763288 0.222384 0.098212
H80   H     H_    0.446719 0.728956 0.086428 0.113311
C102  C     C_3   0.558176 0.734979 0.207714 -0.955189
H81   H     H_    0.570558 0.689317 0.171949 0.264030
H82   H     H_    0.558354 0.792446 0.175137 0.223384
H83   H     H_    0.599460 0.735598 0.298827 0.257995
O8    O     O_3   0.537814 0.615026 0.834034 -0.647379
C103  C     C_3   0.544542 0.679565 0.895537 0.216642
H84   H     H_    0.537720 0.735608 0.853666 0.084706
H85   H     H_    0.595935 0.676673 0.979937 0.122401
C104  C     C_3   0.487759 0.675389 0.908524 -0.901450
H86   H     H_    0.493054 0.620748 0.951431 0.269737
H87   H     H_    0.493208 0.725595 0.958105 0.216674
H88   H     H_    0.434663 0.677302 0.826554 0.246799

loop_
_geom_bond_atom_site_label_1
_geom_bond_atom_site_label_2
_ccdc_geom_bond_type
N29   Ni6   S    
C25   C31   A    
C49   H17   S    
O2    H66   S    
C69   O1    S    
N1    N14   A    
C91   N23   A    
N27   Ni4   S    
C27   C29   A    
C1    C77   A    
O1    H65   S    
C96   N28   A    
N26   Ni1   S    
C93   H53   S    
N22   Ni6   S    
C76   C79   A    
C28   H64   S    
N25   Ni2   S    
N21   Ni5   S    
C2    N2    A    
N7    Ni7   S    
C95   N27   A    
C6    N30   A    
C39   C41   S    
N2    N13   A    
C73   H45   S    
C98   H71   S    
C7    C11   A    
N18   Ni2   S    
C18   C50   S    
C100  H76   S    
C56   C79   S    
C87   H51   S    
C72   N12   A    
C11   C36   S    
N19   N31   A    
C24   C83   S    
C85   H49   S    
C74   N14   A    
C100  H78   S    
C55   C59   D    
C57   H29   S    
N18   N30   A    
C5    H57   S    
C94   N26   A    
C4    N4    A    
C70   N10   A    
C27   H63   S    
C14   C62   S    
C3    H3    S    
C29   C33   A    
C92   O8    S    
C86   N18   A    
C20   C38   A    
N4    N15   A    
C17   C39   A    
N32   Ni7   S    
C18   C40   A    
C14   C90   A    
C90   O6    S    
C19   C37   A    
C9    C85   A    
C46   C82   A    
C49   H21   S    
C90   N22   A    
N28   Ni3   S    
C11   C87   A    
C47   H43   S    
N24   Ni8   S    
C74   C77   A    
C51   H23   S    
C73   C78   A    
C66   H26   S    
C65   H25   S    
C46   N6    A    
C75   C80   A    
C14   C93   A    
N20   Ni4   S    
C3    N3    A    
C46   H42   S    
C54   C77   S    
C102  H83   S    
C44   C52   S    
C7    H59   S    
C44   H12   S    
C32   C36   A    
C74   H46   S    
C3    C79   A    
C50   H22   S    
C104  H86   S    
C91   O7    S    
C41   H9    S    
C7    N31   A    
C103  H85   S    
C57   C67   S    
C70   C82   A    
N3    N16   A    
C86   H50   S    
C41   C49   S    
C56   H40   S    
C54   H38   S    
C38   C44   S    
C88   N20   A    
C72   O4    S    
C71   C83   A    
C23   C27   A    
C52   H20   S    
N5    N9    A    
C63   C67   D    
C43   H11   S    
N17   N29   A    
C23   C84   S    
C30   C34   A    
C75   N15   A    
O4    H68   S    
N30   Ni5   S    
C22   C81   S    
C64   H36   S    
C60   H32   S    
C62   C66   D    
C53   H37   S    
N31   Ni8   S    
O5    C97   S    
N20   N32   A    
C1    H1    S    
C15   C96   A    
C12   C88   A    
C26   C32   A    
C34   C38   A    
N19   Ni3   S    
O6    C99   S    
O3    H67   S    
C15   C91   A    
C51   H19   S    
C48   C84   A    
C50   H18   S    
C103  C104  S    
C31   H7    S    
C37   C43   S    
C35   C39   A    
C17   C21   A    
N6    Ni6   S    
C5    C9    A    
C102  H81   S    
C2    C78   A    
N5    Ni5   S    
C47   N7    A    
C99   H75   S    
C48   N8    A    
N3    Ni3   S    
C8    C12   A    
C48   H44   S    
C68   H28   S    
N2    Ni2   S    
C32   H8    S    
O7    C101  S    
C88   H52   S    
C29   H5    S    
C101  H79   S    
C69   N9    A    
C12   C35   S    
C42   H10   S    
C72   C84   A    
C75   H47   S    
C30   H6    S    
C42   C50   S    
C60   C66   S    
C52   H24   S    
C58   C68   S    
C76   N16   A    
C58   H30   S    
C63   H35   S    
C4    H4    S    
C25   H61   S    
C9    C34   S    
C102  H82   S    
N8    N12   A    
C71   N11   A    
C95   H55   S    
C103  H84   S    
N16   Ni7   S    
C17   C49   S    
C101  C102  S    
C64   C68   D    
C36   C40   A    
C19   C23   A    
C99   C100  S    
C45   H41   S    
C54   C58   D    
C98   H73   S    
C70   O2    S    
C21   C25   A    
C10   C86   A    
C16   C95   A    
C53   C57   D    
N8    Ni8   S    
C13   C89   A    
N13   Ni6   S    
C18   C22   A    
C4    C80   A    
C45   C81   A    
C92   N24   A    
C24   C28   A    
N11   Ni4   S    
C76   H48   S    
C67   H27   S    
C6    C10   A    
N10   Ni1   S    
C89   O5    S    
N21   N26   A    
N4    Ni4   S    
C59   H31   S    
C16   C92   A    
N9    Ni2   S    
C61   H33   S    
C94   H54   S    
C97   C98   S    
N17   Ni1   S    
N22   N25   A    
C44   H16   S    
C97   H70   S    
C62   H34   S    
N24   N27   A    
N7    N11   A    
C13   C94   A    
C20   C52   S    
C104  H87   S    
C53   C78   S    
C42   H14   S    
C98   H72   S    
C5    N29   A    
C28   C30   A    
C100  H77   S    
N23   N28   A    
C59   C65   S    
C87   N19   A    
C55   C80   S    
C6    H58   S    
C43   C51   S    
C99   H74   S    
C8    N32   A    
C19   C51   S    
C55   H39   S    
C40   C42   S    
N6    N10   A    
C26   H62   S    
C10   C33   S    
C31   C35   A    
C93   N25   A    
C61   C65   D    
C73   N13   A    
C8    H60   S    
C33   C37   A    
N15   Ni8   S    
N14   Ni5   S    
C69   C81   A    
N1    Ni1   S    
C1    N1    A    
C47   C83   A    
C43   H15   S    
C56   C60   D    
C71   O3    S    
C13   C61   S    
C21   C82   S    
C2    H2    S    
C85   N17   A    
C97   H69   S    
C22   C26   A    
C104  H88   S    
N23   Ni7   S    
C15   C63   S    
N12   Ni3   S    
C41   H13   S    
C16   C64   S    
C45   N5    A    
C20   C24   A    
C101  H80   S    
O8    C103  S    
C89   N21   A    
C96   H56   S    
