data_mof_unit_62434.cif
_audit_creation_date              2013-03-05T16:06:59-0500
_audit_creation_method            fapswitch 2.2
_symmetry_space_group_name_H-M    P1
_symmetry_Int_Tables_number       1
_space_group_crystal_system       triclinic
_cell_length_a                    38.884606
_cell_length_b                    45.234358
_cell_length_c                    29.791777
_cell_angle_alpha                 90.0
_cell_angle_beta                  130.622924
_cell_angle_gamma                 89.999808
_cell_volume                      39773.2004561

loop_
_atom_site_label
_atom_site_type_symbol
_atom_site_description
_atom_site_fract_x
_atom_site_fract_y
_atom_site_fract_z
_atom_type_partial_charge
O1    O     O_R   0.297670 0.237210 0.095410 -0.579047
O2    O     O_R   0.702330 0.237210 0.904590 -0.578802
O3    O     O_R   0.797670 0.737210 0.095410 -0.579851
O4    O     O_R   0.202330 0.737210 0.904590 -0.580506
O5    O     O_R   0.262670 0.202220 0.025400 -0.570720
O6    O     O_R   0.737330 0.202220 0.974600 -0.571049
O7    O     O_R   0.762670 0.702220 0.025400 -0.569804
O8    O     O_R   0.237330 0.702220 0.974600 -0.568856
C1    C     C_R   0.290081 0.209803 0.080231 0.816292
C2    C     C_R   0.709919 0.209803 0.919769 0.816390
C3    C     C_R   0.790080 0.709803 0.080231 0.816258
C4    C     C_R   0.209920 0.709803 0.919769 0.816086
O9    O     O_R   0.317380 0.267440 0.034950 -0.589083
O10   O     O_R   0.682620 0.267440 0.965050 -0.589120
O11   O     O_R   0.817380 0.767440 0.034950 -0.589246
O12   O     O_R   0.182620 0.767440 0.965050 -0.589323
O13   O     O_R   0.282380 0.232450 0.964940 -0.587489
O14   O     O_R   0.717620 0.232450 0.035060 -0.587504
O15   O     O_R   0.782380 0.732450 0.964940 -0.587297
O16   O     O_R   0.217620 0.732450 0.035060 -0.587294
C5    C     C_R   0.316304 0.249972 0.999754 0.795869
C6    C     C_R   0.683697 0.249975 0.000252 0.795945
C7    C     C_R   0.816303 0.749970 0.999756 0.795825
C8    C     C_R   0.183699 0.749973 0.000251 0.795863
Cu1   Cu    Cu3+1 0.270670 0.270660 0.041400 0.999769
Cu2   Cu    Cu3+1 0.729330 0.270660 0.958600 0.999371
Cu3   Cu    Cu3+1 0.770670 0.770660 0.041400 0.997540
Cu4   Cu    Cu3+1 0.229330 0.770660 0.958600 0.997510
Cu5   Cu    Cu3+1 0.229220 0.229230 0.958490 1.068522
Cu6   Cu    Cu3+1 0.770780 0.229230 0.041510 1.068818
Cu7   Cu    Cu3+1 0.729220 0.729230 0.958490 1.070354
Cu8   Cu    Cu3+1 0.270780 0.729230 0.041510 1.070614
O17   O     O_R   0.237220 0.297670 0.974490 -0.588245
O18   O     O_R   0.762780 0.297670 0.025510 -0.588766
O19   O     O_R   0.737220 0.797670 0.974490 -0.589136
O20   O     O_R   0.262780 0.797670 0.025510 -0.588585
O21   O     O_R   0.202220 0.262680 0.904480 -0.543456
O22   O     O_R   0.797780 0.262680 0.095520 -0.542653
O23   O     O_R   0.702220 0.762680 0.904480 -0.542389
O24   O     O_R   0.297780 0.762680 0.095520 -0.543229
O25   O     O_R   0.217520 0.267440 0.034950 -0.587163
O26   O     O_R   0.782480 0.267440 0.965050 -0.587346
O27   O     O_R   0.717520 0.767440 0.034950 -0.587792
O28   O     O_R   0.282480 0.767440 0.965050 -0.587719
O29   O     O_R   0.182510 0.232450 0.964930 -0.538156
O30   O     O_R   0.817490 0.232450 0.035070 -0.538003
O31   O     O_R   0.682510 0.732450 0.964930 -0.537556
O32   O     O_R   0.317490 0.732450 0.035070 -0.537604
C9    C     C_R   0.209818 0.290083 0.919666 0.848210
C10   C     C_R   0.790184 0.290083 0.080334 0.847963
C11   C     C_R   0.709817 0.790083 0.919666 0.847871
C12   C     C_R   0.290182 0.790083 0.080334 0.848126
C13   C     C_R   0.183058 0.250481 0.998869 0.848197
C14   C     C_R   0.816942 0.250480 0.001131 0.847940
C15   C     C_R   0.683058 0.750481 0.998869 0.847759
C16   C     C_R   0.316942 0.750481 0.001132 0.847859
C17   C     C_R   0.355095 0.228693 0.965535 -0.200197
C18   C     C_R   0.645139 0.228879 0.034935 -0.200201
C19   C     C_R   0.855292 0.728507 0.965970 -0.200073
C20   C     C_R   0.144946 0.728699 0.034516 -0.200019
H1    H     H_    0.328455 0.212320 0.940154 0.193174
H2    H     H_    0.671950 0.212640 0.060659 0.193258
H3    H     H_    0.828824 0.712001 0.940959 0.193255
H4    H     H_    0.171593 0.712330 0.059893 0.193402
C21   C     C_R   0.390369 0.228298 0.964197 0.399384
C22   C     C_R   0.609880 0.228494 0.036302 0.399336
C23   C     C_R   0.890551 0.728100 0.964606 0.399356
C24   C     C_R   0.109695 0.728303 0.035895 0.399326
C25   C     C_R   0.425438 0.249485 0.996694 -0.027695
C26   C     C_R   0.574589 0.249510 0.003370 -0.027693
C27   C     C_R   0.925417 0.749449 0.996663 -0.027796
C28   C     C_R   0.074605 0.749479 0.003384 -0.027755
C29   C     C_R   0.423790 0.270969 0.029321 -0.195678
C30   C     C_R   0.576010 0.270825 0.970294 -0.195737
C31   C     C_R   0.923553 0.771104 0.028851 -0.196013
C32   C     C_R   0.076233 0.770960 0.970731 -0.196069
H5    H     H_    0.450261 0.287456 0.054625 0.175009
H6    H     H_    0.549366 0.287177 0.944647 0.175016
H7    H     H_    0.949847 0.787724 0.053798 0.174906
H8    H     H_    0.049756 0.787443 0.945423 0.174854
C33   C     C_R   0.388579 0.271091 0.030742 -0.169849
C34   C     C_R   0.611218 0.270942 0.968866 -0.169882
C35   C     C_R   0.888350 0.771240 0.030287 -0.170522
C36   C     C_R   0.111433 0.771088 0.969291 -0.170439
H9    H     H_    0.388458 0.287826 0.056632 0.171086
H10   H     H_    0.611155 0.287540 0.942619 0.171144
H11   H     H_    0.888050 0.788116 0.055811 0.170690
H12   H     H_    0.111541 0.787823 0.943391 0.170796
C37   C     C_R   0.353923 0.249911 0.998937 -0.100070
C38   C     C_R   0.646089 0.249923 0.001091 -0.100166
C39   C     C_R   0.853916 0.749898 0.998938 -0.099866
C40   C     C_R   0.146093 0.749912 0.001087 -0.100011
N1    N     N_R   0.482298 0.275338 0.998857 -0.230228
N2    N     N_R   0.517435 0.275344 0.000625 -0.230264
N3    N     N_R   0.982342 0.775304 0.998943 -0.231011
N4    N     N_R   0.017490 0.775312 0.000735 -0.230888
C41   C     C_R   0.536015 0.249508 0.002231 0.441726
C42   C     C_R   0.464014 0.249492 0.997836 0.441748
C43   C     C_R   0.036023 0.749477 0.002238 0.441347
C44   C     C_R   0.964001 0.749459 0.997807 0.441300
N5    N     N_R   0.517747 0.223713 0.001295 -0.133360
N6    N     N_R   0.482575 0.223706 0.999354 -0.133378
N7    N     N_R   0.017696 0.723683 0.001180 -0.132934
N8    N     N_R   0.982523 0.723676 0.999235 -0.132811
C45   C     C_R   0.959879 0.459850 0.419749 0.814600
C46   C     C_R   0.040120 0.459850 0.580251 0.814834
C47   C     C_R   0.459880 0.959850 0.419749 0.814637
C48   C     C_R   0.540120 0.959850 0.580251 0.814526
C49   C     C_3   0.369359 0.130384 0.288668 0.392516
C50   C     C_3   0.629556 0.130840 0.710422 0.392623
C51   C     C_3   0.867174 0.629413 0.286732 0.392081
C52   C     C_3   0.135346 0.628203 0.715680 0.391870
C53   C     C_3   0.331031 0.124846 0.222241 0.392307
C54   C     C_3   0.668744 0.125405 0.776639 0.392412
C55   C     C_3   0.830675 0.623721 0.219987 0.392606
C56   C     C_3   0.169557 0.622425 0.782608 0.392386
H13   H     H_    0.342616 0.076325 0.204235 0.182259
H14   H     H_    0.658967 0.076517 0.795372 0.182166
H15   H     H_    0.845981 0.576032 0.203631 0.182310
H16   H     H_    0.149806 0.575866 0.796720 0.182485
C57   C     C_1   0.312560 0.187374 0.125114 -0.130226
C58   C     C_1   0.687439 0.187374 0.874886 -0.130312
C59   C     C_1   0.812558 0.687374 0.125114 -0.130360
C60   C     C_1   0.187445 0.687374 0.874885 -0.130283
C61   C     C_1   0.437511 0.062504 0.374830 -0.126233
C62   C     C_1   0.562489 0.062504 0.625170 -0.126512
C63   C     C_1   0.937511 0.562504 0.374829 -0.127062
C64   C     C_1   0.062487 0.562504 0.625170 -0.126528
C65   C     C_3   0.392838 0.151576 0.275248 -0.237826
C66   C     C_3   0.606289 0.151472 0.724964 -0.237833
C67   C     C_3   0.890980 0.651730 0.275567 -0.239325
C68   C     C_3   0.111341 0.651816 0.724249 -0.239355
C69   C     C_3   0.354407 0.145636 0.208721 0.033287
C70   C     C_3   0.645590 0.145635 0.791279 0.033437
C71   C     C_3   0.854399 0.645634 0.208717 0.033761
C72   C     C_3   0.145607 0.645633 0.791283 0.033545
C73   C     C_3   0.419526 0.125031 0.278011 -0.179022
C74   C     C_3   0.580700 0.124466 0.723120 -0.179306
C75   C     C_3   0.919877 0.626164 0.280281 -0.179888
C76   C     C_3   0.079892 0.627472 0.717098 -0.179404
C77   C     C_3   0.395679 0.104245 0.291224 0.033372
C78   C     C_3   0.604322 0.104246 0.708775 0.033513
C79   C     C_3   0.895679 0.604243 0.291219 0.033784
C80   C     C_3   0.104318 0.604243 0.708781 0.033547
C81   C     C_3   0.380779 0.119446 0.210854 -0.183206
C82   C     C_3   0.620316 0.118985 0.790065 -0.183391
C83   C     C_3   0.882979 0.620424 0.212802 -0.182512
C84   C     C_3   0.114479 0.621645 0.784762 -0.182246
C85   C     C_3   0.357235 0.098307 0.224698 -0.241117
C86   C     C_3   0.643635 0.098411 0.775089 -0.241202
C87   C     C_3   0.859085 0.598148 0.224370 -0.240611
C88   C     C_3   0.138598 0.598060 0.775816 -0.240466
C89   C     C_1   0.331456 0.168543 0.162836 0.048381
C90   C     C_1   0.668542 0.168542 0.837165 0.048280
C91   C     C_1   0.831452 0.668542 0.162835 0.048041
C92   C     C_1   0.168553 0.668543 0.837163 0.048157
C93   C     C_1   0.418655 0.081333 0.337099 0.049684
C94   C     C_1   0.581346 0.081332 0.662901 0.049424
C95   C     C_1   0.918656 0.581331 0.337097 0.048876
C96   C     C_1   0.081341 0.581332 0.662901 0.049340
H17   H     H_    0.385378 0.115177 0.178354 0.174338
H18   H     H_    0.616616 0.114336 0.823322 0.174190
H19   H     H_    0.889388 0.616962 0.181911 0.174365
H20   H     H_    0.105981 0.619190 0.813645 0.174520
H21   H     H_    0.456288 0.124850 0.301388 0.177058
H22   H     H_    0.544126 0.123821 0.700674 0.176845
H23   H     H_    0.956938 0.626918 0.305530 0.176498
H24   H     H_    0.042632 0.629303 0.689691 0.176860
H25   H     H_    0.407188 0.173587 0.295770 0.186359
H26   H     H_    0.591220 0.173401 0.704611 0.186273
H27   H     H_    0.903801 0.673864 0.296343 0.185426
H28   H     H_    0.100431 0.674014 0.703335 0.185526
C97   C     C_R   0.099071 0.247850 0.943688 0.327756
C98   C     C_R   0.900928 0.247841 0.056308 0.326848
C99   C     C_R   0.599071 0.747839 0.943692 0.326861
C100  C     C_R   0.400930 0.747846 0.056313 0.327801
C101  C     C_R   0.063775 0.246933 0.945257 -0.179560
C102  C     C_R   0.936223 0.246923 0.054737 -0.180046
C103  C     C_R   0.563777 0.746923 0.945263 -0.179993
C104  C     C_R   0.436225 0.746930 0.054744 -0.179451
H29   H     H_    0.029276 0.244402 0.904174 0.198979
H30   H     H_    0.970722 0.244388 0.095818 0.198953
H31   H     H_    0.529278 0.744385 0.904183 0.198866
H32   H     H_    0.470724 0.744395 0.095825 0.198906
C105  C     C_R   0.072451 0.250044 0.998748 -0.015840
C106  C     C_R   0.927547 0.250042 0.001247 -0.015808
C107  C     C_R   0.572453 0.750045 0.998753 -0.015502
C108  C     C_R   0.427550 0.750048 0.001254 -0.015438
C109  C     C_R   0.117329 0.253987 0.051301 -0.119765
C110  C     C_R   0.882669 0.253992 0.948696 -0.119770
C111  C     C_R   0.617330 0.753997 0.051302 -0.120248
C112  C     C_R   0.382673 0.753996 0.948702 -0.120457
H33   H     H_    0.125172 0.256581 0.093251 0.175682
H34   H     H_    0.874826 0.256590 0.906748 0.175768
H35   H     H_    0.625173 0.756599 0.093250 0.175400
H36   H     H_    0.374830 0.756595 0.906754 0.175193
C113  C     C_R   0.152776 0.254679 0.050461 -0.207050
C114  C     C_R   0.847223 0.254684 0.949538 -0.206974
C115  C     C_R   0.652776 0.754688 0.050460 -0.207767
C116  C     C_R   0.347225 0.754687 0.949542 -0.208210
H37   H     H_    0.187121 0.257349 0.091834 0.174836
H38   H     H_    0.812879 0.257358 0.908166 0.175008
H39   H     H_    0.687120 0.757365 0.091831 0.174345
H40   H     H_    0.312881 0.757361 0.908170 0.173939
C117  C     C_R   0.144302 0.251289 0.997202 -0.145746
C118  C     C_R   0.855697 0.251287 0.002796 -0.145941
C119  C     C_R   0.644302 0.751288 0.997203 -0.145497
C120  C     C_R   0.355699 0.751290 0.002799 -0.145144
N9    N     N_R   0.043035 0.249689 0.051344 -0.216413
N10   N     N_R   0.956962 0.249695 0.948650 -0.216292
N11   N     N_R   0.543038 0.749698 0.051350 -0.216472
N12   N     N_R   0.456965 0.749695 0.948657 -0.216708
N13   N     N_R   0.009065 0.249653 0.051889 -0.213531
N14   N     N_R   0.990932 0.249660 0.948106 -0.213346
N15   N     N_R   0.509069 0.749663 0.051895 -0.213450
N16   N     N_R   0.490934 0.749658 0.948111 -0.213708
C121  C     C_R   0.965305 0.249705 0.000564 0.441564
C122  C     C_R   0.034693 0.249706 0.999430 0.441680
C123  C     C_R   0.465308 0.749710 0.000571 0.441712
C124  C     C_R   0.534695 0.749709 0.999436 0.441630
C125  C     C_3   0.154897 0.389000 0.750040 -0.124174
C126  C     C_3   0.844753 0.390167 0.247619 -0.124511
C127  C     C_3   0.655279 0.890305 0.752656 -0.125023
C128  C     C_3   0.345054 0.889138 0.249682 -0.124797
C129  C     C_3   0.144185 0.355426 0.738698 -0.201141
C130  C     C_3   0.853523 0.356436 0.259279 -0.201546
C131  C     C_3   0.646749 0.856560 0.740971 -0.201579
C132  C     C_3   0.355544 0.855541 0.261070 -0.201060
H41   H     H_    0.160891 0.339322 0.730166 0.168979
H42   H     H_    0.834930 0.341179 0.266115 0.168532
H43   H     H_    0.665564 0.841407 0.734342 0.168300
H44   H     H_    0.338614 0.839535 0.269408 0.168783
H45   H     H_    0.179855 0.400823 0.749922 0.156110
H46   H     H_    0.819503 0.402963 0.245787 0.155683
H47   H     H_    0.680556 0.903215 0.754715 0.155105
H48   H     H_    0.320055 0.901077 0.249569 0.155429
H49   H     H_    0.066090 0.352051 0.652191 0.170992
H50   H     H_    0.930383 0.351735 0.348445 0.170730
H51   H     H_    0.570052 0.851708 0.651502 0.170668
H52   H     H_    0.433506 0.852006 0.347899 0.170928
C133  C     C_1   0.187245 0.312499 0.874792 -0.100500
C134  C     C_1   0.812758 0.312499 0.125210 -0.100691
C135  C     C_1   0.687244 0.812499 0.874790 -0.100957
C136  C     C_1   0.312755 0.812499 0.125208 -0.100757
C137  C     C_1   0.062439 0.437385 0.625059 -0.146150
C138  C     C_1   0.937563 0.437381 0.374947 -0.146558
C139  C     C_1   0.562437 0.937381 0.625052 -0.147076
C140  C     C_1   0.437561 0.937384 0.374942 -0.146820
C141  C     C_3   0.155796 0.387473 0.802862 -0.207839
C142  C     C_3   0.846157 0.387612 0.196857 -0.207748
C143  C     C_3   0.653607 0.887624 0.803167 -0.208211
C144  C     C_3   0.344428 0.887493 0.197096 -0.208488
C145  C     C_3   0.144931 0.354168 0.791057 0.070912
C146  C     C_3   0.855079 0.354153 0.208975 0.071206
C147  C     C_3   0.644924 0.854152 0.791024 0.071527
C148  C     C_3   0.355070 0.854167 0.208946 0.071316
C149  C     C_3   0.104223 0.394481 0.760532 -0.202204
C150  C     C_3   0.898093 0.393437 0.241560 -0.201955
C151  C     C_3   0.601637 0.893310 0.758185 -0.202156
C152  C     C_3   0.396051 0.894361 0.239707 -0.202533
C153  C     C_3   0.103713 0.395532 0.708395 0.118522
C154  C     C_3   0.896293 0.395519 0.291634 0.118828
C155  C     C_3   0.603708 0.895517 0.708364 0.119162
C156  C     C_3   0.396288 0.895531 0.291608 0.118916
C157  C     C_3   0.094355 0.361194 0.749132 0.379693
C158  C     C_3   0.906000 0.360026 0.253211 0.379339
C159  C     C_3   0.593971 0.859890 0.746518 0.379461
C160  C     C_3   0.405694 0.861055 0.251146 0.379843
C161  C     C_3   0.092564 0.362300 0.696101 -0.195379
C162  C     C_3   0.905490 0.362130 0.304243 -0.195734
C163  C     C_3   0.594751 0.862116 0.695731 -0.195603
C164  C     C_3   0.407213 0.862275 0.303948 -0.195189
C165  C     C_1   0.168191 0.331307 0.837038 0.032823
C166  C     C_1   0.831815 0.331302 0.162973 0.032352
C167  C     C_1   0.668188 0.831302 0.837027 0.031970
C168  C     C_1   0.331809 0.831306 0.162964 0.032425
C169  C     C_1   0.081100 0.418502 0.662677 -0.010211
C170  C     C_1   0.918903 0.418494 0.337338 -0.010705
C171  C     C_1   0.581097 0.918494 0.662661 -0.011246
C172  C     C_1   0.418900 0.918501 0.337325 -0.010901
H53   H     H_    0.087217 0.410366 0.768948 0.169504
H54   H     H_    0.916981 0.408466 0.234861 0.169536
H55   H     H_    0.582528 0.908234 0.764675 0.169266
H56   H     H_    0.413281 0.910148 0.231489 0.169154
H57   H     H_    0.182021 0.397646 0.846938 0.166395
H58   H     H_    0.821527 0.397918 0.152515 0.166148
H59   H     H_    0.678042 0.897942 0.847532 0.165645
H60   H     H_    0.318386 0.897686 0.152982 0.165749
O33   O     O_R   0.501310 0.030200 0.560470 -0.576221
O34   O     O_R   0.498690 0.030200 0.439530 -0.576175
O35   O     O_R   0.001310 0.530200 0.560470 -0.576578
O36   O     O_R   0.998690 0.530200 0.439530 -0.576651
O37   O     O_R   0.559100 0.030200 0.560470 -0.563926
O38   O     O_R   0.440900 0.030200 0.439530 -0.563684
O39   O     O_R   0.059100 0.530200 0.560470 -0.562773
O40   O     O_R   0.940900 0.530200 0.439530 -0.563266
C173  C     C_R   0.540077 0.040087 0.580257 0.816845
C174  C     C_R   0.459923 0.040087 0.419743 0.816955
C175  C     C_R   0.040076 0.540087 0.580257 0.815919
C176  C     C_R   0.959923 0.540087 0.419743 0.815705
Cu9   Cu    Cu3+1 0.465750 0.999970 0.499990 1.023403
Cu10  Cu    Cu3+1 0.534250 0.999970 0.500010 1.023405
Cu11  Cu    Cu3+1 0.965750 0.499970 0.499990 1.024289
Cu12  Cu    Cu3+1 0.034250 0.499970 0.500010 1.024560
O41   O     O_R   0.940840 0.469740 0.439520 -0.575288
O42   O     O_R   0.059160 0.469740 0.560480 -0.575086
O43   O     O_R   0.440840 0.969740 0.439520 -0.575561
O44   O     O_R   0.559160 0.969740 0.560480 -0.575629
O45   O     O_R   0.998640 0.469740 0.439520 -0.573406
O46   O     O_R   0.001360 0.469740 0.560480 -0.573254
O47   O     O_R   0.498640 0.969740 0.439520 -0.573307
O48   O     O_R   0.501360 0.969740 0.560480 -0.573476
N17   N     N_R   0.088092 0.246634 0.887370 0.137619
O49   O     O_R   0.107047 0.264926 0.875480 -0.314969
O50   O     O_R   0.054149 0.230653 0.844793 -0.305338
N18   N     N_R   0.911908 0.246618 0.112626 0.137636
O51   O     O_R   0.892959 0.264909 0.124527 -0.314946
O52   O     O_R   0.945847 0.230631 0.155195 -0.304491
N19   N     N_R   0.588092 0.746613 0.887375 0.137649
O53   O     O_R   0.607038 0.764904 0.875468 -0.315061
O54   O     O_R   0.554155 0.730624 0.844810 -0.304002
N20   N     N_R   0.411908 0.746623 0.112629 0.137659
O55   O     O_R   0.392958 0.764915 0.124529 -0.315048
O56   O     O_R   0.445848 0.730638 0.155199 -0.304707
N21   N     N_R   0.060357 0.346331 0.747602 0.131380
O57   O     O_R   0.018219 0.354567 0.709416 -0.318883
O58   O     O_R   0.071715 0.324894 0.784066 -0.288983
N22   N     N_R   0.940389 0.343873 0.257331 0.131217
O59   O     O_R   0.982796 0.351212 0.297320 -0.318830
O60   O     O_R   0.929114 0.322174 0.221394 -0.287351
N23   N     N_R   0.559549 0.843585 0.742096 0.131107
O61   O     O_R   0.517117 0.850818 0.701896 -0.319146
O62   O     O_R   0.570817 0.821856 0.777975 -0.287285
N24   N     N_R   0.439747 0.846039 0.252983 0.131247
O63   O     O_R   0.481924 0.854169 0.291383 -0.319200
O64   O     O_R   0.428401 0.824571 0.216582 -0.288908
Cl1   Cl    Cl    0.387637 0.201767 0.918635 -0.540080
Cl2   Cl    Cl    0.612907 0.202209 0.082440 -0.540062
Cl3   Cl    Cl    0.888023 0.701327 0.919550 -0.539490
Cl4   Cl    Cl    0.112503 0.701779 0.081529 -0.539370
Cl5   Cl    Cl    0.272085 0.124844 0.184957 -0.510344
Cl6   Cl    Cl    0.727390 0.126150 0.812427 -0.510567
Cl7   Cl    Cl    0.771258 0.622216 0.179694 -0.509398
Cl8   Cl    Cl    0.229284 0.619189 0.826367 -0.508861
Cl9   Cl    Cl    0.361860 0.137550 0.340609 -0.505379
Cl10  Cl    Cl    0.635606 0.138616 0.657264 -0.505749
Cl11  Cl    Cl    0.856758 0.635283 0.336089 -0.507805
Cl12  Cl    Cl    0.149128 0.632456 0.669548 -0.506893

loop_
_geom_bond_atom_site_label_1
_geom_bond_atom_site_label_2
_geom_bond_distance
_ccdc_geom_bond_type
O40   Cu11  1.944626 S    
C43   N7    1.356792 A    
C141  C145  1.542155 S    
C114  C118  1.403149 A    
N20   O56   1.301355 A    
C99   C119  1.417064 A    
C152  C156  1.541145 S    
O9    Cu1   1.952320 S    
C146  C166  1.466497 S    
Cu11  O41   1.944557 S    
Cu9   Cu10  2.663210 S    
N11   C124  1.357894 A    
C67   H27   1.110076 S    
C149  C153  1.541145 S    
C157  N21   1.457159 S    
O38   C174  1.289378 A    
C151  C155  1.541140 S    
C49   Cl9   1.781038 S    
N4    C43   1.358339 A    
Cu10  O44   1.944552 S    
C44   N8    1.356810 A    
O13   Cu5   1.952909 S    
Cu6   O22   1.944477 S    
H50   C162  1.110111 S    
O16   C8    1.289321 A    
C63   C176  1.435150 S    
C82   C86   1.553785 S    
C126  H46   1.110060 S    
C160  N24   1.457158 S    
C26   C30   1.405177 A    
C1    C57   1.435056 S    
C142  C146  1.542159 S    
C80   C96   1.466398 S    
C54   Cl6   1.781068 S    
O5    Cu5   1.944707 S    
C25   C42   1.478077 S    
C79   C87   1.541723 S    
C148  C160  1.526456 S    
O15   Cu7   1.952909 S    
C116  C120  1.403148 A    
C53   C69   1.532850 S    
C66   C70   1.541705 S    
C143  H59   1.110065 S    
C78   C94   1.466400 S    
C144  H60   1.110065 S    
C29   C33   1.397111 A    
C152  H56   1.110123 S    
Cu1   Cu5   2.650836 S    
C70   C82   1.540815 S    
H16   C88   1.110076 S    
Cu3   Cu7   2.650836 S    
Cu4   Cu8   2.650828 S    
C149  C157  1.536248 S    
Cu1   O25   1.952519 S    
C59   C91   1.205488 T    
N2    C41   1.358329 A    
Cu3   O19   1.944709 S    
C42   N6    1.356841 A    
Cu4   O28   1.952518 S    
N9    N13   1.331537 A    
Cu5   O29   1.952111 S    
N18   O51   1.301299 A    
C106  C110  1.403793 A    
O15   C7    1.289305 A    
O11   Cu3   1.952320 S    
Cu11  Cu12  2.663210 S    
C24   C28   1.412992 A    
C142  H58   1.110062 S    
O9    C5    1.291670 A    
O2    Cu2   1.944477 S    
C19   C39   1.404369 A    
O10   Cu2   1.952321 S    
C75   H23   1.110034 S    
C102  H30   1.082920 S    
C17   C37   1.404474 A    
C65   C69   1.541701 S    
C77   C93   1.466396 S    
O6    Cu6   1.944713 S    
C132  C164  1.555399 S    
C69   C81   1.540815 S    
C54   C86   1.545213 S    
C66   C74   1.553786 S    
C144  C152  1.555402 S    
C108  C123  1.481604 S    
C109  C113  1.395130 A    
C146  C158  1.526466 S    
C36   H12   1.082886 S    
C2    C58   1.435061 S    
C131  C147  1.542174 S    
C17   H1    1.083241 S    
C35   C39   1.403097 A    
C19   H3    1.083218 S    
C20   H4    1.083231 S    
C20   C24   1.397944 A    
O33   C173  1.289471 A    
C100  C120  1.417063 A    
C52   Cl12  1.781037 S    
O24   C12   1.286240 A    
C130  C162  1.555406 S    
C61   C174  1.435150 S    
C22   C26   1.412875 A    
C81   H17   1.110041 S    
C112  C116  1.395126 A    
O3    C3    1.286362 A    
C102  C106  1.404689 A    
C65   C73   1.553783 S    
C48   O44   1.289587 A    
C129  C145  1.542174 S    
C55   C87   1.545224 S    
C98   C118  1.417064 A    
C29   H5    1.083287 S    
C148  C168  1.466488 S    
H13   C85   1.110078 S    
C68   H28   1.110074 S    
C31   H7    1.083253 S    
C104  H32   1.082923 S    
O23   C11   1.286241 A    
N19   O54   1.301355 A    
C125  C129  1.552697 S    
C21   Cl1   1.762427 S    
C127  C131  1.552693 S    
N17   O50   1.301356 A    
Cu9   O43   1.944557 S    
N21   O58   1.300285 A    
O38   Cu9   1.944626 S    
C45   O45   1.289455 A    
C75   C79   1.540812 S    
C46   O42   1.289592 A    
C160  C164  1.536254 S    
C47   O47   1.289451 A    
Cu10  O47   1.945632 S    
C114  H38   1.083459 S    
C152  C160  1.536245 S    
C50   C54   1.536143 S    
C153  C161  1.541147 S    
O20   C12   1.286329 A    
O8    C4    1.286440 A    
C143  C151  1.555409 S    
C155  C163  1.541142 S    
O29   C13   1.288382 A    
C132  C148  1.542174 S    
C149  H53   1.110119 S    
C150  C154  1.541146 S    
C8    C40   1.478636 S    
C107  C124  1.481606 S    
C20   C40   1.404418 A    
C27   C31   1.405300 A    
C105  C122  1.481608 S    
C84   H20   1.110043 S    
C47   C140  1.435019 S    
N14   C122  1.358486 A    
N24   O63   1.300216 A    
C130  H42   1.110071 S    
C83   C87   1.553792 S    
O5    C1    1.286437 A    
C68   C72   1.541701 S    
C17   C21   1.398022 A    
C54   C70   1.532853 S    
O25   C13   1.289957 A    
C72   C84   1.540818 S    
C126  C142  1.552703 S    
C51   C67   1.545190 S    
Cu2   Cu6   2.650828 S    
C71   C83   1.540819 S    
C49   C65   1.545192 S    
O4    C4    1.286359 A    
C150  C158  1.536246 S    
C135  C167  1.205268 T    
C52   C56   1.536139 S    
Cu2   O26   1.952518 S    
O16   Cu8   1.952908 S    
O27   C15   1.289962 A    
C125  H45   1.110061 S    
O14   C6    1.289393 A    
Cu6   O30   1.952112 S    
C11   C135  1.434522 S    
C84   C88   1.553790 S    
N22   O59   1.300224 A    
C97   C117  1.417058 A    
C105  C109  1.403794 A    
C15   C119  1.475636 S    
C56   Cl8   1.781059 S    
O10   C6    1.291698 A    
O3    Cu3   1.944471 S    
C80   C88   1.541721 S    
C83   H19   1.110038 S    
C55   C71   1.532847 S    
C74   C82   1.552914 S    
C101  H29   1.082923 S    
C46   C137  1.435011 S    
C139  C171  1.205460 T    
C111  H35   1.082744 S    
C140  C172  1.205465 T    
C67   C75   1.553785 S    
C74   H22   1.110040 S    
C128  C144  1.552696 S    
C109  H33   1.082745 S    
C100  C104  1.403933 A    
C153  C169  1.465706 S    
C136  C168  1.205270 T    
C137  C169  1.205466 T    
C36   C40   1.403163 A    
C33   H9    1.082906 S    
Cu1   O17   1.944709 S    
C28   C43   1.478229 S    
C18   H2    1.083247 S    
C35   H11   1.082882 S    
C76   H24   1.110034 S    
N5    N6    1.330737 A    
O33   Cu9   1.945290 S    
C113  C117  1.403145 A    
O34   C174  1.289468 A    
O35   Cu11  1.945290 S    
C32   C36   1.397075 A    
C73   H21   1.110037 S    
C128  C156  1.540277 S    
C62   C173  1.435154 S    
C5    C37   1.478740 S    
C82   H18   1.110037 S    
N10   C121  1.357893 A    
C51   Cl11  1.781039 S    
C112  H36   1.082743 S    
C73   C81   1.552909 S    
C125  C153  1.540275 S    
C50   Cl10  1.781039 S    
C61   C93   1.205523 T    
C103  C107  1.404688 A    
C48   O48   1.289455 A    
O17   C9    1.286333 A    
C128  C132  1.552693 S    
C101  C105  1.404688 A    
N18   O52   1.301358 A    
C133  C165  1.205273 T    
H14   C86   1.110076 S    
C157  C161  1.536253 S    
C104  C108  1.404690 A    
C100  N20   1.437912 S    
C159  C163  1.536251 S    
Cu9   O48   1.945626 S    
C14   C118  1.475629 S    
C25   C29   1.405170 A    
C98   C102  1.403935 A    
C26   C41   1.478095 S    
C53   Cl5   1.781067 S    
C33   C37   1.403229 A    
N20   O55   1.301296 A    
C55   Cl7   1.781059 S    
C156  C164  1.541146 S    
Cu7   O31   1.952111 S    
C115  H39   1.083460 S    
Cu8   O32   1.952112 S    
C30   C34   1.397112 A    
C126  C154  1.540281 S    
C99   N19   1.437912 S    
Cu12  O45   1.945632 S    
N16   C124  1.358485 A    
O1    C1    1.286362 A    
C74   C78   1.540811 S    
N3    C44   1.358364 A    
C46   O46   1.289451 A    
C47   O43   1.289594 A    
C34   H10   1.082907 S    
C129  H41   1.110074 S    
C147  C167  1.466491 S    
N23   O61   1.300213 A    
C23   Cl3   1.762447 S    
C127  C155  1.540280 S    
N15   C123  1.358485 A    
C154  C162  1.541145 S    
O21   C9    1.286237 A    
O28   C16   1.289954 A    
C143  C147  1.542153 S    
C16   C120  1.475624 S    
O30   C14   1.288381 A    
C6    C38   1.478811 S    
C150  H54   1.110122 S    
C52   C68   1.545194 S    
C18   C38   1.404503 A    
C129  C161  1.555400 S    
C125  C141  1.552696 S    
O36   C176  1.289467 A    
C132  H44   1.110075 S    
C110  C114  1.395130 A    
C64   C175  1.435156 S    
C155  C171  1.465701 S    
C127  C143  1.552700 S    
C73   C77   1.540812 S    
C3    C59   1.435056 S    
C76   C80   1.540818 S    
C141  C149  1.555402 S    
O6    C2    1.286436 A    
O39   C175  1.289379 A    
C79   C95   1.466396 S    
C56   C72   1.532848 S    
N12   C123  1.357893 A    
C68   C76   1.553783 S    
C27   C44   1.478349 S    
C34   C38   1.403255 A    
C108  C112  1.403792 A    
C78   C86   1.541727 S    
C128  H48   1.110062 S    
C145  C165  1.466482 S    
O26   C14   1.289958 A    
C31   C35   1.397078 A    
N17   O49   1.301296 A    
C70   C90   1.466361 S    
C66   H26   1.110071 S    
C21   C25   1.412867 A    
C50   C66   1.545191 S    
C23   C27   1.413064 A    
O37   C173  1.289375 A    
N21   O57   1.300208 A    
O13   C5    1.289385 A    
C151  C159  1.536246 S    
N19   O53   1.301296 A    
Cu3   O27   1.952519 S    
O40   C176  1.289380 A    
Cu4   O20   1.944715 S    
C30   H6    1.083299 S    
Cu5   O21   1.944471 S    
N7    N8    1.330676 A    
H49   C161  1.110109 S    
C81   C85   1.553789 S    
C131  H43   1.110073 S    
O12   Cu4   1.952321 S    
N11   N15   1.331541 A    
N1    N2    1.332570 A    
C22   Cl2   1.762444 S    
N3    N4    1.332565 A    
C28   C32   1.405250 A    
C76   C84   1.552910 S    
C77   C85   1.541722 S    
O7    C3    1.286437 A    
C48   C139  1.435012 S    
C75   C83   1.552911 S    
C147  C159  1.526461 S    
C69   C89   1.466357 S    
N9    C122  1.357892 A    
C65   H25   1.110073 S    
C111  C115  1.395130 A    
C67   C71   1.541699 S    
C12   C136  1.434525 S    
C72   C92   1.466359 S    
N24   O64   1.300284 A    
C126  C130  1.552692 S    
C154  C170  1.465703 S    
C71   C91   1.466357 S    
C138  C170  1.205459 T    
C50   C78   1.532890 S    
Cu2   O18   1.944715 S    
N12   N16   1.331538 A    
C13   C117  1.475623 S    
C113  H37   1.083460 S    
O14   Cu6   1.952908 S    
O35   C175  1.289465 A    
C107  C111  1.403792 A    
C49   C53   1.536143 S    
C144  C148  1.542162 S    
C19   C23   1.397950 A    
O11   C7    1.291657 A    
O12   C8    1.291681 A    
C141  H57   1.110066 S    
O1    Cu1   1.944471 S    
C58   C90   1.205493 T    
C97   N17   1.437913 S    
O4    Cu4   1.944477 S    
C18   C22   1.398010 A    
C103  H31   1.082921 S    
C62   C94   1.205527 T    
H15   C87   1.110074 S    
C106  C121  1.481608 S    
O18   C10   1.286332 A    
O7    Cu7   1.944707 S    
O8    Cu8   1.944713 S    
C53   C85   1.545213 S    
C134  C166  1.205264 T    
N22   O60   1.300279 A    
C158  C162  1.536251 S    
N13   C121  1.358484 A    
C99   C103  1.403933 A    
C145  C157  1.526454 S    
N10   N14   1.331543 A    
C116  H40   1.083460 S    
C4    C60   1.435060 S    
C97   C101  1.403935 A    
C115  C119  1.403145 A    
C52   C80   1.532887 S    
N23   O62   1.300279 A    
C127  H47   1.110060 S    
Cu11  O46   1.945626 S    
O34   Cu10  1.945284 S    
C131  C163  1.555402 S    
C60   C92   1.205494 T    
C7    C39   1.478552 S    
C32   H8    1.083277 S    
O2    C2    1.286360 A    
C63   C95   1.205523 T    
C56   C88   1.545219 S    
C64   C96   1.205526 T    
O31   C15   1.288379 A    
O32   C16   1.288383 A    
C10   C134  1.434533 S    
C49   C77   1.532892 S    
O22   C10   1.286239 A    
C51   C79   1.532890 S    
H51   C163  1.110111 S    
H52   C164  1.110110 S    
C151  H55   1.110118 S    
C57   C89   1.205489 T    
C159  N23   1.457156 S    
O19   C11   1.286331 A    
C9    C133  1.434519 S    
Cu12  O42   1.944552 S    
C156  C172  1.465711 S    
Cu7   O23   1.944471 S    
O36   Cu12  1.945284 S    
Cu8   O24   1.944477 S    
C45   C138  1.435016 S    
C110  H34   1.082744 S    
C24   Cl4   1.762480 S    
C130  C146  1.542182 S    
C51   C55   1.536138 S    
C98   N18   1.437912 S    
O37   Cu10  1.944631 S    
N1    C42   1.358325 A    
C142  C150  1.555405 S    
C41   N5    1.356840 A    
C45   O41   1.289591 A    
O39   Cu12  1.944631 S    
C158  N22   1.457147 S    
