data_mof_unit_38214.cif
_audit_creation_date              2012-12-11T14:08:27-0500
_audit_creation_method            fapswitch 2.2
_symmetry_space_group_name_H-M    P1
_symmetry_Int_Tables_number       1
_space_group_crystal_system       triclinic
_cell_length_a                    10.909353
_cell_length_b                    10.986688
_cell_length_c                    18.650593
_cell_angle_alpha                 90.437197
_cell_angle_beta                  90.018765
_cell_angle_gamma                 60.275382
_cell_volume                      1941.20518058

loop_
_atom_site_label
_atom_site_type_symbol
_atom_type_description
_atom_site_fract_x
_atom_site_fract_y
_atom_site_fract_z
_atom_type_partial_charge
C1    C     C_R   0.236050 0.645063 0.608302 0.517807
C2    C     C_2   0.783190 0.154941 0.705804 -0.179540
C3    C     C_2   0.173172 0.659535 0.679423 0.269982
C4    C     C_R   0.625870 0.586605 0.609280 0.555282
C5    C     C_2   0.199993 0.661958 0.841339 -0.069796
C6    C     C_2   0.200628 0.562088 0.799956 -0.143519
C7    C     C_2   0.242848 0.552038 0.725061 -0.139224
C8    C     C_2   0.649698 0.646023 0.317081 -0.093856
C9    C     C_2   0.632509 0.665713 0.159287 -0.106930
C10   C     C_2   0.705409 0.546109 0.194958 -0.162293
C11   C     C_2   0.686612 0.537360 0.271589 -0.148482
C12   C     C_3   0.727150 0.505585 0.806131 -0.264012
C13   C     C_2   0.632986 0.197276 0.318377 -0.101837
C14   C     C_2   0.636605 0.203232 0.163604 -0.109581
C15   C     C_2   0.521729 0.231782 0.200870 -0.165919
C16   C     C_R   0.627984 0.228127 0.601931 0.534746
C17   C     C_2   0.516610 0.258796 0.276931 -0.151531
C18   C     C_2   0.120888 0.680984 0.345255 -0.111190
C19   C     C_2   0.113412 0.691824 0.190885 -0.085053
C20   C     C_2   0.041172 0.804184 0.234345 -0.146179
C21   C     C_2   0.072973 0.800062 0.309841 -0.167697
C22   C     C_R   0.704421 0.100414 0.896951 0.571086
C23   C     C_3   0.682871 0.662402 0.817607 0.030029
C24   C     C_R   0.717302 0.684077 0.891251 0.533494
C25   C     C_R   0.119473 0.706416 0.907777 0.572554
C26   C     C_R   0.672855 0.114716 0.101099 0.544691
C27   C     C_R   0.691981 0.688778 0.094613 0.550252
C28   C     C_R   0.215358 0.651256 0.404663 0.552583
C29   C     C_R   0.086600 0.713571 0.115318 0.546875
C30   C     C_R   0.641454 0.620938 0.392615 0.558478
C31   C     C_R   0.614461 0.233198 0.393411 0.551672
C32   C     C_3   0.521509 0.752630 0.798759 -0.047861
C33   C     C_3   0.497704 0.717513 0.721002 -0.229722
C34   C     C_3   0.642207 0.616790 0.684701 0.036397
C35   C     C_3   0.772241 0.698404 0.766355 -0.209775
C36   C     C_2   0.459629 0.909901 0.808349 0.573420
C37   C     C_3   0.045672 0.049489 0.777627 -0.075785
C38   C     C_3   0.951831 0.828776 0.644020 -0.108292
C39   C     C_3   0.737946 0.683905 0.688315 -0.223340
C40   C     C_3   0.710389 0.478312 0.726976 -0.254660
C41   C     C_2   0.674394 0.158312 0.670685 -0.182026
C42   C     C_2   0.693677 0.162684 0.826647 -0.071023
C43   C     C_2   0.807284 0.118509 0.782929 0.254302
Cr1   Cr    Cr6+3 0.393010 0.398050 0.501480 1.015456
Cr2   Cr    Cr6+3 0.398820 0.707980 0.501630 1.016408
Cr3   Cr    Cr6+3 0.708140 0.393940 0.496850 1.005519
Cr4   Cr    Cr6+3 0.937950 0.938450 0.008940 1.055946
Cr5   Cr    Cr6+3 0.626180 0.937030 0.994750 1.062015
Cr6   Cr    Cr6+3 0.937790 0.625760 0.001410 1.018831
H1    H     H_    0.816115 0.404545 0.704145 0.137099
H2    H     H_    0.462838 0.720759 0.835899 0.090958
H3    H     H_    0.791653 0.454335 0.169412 0.151880
H4    H     H_    0.717033 0.433679 0.291895 0.153172
H5    H     H_    0.540856 0.754664 0.183362 0.112534
H6    H     H_    0.618081 0.751058 0.298803 0.095635
H7    H     H_    0.437277 0.218650 0.178072 0.156821
H8    H     H_    0.412098 0.324244 0.299861 0.158147
H9    H     H_    0.716827 0.223785 0.185853 0.097324
H10   H     H_    0.738477 0.131552 0.296841 0.082705
H11   H     H_    0.968018 0.906654 0.212681 0.152330
H12   H     H_    0.886742 0.625836 0.775750 0.142415
H13   H     H_    0.431671 0.666476 0.722293 0.081967
H14   H     H_    0.076023 0.889738 0.332793 0.153798
H15   H     H_    0.188101 0.588111 0.210286 0.086118
H16   H     H_    0.109021 0.595193 0.323597 0.108331
H17   H     H_    0.437931 0.814628 0.689044 0.169488
H18   H     H_    0.753975 0.806018 0.776551 0.176246
H19   H     H_    0.683524 0.788827 0.662752 0.148577
H20   H     H_    0.839091 0.435175 0.821565 0.149051
H21   H     H_    0.661004 0.477729 0.840162 0.109644
H22   H     H_    0.642227 0.429832 0.722997 0.109277
H23   H     H_    0.838727 0.618751 0.658829 0.139776
H24   H     H_    0.329422 0.083489 0.865346 0.331367
H25   H     H_    0.015929 0.162149 0.780015 0.083917
H26   H     H_    0.068926 0.008669 0.721710 0.148277
H27   H     H_    0.144360 0.990005 0.808377 0.181224
H28   H     H_    0.954944 0.743907 0.609566 0.091953
H29   H     H_    0.968836 0.902879 0.611006 0.140774
H30   H     H_    0.844512 0.885020 0.667169 0.146865
H31   H     H_    0.853061 0.182634 0.678001 0.128142
H32   H     H_    0.588000 0.231955 0.806634 0.055741
H33   H     H_    0.608218 0.123343 0.696611 0.153264
H34   H     H_    0.162058 0.494023 0.819071 0.141283
H35   H     H_    0.335636 0.455540 0.707862 0.108415
H36   H     H_    0.240278 0.727295 0.820214 0.122973
O1    O     O_R   0.507110 0.256280 0.580300 -0.504561
O2    O     O_R   0.837080 0.593860 0.915300 -0.533112
O3    O     O_R   0.064770 0.636080 0.932550 -0.507919
O4    O     O_R   0.280830 0.527190 0.577940 -0.524813
O5    O     O_R   0.068250 0.829200 0.092940 -0.517364
O6    O     O_R   0.799650 0.057040 0.080330 -0.516979
O7    O     O_R   0.586130 0.079760 0.077080 -0.514127
O8    O     O_R   0.627700 0.809630 0.066580 -0.494434
O9    O     O_R   0.816140 0.597180 0.075920 -0.513821
O10   O     O_R   0.045360 0.639170 0.081440 -0.497897
O11   O     O_3   0.833980 0.833750 0.001700 -0.259692
O12   O     O_R   0.524640 0.695370 0.425100 -0.484784
O13   O     O_R   0.261360 0.738990 0.584270 -0.530418
O14   O     O_R   0.532590 0.694780 0.574370 -0.505647
O15   O     O_R   0.744470 0.503750 0.577000 -0.525331
O16   O     O_R   0.698520 0.277230 0.571620 -0.514491
O17   O     O_R   0.498530 0.256920 0.419280 -0.509454
O18   O     O_R   0.272880 0.527780 0.428680 -0.505389
O19   O     O_R   0.252780 0.739630 0.423250 -0.509312
O20   O     O_2   0.493074 0.975930 0.768018 -0.561570
O21   O     O_R   0.363644 0.979208 0.864063 -0.708474
O22   O     O_3   0.941554 0.026384 0.809056 -0.500659
O23   O     O_R   0.735890 0.504390 0.415980 -0.510145
O24   O     O_3   0.049398 0.778056 0.700996 -0.560069
O25   O     O_R   0.690560 0.277820 0.422350 -0.503634
O26   O     O_3   0.499990 0.499990 0.499980 -0.269207
O27   O     O_R   0.089190 0.825870 0.932320 -0.471698
O28   O     O_R   0.819070 0.053960 0.931440 -0.451161
O29   O     O_R   0.607070 0.076440 0.916460 -0.505722
O30   O     O_R   0.647110 0.806550 0.917690 -0.464309

loop_
_geom_bond_atom_site_label_1
_geom_bond_atom_site_label_2
_ccdc_geom_bond_type
C37   H25   S    
C40   H22   S    
C18   C21   D    
C39   H19   S    
Cr6   O2    S    
C19   C20   D    
C12   H20   S    
C10   H3    S    
C18   H16   S    
C12   C23   S    
C34   C40   S    
C32   C36   S    
C37   O22   S    
C3    C7    D    
Cr2   O13   S    
C5    C6    D    
C38   H30   S    
C2    C41   D    
C26   O7    A    
Cr4   O27   S    
C15   C17   S    
Cr3   O15   S    
C25   O27   A    
C22   O28   A    
C33   H13   S    
Cr3   O23   S    
C23   C24   S    
Cr6   O9    S    
C20   H11   S    
C9    C10   D    
C19   H15   S    
C11   H4    S    
C5    H36   S    
C7    H35   S    
C37   H26   S    
Cr3   O26   S    
C16   O1    A    
Cr6   O3    S    
C42   H32   S    
Cr1   O1    S    
C8    H6    S    
C29   O5    A    
C24   O2    A    
Cr1   O18   S    
C33   H17   S    
C14   H9    S    
Cr3   O16   S    
C4    C34   S    
Cr5   O8    S    
C36   O21   S    
C34   C39   S    
C31   O17   A    
C18   C28   S    
Cr2   O14   S    
Cr4   O11   S    
C29   O10   A    
Cr1   O17   S    
C38   H29   S    
C26   O6    A    
C25   O3    A    
C14   C26   S    
C1    C3    S    
C12   C40   S    
C35   C39   S    
C32   H2    S    
Cr2   O19   S    
C28   O19   A    
C30   O12   A    
C35   H18   S    
C2    C43   S    
C39   H23   S    
C33   C34   S    
C35   H12   S    
C43   O22   S    
Cr6   O10   S    
C38   O24   S    
Cr5   O30   S    
C5    C25   S    
C37   H27   S    
C23   C35   S    
Cr3   O25   S    
Cr4   O5    S    
C27   O8    A    
C42   C43   D    
C19   C29   S    
C9    C27   S    
Cr5   O29   S    
Cr4   O28   S    
C12   H21   S    
C1    O4    A    
C6    H34   S    
Cr5   O11   S    
C30   O23   A    
C36   O20   D    
Cr4   O6    S    
C13   C31   S    
C1    O13   A    
Cr2   O26   S    
C6    C7    S    
C13   H10   S    
C38   H28   S    
C13   C17   D    
C8    C30   S    
C32   C33   S    
C4    O15   A    
Cr2   O12   S    
C23   C32   S    
C28   O18   A    
H24   O21   S    
C22   C42   S    
C3    O24   S    
C8    C11   D    
C40   H1    S    
C41   H33   S    
C31   O25   A    
Cr6   O11   S    
C15   H7    S    
C21   H14   S    
C2    H31   S    
C10   C11   S    
Cr1   O26   S    
C16   O16   A    
C22   O29   A    
C20   C21   S    
C24   O30   A    
Cr5   O7    S    
C4    O14   A    
C14   C15   D    
C27   O9    A    
C9    H5    S    
C16   C41   S    
Cr1   O4    S    
C17   H8    S    
