data_mof_unit_23980.cif
_audit_creation_date              2012-12-11T16:56:11-0500
_audit_creation_method            fapswitch 2.2
_symmetry_space_group_name_H-M    P1
_symmetry_Int_Tables_number       1
_space_group_crystal_system       triclinic
_cell_length_a                    6.960481
_cell_length_b                    14.534575
_cell_length_c                    16.196817
_cell_angle_alpha                 90.433932
_cell_angle_beta                  90.015084
_cell_angle_gamma                 90.022314
_cell_volume                      1638.54646437

loop_
_atom_site_label
_atom_site_type_symbol
_atom_type_description
_atom_site_fract_x
_atom_site_fract_y
_atom_site_fract_z
_atom_type_partial_charge
O1    O     O_R   0.505830 0.583360 0.413880 -0.537193
O2    O     O_R   0.175830 0.595460 0.585520 -0.543432
O3    O     O_R   0.005520 0.416640 0.586120 -0.540383
C1    C     C_R   0.344680 0.617402 0.614453 0.695131
O4    O     O_R   0.176120 0.594390 0.414490 -0.544165
O5    O     O_R   0.005810 0.415570 0.413870 -0.539536
C2    C     C_R   0.344937 0.616248 0.385919 0.691191
O6    O     O_R   0.505540 0.584430 0.586130 -0.536980
O7    O     O_3   0.339200 0.441330 0.500000 -0.368502
V1    V     V_3+5 0.064350 0.510880 0.500000 1.385910
O8    O     O_R   0.676100 0.404540 0.414480 -0.539670
C3    C     C_R   0.845115 0.382533 0.385745 0.695213
O9    O     O_R   0.675810 0.405610 0.585510 -0.539255
C4    C     C_R   0.845011 0.383763 0.613673 0.745876
V2    V     V_3+5 0.564340 0.489120 0.500000 1.397455
O10   O     O_3   0.839360 0.558670 0.500000 -0.373685
C5    C     C_2   0.721031 0.208985 0.786111 -0.132519
C6    C     C_2   0.885653 0.181797 0.822612 -0.314862
H1    H     H_    0.585542 0.180326 0.807029 0.136637
H2    H     H_    0.022811 0.209771 0.803795 0.127662
C7    C     C_2   0.708650 0.277488 0.718152 -0.137701
C8    C     C_2   0.861533 0.315548 0.680529 -0.312537
H3    H     H_    0.565116 0.296526 0.698283 0.134954
H4    H     H_    0.006201 0.297192 0.698544 0.129440
C9    C     C_R   0.727959 0.181144 0.242971 0.098656
C10   C     C_R   0.882563 0.180454 0.187554 -0.111305
C11   C     C_R   0.034098 0.242411 0.203210 -0.179117
H5    H     H_    0.156697 0.244333 0.162385 0.133985
C12   C     C_R   0.022664 0.307075 0.268269 -0.178397
H6    H     H_    0.137466 0.356573 0.275790 0.127796
C13   C     C_R   0.859028 0.311952 0.319440 -0.110753
C14   C     C_R   0.716200 0.245394 0.307121 0.103381
C15   C     C_3   0.505591 0.257653 0.295129 -0.409136
C16   C     C_3   0.518255 0.187238 0.225557 -0.398394
H7    H     H_    0.469691 0.327964 0.273503 0.166211
H8    H     H_    0.421179 0.233228 0.348934 0.176315
H9    H     H_    0.488842 0.216466 0.163605 0.171518
H10   H     H_    0.441950 0.121914 0.239296 0.167431
C17   C     C_R   0.507755 0.681644 0.741360 0.104942
C18   C     C_R   0.353095 0.682135 0.685865 -0.113481
C19   C     C_R   0.201399 0.743463 0.703090 -0.180103
H11   H     H_    0.078655 0.746314 0.662381 0.132890
C20   C     C_R   0.212659 0.806314 0.769732 -0.176042
H12   H     H_    0.097674 0.855441 0.778332 0.127991
C21   C     C_R   0.376280 0.810087 0.821132 -0.112453
C22   C     C_R   0.519391 0.744110 0.807046 0.102751
C23   C     C_3   0.729890 0.756965 0.795336 -0.410789
C24   C     C_3   0.717383 0.688572 0.724126 -0.398861
H13   H     H_    0.814462 0.731074 0.848539 0.176386
H14   H     H_    0.765462 0.827944 0.775377 0.166895
H15   H     H_    0.794018 0.622968 0.736306 0.169941
H16   H     H_    0.746489 0.719642 0.662886 0.169205
C25   C     C_R   0.507635 0.681394 0.260271 0.100257
C26   C     C_R   0.353051 0.681307 0.315732 -0.112432
C27   C     C_R   0.201533 0.743015 0.300091 -0.179469
H17   H     H_    0.078923 0.745475 0.340909 0.132984
C28   C     C_R   0.212888 0.806764 0.235060 -0.177888
H18   H     H_    0.098028 0.856068 0.227616 0.127499
C29   C     C_R   0.376450 0.811053 0.183819 -0.111963
C30   C     C_R   0.519319 0.744734 0.196168 0.103413
C31   C     C_3   0.729917 0.757247 0.208162 -0.409353
C32   C     C_3   0.717330 0.687870 0.277649 -0.399009
H19   H     H_    0.765800 0.827904 0.229879 0.166012
H20   H     H_    0.814288 0.732045 0.154307 0.176155
H21   H     H_    0.746741 0.718047 0.339643 0.170144
H22   H     H_    0.793667 0.622377 0.263811 0.167946
O11   O     O_R   0.229930 0.912420 0.917160 -0.539455
O12   O     O_R   0.559420 0.902500 0.088780 -0.539242
O13   O     O_R   0.729660 0.081330 0.089380 -0.537169
C33   C     C_R   0.390368 0.880794 0.117514 0.695382
O14   O     O_R   0.559650 0.901420 0.917750 -0.539331
O15   O     O_R   0.729880 0.080250 0.917130 -0.537188
C34   C     C_R   0.390539 0.879583 0.888706 0.696552
O16   O     O_R   0.229700 0.913500 0.089410 -0.539214
O17   O     O_3   0.396250 0.055540 0.003280 -0.371464
V3    V     V_3+5 0.671130 0.986010 0.003260 1.397009
O18   O     O_R   0.059600 0.091310 0.917720 -0.545181
C35   C     C_R   0.890906 0.113197 0.889559 0.741245
O19   O     O_R   0.059370 0.092380 0.088750 -0.544357
C36   C     C_R   0.890606 0.114546 0.117338 0.692736
V4    V     V_3+5 0.171120 0.007820 0.003230 1.388510
O20   O     O_3   0.896130 0.938240 0.003240 -0.369641

loop_
_geom_bond_atom_site_label_1
_geom_bond_atom_site_label_2
_ccdc_geom_bond_type
C27   H17   S    
C11   C12   A    
C16   H9    S    
C19   H11   S    
O15   V3    S    
V4    O20   S    
C23   H13   S    
O18   C35   A    
C10   C11   A    
O5    C3    A    
O14   V3    S    
C28   C29   A    
V2    O10   S    
C15   H8    S    
O13   V3    S    
C21   C34   S    
C31   H19   S    
O15   C35   A    
C15   H7    S    
C22   C23   S    
O8    V2    S    
C24   H15   S    
C23   C24   S    
C33   O16   A    
O11   C34   A    
O7    V1    S    
C1    O6    A    
C9    C16   S    
C9    C14   A    
C29   C30   A    
C16   H10   S    
C7    C8    D    
C19   C20   A    
C25   C30   A    
C15   C16   S    
C23   H14   S    
C32   H22   S    
C1    C18   S    
V3    O20   S    
C17   C18   A    
O19   V4    S    
O17   V4    S    
C9    C10   A    
C25   C26   A    
C10   C36   S    
C30   C31   S    
C31   H20   S    
O2    C1    A    
O17   V3    S    
C12   H6    S    
C25   C32   S    
C13   C14   A    
O18   V4    S    
C6    C35   S    
C5    C6    D    
C27   C28   A    
C20   C21   A    
O3    C4    A    
C17   C22   A    
O1    V2    S    
C18   C19   A    
O11   V4    S    
O6    V2    S    
C7    H3    S    
C3    C13   S    
C8    H4    S    
O16   V4    S    
O2    V1    S    
O4    C2    A    
C26   C27   A    
C32   H21   S    
O1    C2    A    
O5    V1    S    
O8    C3    A    
O12   V3    S    
C14   C15   S    
C4    C8    S    
O9    V2    S    
O7    V2    S    
O4    V1    S    
C12   C13   A    
O3    V1    S    
V1    O10   S    
C28   H18   S    
C20   H12   S    
C5    H1    S    
C6    H2    S    
C31   C32   S    
C5    C7    S    
C29   C33   S    
O19   C36   A    
C21   C22   A    
C24   H16   S    
O12   C33   A    
O14   C34   A    
C11   H5    S    
O13   C36   A    
C2    C26   S    
O9    C4    A    
C17   C24   S    
