data_mof_unit_15277.cif
_audit_creation_date              2013-03-05T15:49:44-0500
_audit_creation_method            fapswitch 2.2
_symmetry_space_group_name_H-M    P1
_symmetry_Int_Tables_number       1
_space_group_crystal_system       triclinic
_cell_length_a                    13.446968
_cell_length_b                    13.485217
_cell_length_c                    27.578529
_cell_angle_alpha                 90.474709
_cell_angle_beta                  89.899382
_cell_angle_gamma                 60.266606
_cell_volume                      4342.29875372

loop_
_atom_site_label
_atom_site_type_symbol
_atom_site_description
_atom_site_fract_x
_atom_site_fract_y
_atom_site_fract_z
_atom_type_partial_charge
O1    O     O_R   0.301780 0.195490 0.553940 -0.504882
O2    O     O_R   0.522450 0.158840 0.550250 -0.495048
C1    C     C_R   0.620325 0.101020 0.569925 0.538618
O3    O     O_R   0.694460 0.003360 0.553820 -0.511650
O4    O     O_R   0.657750 0.819520 0.549120 -0.490368
C2    C     C_R   0.570883 0.830064 0.574154 0.559180
O5    O     O_R   0.501990 0.803120 0.552700 -0.499108
O6    O     O_R   0.318230 0.023430 0.549370 -0.507628
C3    C     C_R   0.277582 0.121527 0.569341 0.538734
O7    O     O_R   0.302950 0.194150 0.446980 -0.517675
O8    O     O_R   0.523540 0.157600 0.451100 -0.502121
C4    C     C_R   0.622099 0.100193 0.431555 0.543877
O9    O     O_R   0.695630 0.002030 0.446860 -0.520675
O10   O     O_R   0.658840 0.818280 0.449970 -0.500317
C5    C     C_R   0.602051 0.776723 0.430459 0.552355
O11   O     O_R   0.503160 0.801780 0.445740 -0.517436
O12   O     O_R   0.319320 0.022190 0.450230 -0.503996
C6    C     C_R   0.279019 0.119967 0.430987 0.544063
Cr1   Cr    Cr6+3 0.417550 0.169090 0.500530 1.019037
Cr2   Cr    Cr6+3 0.669180 0.913420 0.499920 1.022512
Cr3   Cr    Cr6+3 0.413260 0.917540 0.499520 1.022941
O13   O     O_3   0.499990 0.000010 0.499990 -0.265961
C7    C     C_3   0.742355 0.654126 0.739285 -0.099343
C8    C     C_3   0.725842 0.738021 0.781342 -0.101813
H1    H     H_    0.792965 0.754316 0.796411 0.114570
H2    H     H_    0.822976 0.601440 0.718602 0.112003
H3    H     H_    0.584071 0.920703 0.753761 0.097612
C9    C     C_1   0.692666 0.618335 0.900914 -0.007055
C10   C     C_1   0.593755 0.797261 0.623889 -0.008781
C11   C     C_3   0.676360 0.607566 0.768600 -0.106266
C12   C     C_3   0.659536 0.691896 0.809906 0.045583
C13   C     C_3   0.562170 0.698568 0.746191 -0.077755
C14   C     C_3   0.628396 0.744659 0.717570 0.045107
C15   C     C_3   0.545510 0.782439 0.788200 -0.082309
C16   C     C_3   0.611435 0.829206 0.758744 -0.116448
C17   C     C_1   0.677374 0.655994 0.860518 -0.045894
C18   C     C_1   0.610334 0.772941 0.666111 -0.053280
H4    H     H_    0.465030 0.835196 0.808944 0.164330
H5    H     H_    0.494883 0.682462 0.731161 0.149898
H6    H     H_    0.703299 0.515911 0.773196 0.103569
C19   C     C_3   0.094236 0.127417 0.737680 -0.091564
C20   C     C_3   0.187549 0.058383 0.775046 0.255353
H7    H     H_    0.036119 0.101303 0.720426 0.120285
H8    H     H_    0.364641 0.013869 0.738908 0.110142
C21   C     C_1   0.099286 0.199400 0.900614 0.011871
C22   C     C_1   0.229835 0.136969 0.617074 -0.009936
C23   C     C_3   0.057176 0.236349 0.769319 -0.145272
C24   C     C_3   0.151040 0.164708 0.806444 0.040105
C25   C     C_3   0.143888 0.260425 0.742092 -0.111740
C26   C     C_3   0.180878 0.151714 0.711378 0.022380
C27   C     C_3   0.237437 0.188725 0.779685 -0.145322
C28   C     C_3   0.275339 0.079592 0.748112 -0.103717
C29   C     C_1   0.128000 0.179177 0.858685 -0.002365
C30   C     C_1   0.202465 0.145104 0.659124 -0.044181
H9    H     H_    0.296193 0.213763 0.797121 0.113843
H10   H     H_    0.125255 0.344608 0.727807 0.122280
H11   H     H_    0.967457 0.301364 0.778425 0.106740
C31   C     C_3   0.635835 0.274793 0.738452 -0.101266
C32   C     C_3   0.557541 0.262347 0.776403 -0.098261
H12   H     H_    0.475286 0.332603 0.790840 0.117193
H13   H     H_    0.618433 0.355326 0.720643 0.110100
H14   H     H_    0.502850 0.136432 0.740366 0.100535
C33   C     C_1   0.691919 0.207031 0.901278 -0.006037
C34   C     C_1   0.635705 0.133008 0.617847 -0.012292
C35   C     C_3   0.742006 0.198639 0.769723 -0.097944
C36   C     C_3   0.663543 0.185917 0.806829 0.051908
C37   C     C_3   0.757348 0.090720 0.742786 -0.092844
C38   C     C_3   0.651409 0.167022 0.712283 0.048558
C39   C     C_3   0.679149 0.078234 0.780626 -0.100166
C40   C     C_3   0.572922 0.154320 0.749386 -0.107088
C41   C     C_1   0.675108 0.196373 0.859158 -0.048203
C42   C     C_1   0.644216 0.151943 0.659968 -0.054086
H15   H     H_    0.697034 0.997798 0.798646 0.108374
H16   H     H_    0.839671 0.020391 0.728428 0.124040
H17   H     H_    0.811928 0.216801 0.778687 0.107318
C43   C     C_R   0.640051 0.722413 0.382985 0.023314
C44   C     C_R   0.723259 0.736231 0.357889 -0.126221
C45   C     C_R   0.736022 0.718244 0.308305 -0.123514
C46   C     C_R   0.668531 0.682538 0.283341 0.037652
C47   C     C_R   0.593772 0.657354 0.309159 -0.121144
C48   C     C_R   0.578868 0.678105 0.358794 -0.129851
C49   C     C_R   0.575883 0.704219 0.203166 -0.121819
C50   C     C_R   0.584732 0.681458 0.153665 -0.129990
C51   C     C_R   0.789461 0.610461 0.157444 -0.126579
C52   C     C_R   0.781034 0.630586 0.206925 -0.123961
C53   C     C_R   0.674953 0.673416 0.230414 0.036389
C54   C     C_R   0.692506 0.629440 0.131063 0.023717
H18   H     H_    0.771814 0.770380 0.375641 0.132894
H19   H     H_    0.492418 0.741537 0.220408 0.102075
H20   H     H_    0.508747 0.697913 0.133768 0.126328
H21   H     H_    0.794115 0.738510 0.289298 0.098927
H22   H     H_    0.858801 0.605901 0.227053 0.100302
H23   H     H_    0.873844 0.570278 0.140888 0.134201
H24   H     H_    0.544013 0.625483 0.290755 0.099633
H25   H     H_    0.515084 0.665807 0.377611 0.124927
C55   C     C_R   0.225323 0.137342 0.383505 0.024152
C56   C     C_R   0.247565 0.041498 0.355142 -0.126463
C57   C     C_R   0.223596 0.053189 0.305977 -0.122267
C58   C     C_R   0.174651 0.161190 0.284639 0.036608
C59   C     C_R   0.144279 0.258161 0.313748 -0.118683
C60   C     C_R   0.170271 0.246214 0.362881 -0.126603
C61   C     C_R   0.175422 0.250849 0.206032 -0.120387
C62   C     C_R   0.148027 0.268738 0.157083 -0.129098
C63   C     C_R   0.093258 0.122301 0.158715 -0.125098
C64   C     C_R   0.118700 0.105899 0.207665 -0.122182
C65   C     C_R   0.156824 0.172295 0.232032 0.036503
C66   C     C_R   0.103075 0.207207 0.133543 0.023425
H26   H     H_    0.291220 0.956252 0.370035 0.133970
H27   H     H_    0.208206 0.300556 0.223822 0.103153
H28   H     H_    0.156974 0.334178 0.138334 0.125902
H29   H     H_    0.248561 0.976947 0.284334 0.100300
H30   H     H_    0.103032 0.045194 0.226859 0.100999
H31   H     H_    0.058374 0.073718 0.141564 0.134268
H32   H     H_    0.103139 0.342813 0.298306 0.102982
H33   H     H_    0.152015 0.321261 0.384210 0.124822
C67   C     C_R   0.641491 0.139533 0.385067 0.023100
C68   C     C_R   0.549029 0.231575 0.362039 -0.124462
C69   C     C_R   0.556286 0.251733 0.313302 -0.121328
C70   C     C_R   0.656810 0.181611 0.287091 0.036976
C71   C     C_R   0.752805 0.096244 0.311150 -0.120094
C72   C     C_R   0.745040 0.074884 0.359851 -0.128524
C73   C     C_R   0.716540 0.097537 0.204325 -0.119282
C74   C     C_R   0.728320 0.109723 0.155020 -0.126956
C75   C     C_R   0.617691 0.315819 0.164619 -0.126945
C76   C     C_R   0.607612 0.303680 0.214015 -0.122491
C77   C     C_R   0.659980 0.194537 0.234441 0.035508
C78   C     C_R   0.682168 0.219014 0.135223 0.024343
H34   H     H_    0.468019 0.283176 0.380609 0.132259
H35   H     H_    0.754337 0.012354 0.219104 0.104928
H36   H     H_    0.777988 0.034054 0.132828 0.124544
H37   H     H_    0.481055 0.318049 0.295611 0.100216
H38   H     H_    0.563822 0.379806 0.236484 0.101737
H39   H     H_    0.582484 0.401202 0.150253 0.134687
H40   H     H_    0.832575 0.043526 0.291904 0.101823
H41   H     H_    0.817862 0.004174 0.376945 0.125433
O14   O     O_R   0.819250 0.149410 0.965240 -0.498529
O15   O     O_R   0.006940 0.180310 0.968270 -0.482420
C79   C     C_R   0.050300 0.234765 0.948079 0.545082
O16   O     O_R   0.028420 0.332670 0.963010 -0.510779
O17   O     O_R   0.810130 0.520390 0.966030 -0.496024
C80   C     C_R   0.711651 0.562912 0.946732 0.548130
O18   O     O_R   0.636050 0.541380 0.962520 -0.499095
O19   O     O_R   0.666480 0.323610 0.968170 -0.494344
C81   C     C_R   0.722684 0.224195 0.949070 0.545043
O20   O     O_R   0.817280 0.156800 0.072180 -0.519807
O21   O     O_R   0.005110 0.187160 0.067410 -0.504221
C82   C     C_R   0.047765 0.243783 0.086376 0.542332
O22   O     O_R   0.026450 0.340060 0.069950 -0.521640
O23   O     O_R   0.808300 0.527240 0.065170 -0.506079
C83   C     C_R   0.709239 0.572427 0.084247 0.541105
O24   O     O_R   0.634070 0.548770 0.069460 -0.520595
O25   O     O_R   0.664650 0.330470 0.067300 -0.504308
C84   C     C_R   0.719693 0.233403 0.087461 0.539375
Cr4   Cr    Cr6+3 0.909770 0.175810 0.018240 1.037910
Cr5   Cr    Cr6+3 0.913300 0.427650 0.016090 1.024202
Cr6   Cr    Cr6+3 0.657770 0.431010 0.016900 1.030613
O26   O     O_3   0.826940 0.344820 0.017080 -0.249031
N1    N     N_R   0.212786 0.946549 0.792319 0.066484
O27   O     O_R   0.244373 0.862260 0.761673 -0.359818
O28   O     O_R   0.205078 0.929890 0.838216 -0.339563

loop_
_geom_bond_atom_site_label_1
_geom_bond_atom_site_label_2
_geom_bond_distance
_ccdc_geom_bond_type
C50   C54   1.400736 A    
O11   Cr3   2.044875 S    
Cr5   O26   1.970791 S    
C6    C55   1.459987 S    
C19   C20   1.537782 S    
C82   O22   1.270459 A    
C51   C54   1.403570 A    
C78   C84   1.458193 S    
C56   C57   1.386303 A    
C23   C25   1.550893 S    
O4    Cr2   1.920656 S    
C44   C45   1.382250 A    
C4    O9    1.273004 A    
O8    Cr1   1.919452 S    
C26   C30   1.462775 S    
C49   H19   1.083021 S    
C75   H39   1.083682 S    
C62   H28   1.083160 S    
Cr3   O13   1.970663 S    
Cr6   O26   1.975660 S    
C32   C36   1.536044 S    
C52   C53   1.400481 A    
C11   C12   1.537707 S    
C48   H25   1.083241 S    
C7    H2    1.110174 S    
C36   C39   1.534513 S    
C35   C37   1.547925 S    
O19   C81   1.275860 A    
C57   C58   1.401929 A    
O14   Cr4   2.042617 S    
C67   C68   1.405307 A    
H14   C40   1.110498 S    
C15   C16   1.550490 S    
C13   H5    1.110135 S    
C50   H20   1.083263 S    
C69   C70   1.400449 A    
C21   C79   1.431727 S    
C69   H37   1.082933 S    
C61   C62   1.391116 A    
C56   H26   1.083553 S    
C80   O18   1.265201 A    
C51   C52   1.382567 A    
C24   C27   1.540594 S    
O25   Cr6   1.919898 S    
C44   H18   1.083372 S    
O6    C3    1.273474 A    
C7    C14   1.535248 S    
C54   C83   1.455904 S    
C26   C28   1.543076 S    
C33   C81   1.433102 S    
C39   H15   1.109943 S    
O22   Cr5   2.042273 S    
C73   H35   1.083200 S    
C71   H40   1.083077 S    
C38   C42   1.465413 S    
O20   C84   1.270011 A    
H8    C28   1.109712 S    
C31   H13   1.110198 S    
C5    C43   1.456780 S    
C21   C29   1.203879 T    
C3    C22   1.431210 S    
C15   H4    1.109951 S    
C55   C60   1.401535 A    
N1    O28   1.300265 A    
C19   H7    1.110258 S    
C20   N1    1.456469 S    
C76   C77   1.402328 A    
C63   C64   1.385598 A    
C52   H22   1.082743 S    
O6    Cr3   1.926998 S    
C63   H31   1.083275 S    
O17   C80   1.272793 A    
C24   C29   1.464115 S    
O1    Cr1   2.037983 S    
C8    C16   1.551391 S    
C67   C72   1.401765 A    
C11   H6    1.110669 S    
C37   C38   1.536342 S    
C7    C11   1.547262 S    
O10   Cr2   1.926488 S    
Cr1   O13   1.979914 S    
C59   H32   1.083059 S    
C8    H1    1.110056 S    
Cr4   O26   1.979735 S    
C45   C46   1.399879 A    
O17   Cr5   1.925889 S    
C25   C27   1.551425 S    
C31   C32   1.551242 S    
C49   C53   1.404200 A    
C72   H41   1.083159 S    
C27   C28   1.554659 S    
C37   C39   1.548496 S    
C13   C15   1.548461 S    
C73   C77   1.404361 A    
C36   C41   1.464897 S    
C23   H11   1.110560 S    
C66   C82   1.462422 S    
C31   C35   1.549629 S    
C74   C78   1.400937 A    
C23   C24   1.544710 S    
O21   Cr4   1.924367 S    
O16   Cr5   2.043041 S    
O7    Cr1   2.041979 S    
C7    C8    1.550066 S    
C55   C56   1.403853 A    
C22   C30   1.203611 T    
O12   C6    1.271885 A    
C19   C23   1.555199 S    
C12   C15   1.535725 S    
O1    C3    1.268677 A    
C37   H16   1.110192 S    
C20   C24   1.525240 S    
O24   Cr6   2.045170 S    
C43   C44   1.404232 A    
C75   C78   1.403709 A    
O20   Cr4   2.035073 S    
C31   C38   1.535252 S    
C64   H30   1.082864 S    
Cr2   O13   1.975940 S    
C49   C50   1.388643 A    
C74   H36   1.083548 S    
N1    O27   1.300240 A    
C60   H33   1.083360 S    
C35   C36   1.538993 S    
C47   H24   1.082997 S    
C1    O3    1.269624 A    
C19   C26   1.539648 S    
C71   C72   1.390514 A    
C14   C18   1.461766 S    
O21   C82   1.270630 A    
O15   C79   1.272647 A    
C58   C65   1.467627 S    
C57   H29   1.082960 S    
O9    Cr2   2.035768 S    
O2    Cr1   1.924993 S    
O10   C5    1.267952 A    
C33   C41   1.204773 T    
C47   C48   1.389002 A    
C43   C48   1.400668 A    
C70   C71   1.404785 A    
C2    O5    1.293276 A    
C45   H21   1.082781 S    
C25   H10   1.110105 S    
C64   C65   1.400935 A    
C35   H17   1.110585 S    
C58   C59   1.404629 A    
H3    C16   1.108755 S    
C13   C14   1.535295 S    
O2    C1    1.275211 A    
O23   Cr5   1.926535 S    
C8    C12   1.535641 S    
O14   C81   1.269874 A    
O5    Cr3   2.042765 S    
O23   C83   1.268701 A    
C11   C13   1.546759 S    
C76   H38   1.083118 S    
O19   Cr6   1.927781 S    
O4    C2    1.300802 A    
O7    C6    1.269392 A    
C46   C53   1.462582 S    
C59   C60   1.390525 A    
C14   C16   1.536556 S    
O15   Cr4   1.919339 S    
C61   C65   1.404853 A    
C27   H9    1.110265 S    
C51   H23   1.083428 S    
C34   C42   1.205099 T    
C1    C34   1.433698 S    
C39   C40   1.549400 S    
C68   H34   1.083226 S    
O12   Cr3   1.924736 S    
C79   O16   1.266683 A    
C32   C40   1.550065 S    
C46   C47   1.404653 A    
O3    Cr2   2.043793 S    
C70   C77   1.466938 S    
C32   H12   1.110075 S    
C2    C10   1.431162 S    
O25   C84   1.273914 A    
C9    C17   1.203279 T    
C38   C40   1.539041 S    
C25   C26   1.539030 S    
C10   C18   1.203267 T    
C12   C17   1.461998 S    
C75   C76   1.387792 A    
C61   H27   1.082971 S    
C62   C66   1.401901 A    
C9    C80   1.431061 S    
O18   Cr6   2.038878 S    
C73   C74   1.389177 A    
C68   C69   1.386314 A    
C63   C66   1.404677 A    
C5    O11   1.268880 A    
O8    C4    1.272473 A    
C20   C28   1.537035 S    
C83   O24   1.268435 A    
C4    C67   1.463019 S    
