data_mof_unit_68135.cif
_audit_creation_date              2013-03-05T15:58:28-0500
_audit_creation_method            fapswitch 2.2
_symmetry_space_group_name_H-M    P1
_symmetry_Int_Tables_number       1
_space_group_crystal_system       triclinic
_cell_length_a                    7.649521
_cell_length_b                    14.992347
_cell_length_c                    16.119618
_cell_angle_alpha                 89.998135
_cell_angle_beta                  89.998023
_cell_angle_gamma                 90.007511
_cell_volume                      1848.66665688

loop_
_atom_site_label
_atom_site_type_symbol
_atom_site_description
_atom_site_fract_x
_atom_site_fract_y
_atom_site_fract_z
_atom_type_partial_charge
O1    O     O_R   0.388780 0.834790 0.412340 -0.522894
O2    O     O_R   0.111220 0.165210 0.912340 -0.522895
O3    O     O_R   0.888780 0.665210 0.587660 -0.522860
O4    O     O_R   0.611220 0.334790 0.087660 -0.522874
O5    O     O_R   0.059040 0.845930 0.587040 -0.536193
O6    O     O_R   0.440960 0.154070 0.087040 -0.536180
O7    O     O_R   0.559040 0.654070 0.412960 -0.536141
O8    O     O_R   0.940960 0.345930 0.912960 -0.536183
C1    C     C_R   0.229437 0.869850 0.611754 0.928405
C2    C     C_R   0.270558 0.130137 0.111744 0.928530
C3    C     C_R   0.729427 0.630173 0.388221 0.928486
C4    C     C_R   0.770573 0.369835 0.888230 0.928601
O9    O     O_R   0.059070 0.845930 0.412970 -0.578739
O10   O     O_R   0.440930 0.154070 0.912970 -0.578688
O11   O     O_R   0.559070 0.654070 0.587030 -0.578675
O12   O     O_R   0.940930 0.345930 0.087030 -0.578674
O13   O     O_R   0.888760 0.665210 0.412340 -0.584660
O14   O     O_R   0.611240 0.334790 0.912340 -0.584642
O15   O     O_R   0.388760 0.834790 0.587660 -0.584658
O16   O     O_R   0.111240 0.165210 0.087660 -0.584632
C5    C     C_R   0.225036 0.867044 0.385314 0.996765
C6    C     C_R   0.274971 0.132986 0.885285 0.996475
C7    C     C_R   0.725016 0.632988 0.614718 0.996457
C8    C     C_R   0.774983 0.367009 0.114720 0.996448
O17   O     O_3   0.222280 0.690700 0.500000 -0.274188
O18   O     O_3   0.277720 0.309300 0.000000 -0.274207
O19   O     O_3   0.722280 0.809300 0.500000 -0.274241
O20   O     O_3   0.777720 0.190700 0.000000 -0.274221
V1    V     V_3+5 0.947430 0.761000 0.500000 1.311434
V2    V     V_3+5 0.552570 0.239000 0.000000 1.311457
V3    V     V_3+5 0.447430 0.739000 0.500000 1.311535
V4    V     V_3+5 0.052570 0.261000 0.000000 1.311499
C9    C     C_3   0.850615 0.595904 0.759276 0.807562
C10   C     C_3   0.649374 0.404106 0.259280 0.807559
C11   C     C_3   0.350601 0.904081 0.240776 0.808097
C12   C     C_3   0.149395 0.095920 0.740718 0.807634
C13   C     C_3   0.876053 0.521941 0.827190 -0.129044
C14   C     C_3   0.623919 0.478079 0.327183 -0.128982
C15   C     C_3   0.375971 0.977999 0.172776 -0.129546
C16   C     C_3   0.123984 0.021972 0.672776 -0.129171
H1    H     H_    0.847510 0.550342 0.887604 0.170942
H2    H     H_    0.652418 0.449685 0.387610 0.170940
H3    H     H_    0.347406 0.949599 0.112372 0.170556
H4    H     H_    0.152557 0.050383 0.612367 0.170891
H5    H     H_    0.912444 0.476884 0.631082 0.163131
H6    H     H_    0.587584 0.523109 0.131081 0.163130
H7    H     H_    0.412593 0.023171 0.368895 0.163149
H8    H     H_    0.087420 0.976885 0.868877 0.163175
C17   C     C_3   0.780401 0.467710 0.658278 0.018161
C18   C     C_3   0.719632 0.532288 0.158267 0.018097
C19   C     C_3   0.280541 0.032332 0.341714 0.018173
C20   C     C_3   0.219476 0.967714 0.841699 0.018112
C21   C     C_3   0.543707 0.550412 0.734556 0.064228
C22   C     C_3   0.956295 0.449587 0.234550 0.064279
C23   C     C_3   0.043731 0.949611 0.265514 0.064266
C24   C     C_3   0.456276 0.050420 0.765462 0.064265
C25   C     C_3   0.724126 0.562855 0.688298 -0.337200
C26   C     C_3   0.775880 0.437144 0.188296 -0.337217
C27   C     C_3   0.224183 0.937182 0.311745 -0.337393
C28   C     C_3   0.275837 0.062858 0.811701 -0.337155
H9    H     H_    0.498035 0.616874 0.755665 0.193919
H10   H     H_    0.001968 0.383124 0.255659 0.193921
H11   H     H_    0.997989 0.883135 0.244465 0.193750
H12   H     H_    0.501993 0.116889 0.744375 0.193843
C29   C     C_3   0.752180 0.441849 0.817009 -0.348115
C30   C     C_3   0.747819 0.558161 0.316996 -0.348352
C31   C     C_3   0.252172 0.058113 0.182967 -0.347713
C32   C     C_3   0.247818 0.941874 0.682970 -0.347983
C33   C     C_3   0.784164 0.397654 0.730912 0.529842
C34   C     C_3   0.715909 0.602356 0.230885 0.530069
C35   C     C_3   0.284284 0.102344 0.269045 0.529890
C36   C     C_3   0.215737 0.897670 0.769061 0.529911
C37   C     C_3   0.564815 0.487360 0.813127 -0.002843
C38   C     C_3   0.935171 0.512636 0.313121 -0.002813
C39   C     C_3   0.064799 0.012592 0.186897 -0.003584
C40   C     C_3   0.435190 0.987394 0.686877 -0.003038
H13   H     H_    0.464336 0.434252 0.809966 0.225970
H14   H     H_    0.035644 0.565745 0.309957 0.225971
H15   H     H_    0.964319 0.065689 0.190021 0.226093
H16   H     H_    0.535659 0.934293 0.690029 0.225974
O21   O     O_3   0.012235 0.620599 0.725487 -0.708984
H17   H     H_    0.078842 0.653769 0.768220 0.346337
O22   O     O_3   0.487761 0.379403 0.225493 -0.709006
H18   H     H_    0.421144 0.346245 0.268235 0.346325
O23   O     O_3   0.512277 0.879489 0.274532 -0.708711
H19   H     H_    0.578774 0.846271 0.231796 0.346693
O24   O     O_3   0.987757 0.120575 0.774496 -0.708957
H20   H     H_    0.921172 0.153742 0.731758 0.346397
I1    I     I_    0.636407 0.408924 0.555838 -0.161202
I2    I     I_    0.863598 0.591068 0.055811 -0.161219
I3    I     I_    0.136627 0.091174 0.444142 -0.161239
I4    I     I_    0.363349 0.908922 0.944151 -0.161419
O25   O     O_3   0.655683 0.331271 0.719209 -0.674583
H21   H     H_    0.688458 0.278448 0.752791 0.321526
O26   O     O_3   0.844459 0.668705 0.219178 -0.674538
H22   H     H_    0.811819 0.721503 0.252827 0.321518
O27   O     O_3   0.155876 0.168747 0.280754 -0.674574
H23   H     H_    0.188618 0.221536 0.247108 0.321490
O28   O     O_3   0.344158 0.831278 0.780787 -0.674549
H24   H     H_    0.311438 0.778483 0.747147 0.321493
O29   O     O_3   0.771696 0.671238 0.795873 -0.738733
H25   H     H_    0.828902 0.683869 0.849866 0.358418
O30   O     O_3   0.728284 0.328780 0.295896 -0.738686
H26   H     H_    0.671031 0.316146 0.349886 0.358390
O31   O     O_3   0.271620 0.828606 0.204428 -0.738654
H27   H     H_    0.327356 0.816269 0.149944 0.358331
O32   O     O_3   0.228347 0.171294 0.704183 -0.738675
H28   H     H_    0.171432 0.183873 0.650095 0.358406
I5    I     I_    0.128229 0.500343 0.867388 -0.235677
I6    I     I_    0.371691 0.499744 0.367295 -0.235687
I7    I     I_    0.628143 0.999608 0.132512 -0.235352
I8    I     I_    0.871827 0.000369 0.632528 -0.235617
I9    I     I_    0.032162 0.335965 0.720594 -0.222993
I10   I     I_    0.468027 0.664122 0.220465 -0.222549
I11   I     I_    0.532355 0.164018 0.279260 -0.223021
I12   I     I_    0.967684 0.835992 0.779316 -0.223030
I13   I     I_    0.318754 0.517804 0.659823 -0.152270
I14   I     I_    0.181252 0.482216 0.159809 -0.152211
I15   I     I_    0.818812 0.982273 0.340236 -0.152185
I16   I     I_    0.681190 0.017778 0.840195 -0.152202
I17   I     I_    0.514524 0.567767 0.925128 -0.228197
I18   I     I_    0.985459 0.432226 0.425121 -0.228208
I19   I     I_    0.014441 0.932003 0.075005 -0.228942
I20   I     I_    0.485542 0.067873 0.574917 -0.228455

loop_
_geom_bond_atom_site_label_1
_geom_bond_atom_site_label_2
_geom_bond_distance
_ccdc_geom_bond_type
O17   V3    1.868240 S    
O24   H20   0.990639 S    
O1    C5    1.411633 A    
O25   H21   0.991509 S    
C24   C40   1.588585 S    
C23   C27   1.579766 S    
O19   V1    1.868414 S    
O13   V1    2.064113 S    
O31   H27   0.993647 S    
O3    C7    1.411629 A    
O26   H22   0.991570 S    
O15   V3    2.064172 S    
O27   H23   0.991553 S    
C29   C37   1.588688 S    
C16   I8    2.060663 S    
C23   I15   2.156595 S    
O23   H19   0.990645 S    
C34   I10   2.117007 S    
O7    C3    1.409356 A    
C35   O27   1.411312 S    
C33   I9    2.117151 S    
O29   H25   0.992406 S    
C9    O29   1.410062 S    
O2    V4    2.064141 S    
O9    V1    2.078032 S    
C5    C27   1.584948 S    
H8    C20   1.109626 S    
C33   O25   1.411300 S    
C6    C28   1.585067 S    
O4    C8    1.411655 A    
C21   I13   2.156677 S    
C30   C38   1.588685 S    
O1    V3    2.064097 S    
C17   C25   1.566661 S    
C11   C27   1.578056 S    
O3    V1    2.063994 S    
C20   C28   1.566586 S    
C19   I3    2.171749 S    
C22   C38   1.588662 S    
C21   H9    1.109416 S    
C1    O15   1.382982 A    
C14   C30   1.538301 S    
C2    O16   1.382987 A    
C23   H11   1.109400 S    
O2    C6    1.411660 A    
O32   H28   0.992637 S    
C24   H12   1.109412 S    
O14   V2    2.064027 S    
C14   I6    2.060668 S    
C13   I5    2.060602 S    
C3    C30   1.582301 S    
C32   C36   1.557287 S    
C23   C39   1.588520 S    
O11   C7    1.382256 A    
O12   C8    1.382240 A    
C17   C33   1.573127 S    
C12   O32   1.410077 S    
C24   I16   2.156641 S    
C19   C35   1.573111 S    
O10   V2    2.078128 S    
C18   I2    2.171763 S    
O21   H17   0.990642 S    
O5    V1    2.078141 S    
C12   O24   1.400711 S    
O7    V3    2.078240 S    
C35   I11   2.117227 S    
O8    V4    2.078223 S    
C12   C16   1.570479 S    
C21   C25   1.579677 S    
O18   V4    1.868239 S    
H7    C19   1.109620 S    
C22   H10   1.109417 S    
C2    C31   1.582315 S    
C9    C13   1.570336 S    
C24   C28   1.579716 S    
C13   C29   1.538307 S    
C40   I20   2.204765 S    
C11   C15   1.570714 S    
O5    C1    1.409339 A    
C20   C36   1.573115 S    
O22   H18   0.990647 S    
H5    C17   1.109625 S    
O8    C4    1.409362 A    
C22   C26   1.579677 S    
C18   C26   1.566614 S    
O9    C5    1.382236 A    
C32   C40   1.588651 S    
C38   I18   2.204712 S    
C37   I17   2.204755 S    
C22   I14   2.156763 S    
C38   H14   1.107750 S    
C39   I19   2.204869 S    
C20   I4    2.171594 S    
C19   C27   1.566550 S    
C10   O22   1.400739 S    
O16   V4    2.064130 S    
C7    C25   1.585029 S    
C36   I12   2.117154 S    
C3    O13   1.382924 A    
C9    C25   1.578203 S    
O6    V2    2.078046 S    
C10   C14   1.570364 S    
C15   C31   1.538424 S    
C21   C37   1.588632 S    
C40   H16   1.107780 S    
C17   I1    2.171826 S    
C12   C28   1.578160 S    
O6    C2    1.409350 A    
C15   H3    1.084946 S    
O11   V3    2.078208 S    
O12   V4    2.078224 S    
C4    C29   1.582246 S    
H6    C18   1.109631 S    
C10   O30   1.410064 S    
O28   H24   0.991562 S    
O10   C6    1.382270 A    
O20   V2    1.868415 S    
C34   O26   1.411304 S    
C18   C34   1.573112 S    
C1    C32   1.582291 S    
C11   O23   1.400606 S    
C30   C34   1.557360 S    
C39   H15   1.107779 S    
C29   C33   1.557277 S    
C15   I7    2.060823 S    
C31   C35   1.557353 S    
C13   H1    1.085078 S    
C14   H2    1.085148 S    
C16   H4    1.085070 S    
C31   C39   1.588673 S    
C8    C26   1.585054 S    
C16   C32   1.538394 S    
C4    O14   1.382893 A    
O30   H26   0.992487 S    
C10   C26   1.578232 S    
C37   H13   1.107770 S    
C11   O31   1.410176 S    
C9    O21   1.400728 S    
O4    V2    2.064078 S    
C36   O28   1.411306 S    
