data_mof_unit_16773.cif
_audit_creation_date              2012-12-10T18:29:34-0500
_audit_creation_method            fapswitch 2.2
_symmetry_space_group_name_H-M    P1
_symmetry_Int_Tables_number       1
_space_group_crystal_system       triclinic
_cell_length_a                    11.554372
_cell_length_b                    15.026089
_cell_length_c                    15.547479
_cell_angle_alpha                 82.585784
_cell_angle_beta                  89.868138
_cell_angle_gamma                 104.563314
_cell_volume                      2589.03741085

loop_
_atom_site_label
_atom_site_type_symbol
_atom_type_description
_atom_site_fract_x
_atom_site_fract_y
_atom_site_fract_z
_atom_type_partial_charge
C1    C     C_R   0.481772 0.442168 0.662006 0.860644
C2    C     C_R   0.515696 0.557813 0.338083 0.867197
C3    C     C_R   0.516278 0.354344 0.930005 0.053036
C4    C     C_R   0.600786 0.650797 0.069601 0.044041
C5    C     C_R   0.549871 0.516468 0.954952 0.023425
C6    C     C_R   0.540898 0.488586 0.044261 0.024319
C7    C     C_R   0.535738 0.395268 0.075793 -0.209559
C8    C     C_R   0.597667 0.611199 0.923395 -0.217330
C9    C     C_R   0.528857 0.328934 0.019527 0.197559
C10   C     C_R   0.626341 0.679110 0.979896 0.211267
C11   C     C_R   0.691763 0.844473 0.627133 -0.301441
C12   C     C_R   0.322556 0.155509 0.366284 -0.288679
C13   C     C_R   0.656182 0.754672 0.607583 -0.002393
C14   C     C_R   0.346359 0.243111 0.391140 -0.005622
C15   C     C_R   0.510249 0.794068 0.513505 0.017929
C16   C     C_R   0.497035 0.209925 0.483780 -0.003536
C17   C     C_R   0.549845 0.888577 0.524187 0.015979
C18   C     C_R   0.471065 0.116981 0.467168 0.009882
C19   C     C_R   0.636608 0.911059 0.587097 0.107074
C20   C     C_R   0.386042 0.092791 0.403028 0.123413
C21   C     C_R   0.501919 0.959281 0.478864 -0.082549
C22   C     C_R   0.527753 0.049041 0.508603 -0.094062
C23   C     C_R   0.718069 0.501084 0.500200 0.898131
C24   C     C_R   0.281937 0.498922 0.499767 0.883206
C25   C     C_R   0.607834 0.066035 0.578822 0.466929
C26   C     C_R   0.429879 0.942939 0.404874 0.470008
C27   C     C_R   0.662891 0.997663 0.614070 -0.301590
C28   C     C_R   0.369505 0.008886 0.371275 -0.323855
C29   C     C_1   0.839234 0.502684 0.500645 -0.194674
C30   C     C_1   0.160766 0.497260 0.499340 -0.201506
C31   C     C_1   0.941040 0.501316 0.500352 -0.009169
C32   C     C_1   0.058930 0.498533 0.499662 -0.006821
C33   C     C_R   0.479019 0.408196 0.754590 -0.105470
C34   C     C_R   0.534485 0.592674 0.245736 -0.107644
C35   C     C_R   0.499452 0.289486 0.870484 -0.209612
C36   C     C_R   0.628859 0.713943 0.130553 -0.208387
C37   C     C_R   0.487096 0.317598 0.782796 -0.237722
C38   C     C_R   0.601017 0.683797 0.218376 -0.241607
C39   C     C_R   0.480107 0.469794 0.815516 0.153432
C40   C     C_R   0.497025 0.531662 0.184218 0.161851
C41   C     C_R   0.517578 0.447885 0.899377 0.033631
C42   C     C_R   0.547205 0.556143 0.099888 0.036671
H1    H     H_    0.630517 0.732097 0.264706 0.193756
H2    H     H_    0.482837 0.268156 0.737253 0.201211
H3    H     H_    0.497898 0.217543 0.890143 0.155181
H4    H     H_    0.676811 0.785606 0.111801 0.157171
H5    H     H_    0.546471 0.374532 0.143932 0.158806
H6    H     H_    0.618668 0.631013 0.854938 0.153270
H7    H     H_    0.720055 0.009589 0.668767 0.149281
H8    H     H_    0.313767 0.997804 0.315909 0.133944
H9    H     H_    0.568613 0.240597 0.521912 0.192835
H10   H     H_    0.433228 0.767196 0.477503 0.177396
H11   H     H_    0.297633 0.292257 0.364061 0.136459
H12   H     H_    0.699106 0.702561 0.636825 0.135853
H13   H     H_    0.761377 0.861731 0.673228 0.150901
H14   H     H_    0.256106 0.137254 0.318115 0.142601
N1    N     N_R   0.566020 0.731700 0.552730 -0.116772
N2    N     N_R   0.433980 0.268300 0.447270 -0.116084
O1    O     O_R   0.466720 0.383110 0.605620 -0.613551
O2    O     O_R   0.533280 0.616890 0.394380 -0.609350
O3    O     O_R   0.509090 0.531900 0.639510 -0.624277
O4    O     O_R   0.490910 0.468100 0.360490 -0.619148
O5    O     O_R   0.644370 0.425610 0.483050 -0.623957
O6    O     O_R   0.355630 0.574390 0.516950 -0.622611
O7    O     O_R   0.686740 0.574390 0.516930 -0.609995
O8    O     O_R   0.313260 0.425610 0.483070 -0.608607
Zn1   Zn    Zn3+2 0.471710 0.400660 0.477370 0.936973
Zn2   Zn    Zn3+2 0.528290 0.599340 0.522630 0.936404
N3    N     N_2   0.534231 0.237896 0.055125 -0.307259
H15   H     H_    0.577374 0.204172 0.016958 0.219913
C43   C     C_3   0.423748 0.180150 0.096485 -0.783810
H16   H     H_    0.438364 0.112895 0.126610 0.241239
H17   H     H_    0.353426 0.166622 0.047756 0.238647
H18   H     H_    0.393109 0.214208 0.148412 0.247510
N4    N     N_2   0.674585 0.775459 0.948085 -0.299975
H19   H     H_    0.631613 0.819623 0.972670 0.224305
C44   C     C_3   0.712341 0.803702 0.857736 -0.821779
H20   H     H_    0.756384 0.879170 0.847373 0.241302
H21   H     H_    0.633539 0.790637 0.816002 0.243601
H22   H     H_    0.778253 0.766306 0.839268 0.245223
O9    O     O_3   0.617801 0.141483 0.623655 -0.630537
C45   C     C_3   0.737331 0.197134 0.617346 0.058308
H23   H     H_    0.767376 0.220828 0.548150 0.139856
H24   H     H_    0.800494 0.159782 0.649526 0.147243
C46   C     C_3   0.744269 0.282151 0.662721 -0.820564
H25   H     H_    0.719430 0.260454 0.732735 0.255869
H26   H     H_    0.836860 0.327418 0.656228 0.213095
H27   H     H_    0.682433 0.322324 0.633464 0.260191
O10   O     O_3   0.435264 0.870433 0.358285 -0.621991
C47   C     C_3   0.321920 0.826421 0.328431 0.063352
H28   H     H_    0.302621 0.866443 0.267345 0.155945
H29   H     H_    0.248915 0.817912 0.378207 0.136107
C48   C     C_3   0.322978 0.730649 0.307000 -0.824503
H30   H     H_    0.339714 0.686133 0.365720 0.260770
H31   H     H_    0.235006 0.697087 0.282003 0.205766
H32   H     H_    0.393346 0.736868 0.256378 0.269618
N5    N     N_2   0.397227 0.452476 0.201659 -0.306799
H33   H     H_    0.411989 0.396276 0.241150 0.238189
C49   C     C_3   0.283281 0.472077 0.217479 -0.764501
H34   H     H_    0.210824 0.407220 0.219826 0.231802
H35   H     H_    0.265774 0.523380 0.164234 0.249919
H36   H     H_    0.281947 0.499462 0.280389 0.228970
N6    N     N_2   0.425742 0.545685 0.798581 -0.306398
H37   H     H_    0.472369 0.602735 0.757365 0.244476
C50   C     C_3   0.298092 0.520620 0.786609 -0.732894
H38   H     H_    0.263360 0.583335 0.784488 0.233603
H39   H     H_    0.251965 0.469087 0.841637 0.244416
H40   H     H_    0.277915 0.491308 0.724707 0.227691

loop_
_geom_bond_atom_site_label_1
_geom_bond_atom_site_label_2
_ccdc_geom_bond_type
C21   C26   A    
C4    C36   A    
C48   H30   S    
C16   H9    S    
N5    H33   S    
C1    C33   S    
C39   C41   A    
C44   H20   S    
C26   O10   S    
C50   H39   S    
C11   C19   A    
C33   C39   A    
O4    Zn1   S    
C34   C40   A    
O6    Zn2   S    
C35   C37   A    
C9    N3    S    
C1    O1    A    
C5    C6    A    
C2    O2    A    
C23   O5    A    
C44   H22   S    
C13   N1    A    
C7    C9    A    
N3    C43   S    
O1    Zn1   S    
C28   H8    S    
C31   C32   S    
C22   C25   A    
C49   H36   S    
C36   H4    S    
C19   C27   A    
C24   O8    A    
C2    C34   S    
C46   H26   S    
O8    Zn1   S    
C48   H31   S    
C34   C38   A    
C21   C22   A    
C25   O9    S    
C15   N1    A    
N5    C49   S    
O9    C45   S    
C24   C30   S    
C44   H21   S    
C14   N2    A    
C50   H40   S    
O5    Zn1   S    
C40   N5    S    
C43   H17   S    
C20   C28   A    
C46   H25   S    
C33   C37   A    
C7    H5    S    
N4    H19   S    
C8    H6    S    
C3    C9    A    
C5    C8    A    
C10   N4    S    
C47   H29   S    
C49   H34   S    
C3    C35   A    
O7    Zn2   S    
C12   C20   A    
N6    C50   S    
C16   N2    A    
C15   H10   S    
N4    C44   S    
C12   H14   S    
C16   C18   A    
C49   H35   S    
C12   C14   A    
C48   H32   S    
C45   H24   S    
N1    Zn2   S    
C4    C10   A    
C35   H3    S    
C23   C29   S    
C11   H13   S    
C47   C48   S    
C13   H12   S    
C46   H27   S    
C15   C17   A    
C5    C41   A    
C3    C41   A    
C18   C22   A    
C1    O3    A    
C43   H18   S    
C39   N6    S    
C6    C7    A    
C25   C27   A    
C45   C46   S    
C50   H38   S    
C26   C28   A    
C23   O7    A    
C37   H2    S    
C36   C38   A    
C38   H1    S    
C29   C31   T    
C30   C32   T    
C11   C13   A    
O3    Zn2   S    
C47   H28   S    
C4    C42   A    
C40   C42   A    
C17   C19   A    
C24   O6    A    
C18   C20   A    
N3    H15   S    
C17   C21   A    
C2    O4    A    
N2    Zn1   S    
C43   H16   S    
C14   H11   S    
O2    Zn2   S    
C8    C10   A    
C45   H23   S    
C6    C42   A    
N6    H37   S    
O10   C47   S    
C27   H7    S    
