data_mof_unit_57156.cif
_audit_creation_date              2012-12-11T15:29:46-0500
_audit_creation_method            fapswitch 2.2
_symmetry_space_group_name_H-M    P1
_symmetry_Int_Tables_number       1
_space_group_crystal_system       triclinic
_cell_length_a                    13.495042
_cell_length_b                    13.506558
_cell_length_c                    27.559588
_cell_angle_alpha                 90.519771
_cell_angle_beta                  89.793461
_cell_angle_gamma                 60.026334
_cell_volume                      4351.11368912

loop_
_atom_site_label
_atom_site_type_symbol
_atom_type_description
_atom_site_fract_x
_atom_site_fract_y
_atom_site_fract_z
_atom_type_partial_charge
C1    C     C_R   0.620687 0.101643 0.569592 0.555423
C2    C     C_1   0.652542 0.699408 0.657011 -0.038302
C3    C     C_3   0.100872 0.105505 0.736218 -0.135388
C4    C     C_R   0.599751 0.779059 0.568383 0.557254
C5    C     C_3   0.199220 0.063475 0.773714 -0.103965
C6    C     C_1   0.090713 0.203575 0.898702 -0.013839
C7    C     C_1   0.217901 0.142824 0.614682 0.009768
C8    C     C_3   0.030267 0.217667 0.766428 -0.147401
C9    C     C_3   0.129231 0.175242 0.803111 0.037348
C10   C     C_3   0.084448 0.276665 0.736873 -0.113531
C11   C     C_3   0.155041 0.164393 0.707679 0.034506
C12   C     C_1   0.632452 0.729147 0.615421 0.002186
C13   C     C_3   0.182250 0.232642 0.773708 0.189955
C14   C     C_3   0.253438 0.122073 0.744421 0.139025
C15   C     C_1   0.112674 0.186549 0.855947 -0.051541
C16   C     C_R   0.275684 0.122576 0.568779 0.553315
C17   C     C_1   0.181875 0.155041 0.655670 -0.025570
C18   C     C_3   0.755066 0.185863 0.735389 -0.097628
C19   C     C_3   0.661208 0.281033 0.768262 -0.135005
C20   C     C_1   0.696395 0.208982 0.900243 -0.016382
C21   C     C_1   0.638569 0.135945 0.616585 0.003517
C22   C     C_3   0.766057 0.096921 0.772617 0.171130
C23   C     C_3   0.616154 0.612127 0.770086 -0.107919
C24   C     C_3   0.674524 0.189949 0.805101 0.043690
C25   C     C_3   0.675444 0.079350 0.746738 -0.052102
C26   C     C_3   0.661569 0.171072 0.710137 0.039214
C27   C     C_3   0.581724 0.174945 0.779456 -0.109452
C28   C     C_R   0.622234 0.100278 0.431629 0.541274
C29   C     C_3   0.567714 0.266159 0.742001 -0.106681
C30   C     C_1   0.683190 0.199617 0.857640 -0.057590
C31   C     C_1   0.650620 0.155932 0.658142 -0.036363
C32   C     C_R   0.638792 0.727611 0.381738 0.034180
C33   C     C_R   0.702741 0.764660 0.354719 -0.148306
C34   C     C_3   0.685751 0.646000 0.803380 0.044337
C35   C     C_R   0.714204 0.748499 0.305097 -0.135309
C36   C     C_R   0.664047 0.692955 0.281615 0.011009
C37   C     C_R   0.609041 0.646433 0.308616 -0.097463
C38   C     C_R   0.596035 0.663240 0.358698 0.082508
C39   C     C_R   0.572539 0.702305 0.202864 -0.123542
C40   C     C_R   0.602171 0.776819 0.430347 0.560655
C41   C     C_R   0.581889 0.677914 0.153532 -0.129442
C42   C     C_R   0.781474 0.628208 0.155069 -0.127699
C43   C     C_R   0.772261 0.651779 0.204408 -0.120772
C44   C     C_R   0.669264 0.683625 0.228849 0.036597
C45   C     C_3   0.567054 0.728930 0.744911 -0.076186
C46   C     C_R   0.688233 0.634393 0.130031 0.023097
C47   C     C_R   0.226010 0.137234 0.383425 0.023389
C48   C     C_R   0.248599 0.041234 0.355040 -0.123474
C49   C     C_R   0.224782 0.052746 0.305849 -0.120986
C50   C     C_R   0.175720 0.160711 0.284494 0.034637
C51   C     C_R   0.145189 0.257831 0.313611 -0.116081
C52   C     C_R   0.279270 0.119962 0.430968 0.537142
C53   C     C_R   0.170972 0.246071 0.362771 -0.122818
C54   C     C_R   0.176259 0.249909 0.205748 -0.119490
C55   C     C_R   0.148515 0.267920 0.156830 -0.127414
C56   C     C_3   0.668452 0.675594 0.708989 0.059278
C57   C     C_R   0.093542 0.122201 0.158704 -0.125466
C58   C     C_R   0.119423 0.105625 0.207627 -0.120772
C59   C     C_R   0.157761 0.171672 0.231870 0.036262
C60   C     C_R   0.103238 0.206871 0.133436 0.022994
C61   C     C_R   0.642320 0.139816 0.385343 0.025736
C62   C     C_R   0.551151 0.234170 0.362880 -0.103109
C63   C     C_R   0.558435 0.254766 0.314159 -0.108139
C64   C     C_3   0.717455 0.558898 0.733446 -0.111147
C65   C     C_R   0.657728 0.182637 0.287438 0.034943
C66   C     C_R   0.752820 0.095017 0.311026 -0.119709
C67   C     C_3   0.636906 0.762398 0.778918 -0.087229
C68   C     C_R   0.745022 0.073337 0.359685 -0.128823
C69   C     C_R   0.714681 0.098654 0.204341 -0.119405
C70   C     C_R   0.726366 0.110677 0.154971 -0.127003
C71   C     C_R   0.620007 0.317008 0.165093 -0.127411
C72   C     C_R   0.610216 0.304991 0.214550 -0.121700
C73   C     C_R   0.660484 0.195716 0.234741 0.034269
C74   C     C_R   0.682207 0.219901 0.135394 0.024504
C75   C     C_R   0.048760 0.235440 0.947537 0.545566
C76   C     C_3   0.787497 0.592235 0.767631 -0.109133
C77   C     C_R   0.712428 0.561269 0.946283 0.544946
C78   C     C_3   0.738236 0.709388 0.742280 -0.097744
C79   C     C_R   0.723415 0.224431 0.948850 0.544991
C80   C     C_R   0.047680 0.243723 0.086346 0.543775
C81   C     C_R   0.708566 0.573058 0.084015 0.541459
C82   C     C_R   0.719643 0.233530 0.087481 0.541309
C83   C     C_1   0.699830 0.603822 0.898033 -0.015430
C84   C     C_3   0.256894 0.362242 0.761435 -0.308320
C85   C     C_3   0.871458 0.919628 0.818079 -0.301349
C86   C     C_1   0.692955 0.627263 0.855714 -0.059710
Cr1   Cr    Cr6+3 0.417550 0.169090 0.500530 1.038843
Cr2   Cr    Cr6+3 0.669180 0.913420 0.499920 1.029796
Cr3   Cr    Cr6+3 0.413260 0.917540 0.499520 1.057674
Cr4   Cr    Cr6+3 0.909770 0.175810 0.018240 1.019546
Cr5   Cr    Cr6+3 0.913300 0.427650 0.016090 1.019374
Cr6   Cr    Cr6+3 0.657770 0.431010 0.016900 1.021840
H1    H     H_    0.878314 0.536041 0.777756 0.105072
H2    H     H_    0.750525 0.475350 0.714386 0.103975
H3    H     H_    0.491318 0.730768 0.221124 0.105992
H4    H     H_    0.508305 0.685098 0.134694 0.127287
H5    H     H_    0.757459 0.784472 0.284851 0.108779
H6    H     H_    0.847641 0.637799 0.223913 0.103516
H7    H     H_    0.864301 0.595571 0.137675 0.130227
H8    H     H_    0.574790 0.598469 0.290644 0.126471
H9    H     H_    0.292311 0.955990 0.369939 0.149701
H10   H     H_    0.209198 0.299324 0.223435 0.104563
H11   H     H_    0.157446 0.333122 0.138004 0.126130
H12   H     H_    0.037495 0.363833 0.721523 0.102295
H13   H     H_    0.788541 0.749421 0.730195 0.108685
H14   H     H_    0.249862 0.976401 0.284195 0.106770
H15   H     H_    0.103886 0.045131 0.226920 0.103696
H16   H     H_    0.058460 0.073961 0.141668 0.133951
H17   H     H_    0.103998 0.342465 0.298154 0.107384
H18   H     H_    0.152488 0.321228 0.384104 0.129748
H19   H     H_    0.470968 0.287386 0.381868 0.143994
H20   H     H_    0.750768 0.013455 0.218938 0.102790
H21   H     H_    0.774311 0.034840 0.132531 0.122352
H22   H     H_    0.483979 0.323022 0.296866 0.108522
H23   H     H_    0.938261 0.256565 0.776184 0.111549
H24   H     H_    0.568366 0.381147 0.237226 0.110101
H25   H     H_    0.604476 0.845422 0.798326 0.133732
H26   H     H_    0.586516 0.402310 0.150887 0.134338
H27   H     H_    0.831783 0.040739 0.291422 0.104436
H28   H     H_    0.816953 0.000875 0.376347 0.128952
H29   H     H_    0.475935 0.784288 0.735055 0.139265
H30   H     H_    0.564859 0.573271 0.782248 0.102773
H31   H     H_    0.246493 0.976392 0.789135 0.119942
H32   H     H_    0.066273 0.053520 0.720083 0.126440
H33   H     H_    0.176518 0.351607 0.823746 0.251692
H34   H     H_    0.655436 0.363760 0.777688 0.105560
H35   H     H_    0.301759 0.400468 0.780956 0.140010
H36   H     H_    0.178736 0.431930 0.744559 0.130517
H37   H     H_    0.314821 0.303958 0.732619 0.188862
H38   H     H_    0.926136 0.035940 0.803585 0.252351
H39   H     H_    0.959906 0.851943 0.826693 0.143571
H40   H     H_    0.829507 0.879323 0.797831 0.144882
H41   H     H_    0.824336 0.957462 0.852601 0.152473
H42   H     H_    0.826867 0.188987 0.717110 0.102968
H43   H     H_    0.485842 0.337093 0.728412 0.111020
H44   H     H_    0.510639 0.171393 0.798183 0.158823
H45   H     H_    0.683519 0.995501 0.737384 0.133504
H46   H     H_    0.736941 0.814315 0.371184 0.143605
I1    I     I_    0.512423 0.588248 0.396095 -0.405293
I2    I     I_    0.429775 0.041515 0.724003 -0.520097
N1    N     N_2   0.226490 0.300626 0.795375 -0.506224
N2    N     N_2   0.875537 0.006132 0.789019 -0.521636
O1    O     O_R   0.301780 0.195490 0.553940 -0.503532
O2    O     O_R   0.636050 0.541380 0.962520 -0.506660
O3    O     O_R   0.666480 0.323610 0.968170 -0.493141
O4    O     O_R   0.522450 0.158840 0.550250 -0.487601
O5    O     O_R   0.817280 0.156800 0.072180 -0.519491
O6    O     O_R   0.005110 0.187160 0.067410 -0.504593
O7    O     O_R   0.026450 0.340060 0.069950 -0.519893
O8    O     O_R   0.808300 0.527240 0.065170 -0.504459
O9    O     O_R   0.634070 0.548770 0.069460 -0.523479
O10   O     O_R   0.664650 0.330470 0.067300 -0.503595
O11   O     O_3   0.826940 0.344820 0.017080 -0.245003
O12   O     O_R   0.658840 0.818280 0.449970 -0.515390
O13   O     O_R   0.694460 0.003360 0.553820 -0.504506
O14   O     O_R   0.657750 0.819520 0.549120 -0.493638
O15   O     O_R   0.501990 0.803120 0.552700 -0.494215
O16   O     O_R   0.318230 0.023430 0.549370 -0.490276
O17   O     O_R   0.302950 0.194150 0.446980 -0.519837
O18   O     O_R   0.523540 0.157600 0.451100 -0.501991
O19   O     O_R   0.695630 0.002030 0.446860 -0.525024
O20   O     O_R   0.503160 0.801780 0.445740 -0.478776
O21   O     O_R   0.319320 0.022190 0.450230 -0.504861
O22   O     O_3   0.499990 0.000010 0.499990 -0.253553
O23   O     O_R   0.819250 0.149410 0.965240 -0.510554
O24   O     O_R   0.006940 0.180310 0.968270 -0.494626
O25   O     O_R   0.028420 0.332670 0.963010 -0.507758
O26   O     O_R   0.810130 0.520390 0.966030 -0.496586

loop_
_geom_bond_atom_site_label_1
_geom_bond_atom_site_label_2
_ccdc_geom_bond_type
C53   H18   S    
C84   H36   S    
C49   H14   S    
C66   C68   A    
C63   C65   A    
C1    C21   S    
C82   O10   A    
C23   C45   S    
Cr1   O4    S    
C27   C29   S    
C35   C36   A    
C18   C26   S    
C24   C27   S    
C2    C12   T    
C82   O5    A    
C56   C78   S    
C6    C75   S    
C79   O3    A    
C20   C30   T    
C77   O26   A    
C5    C9    S    
C21   C31   T    
Cr4   O5    S    
C78   H13   S    
C50   C59   S    
Cr2   O14   S    
Cr5   O25   S    
C36   C37   A    
C76   C78   S    
Cr5   O11   S    
C85   H40   S    
C42   C46   A    
C69   H20   S    
C41   H4    S    
C77   C83   S    
Cr2   O19   S    
C55   H11   S    
C84   H37   S    
C28   O18   A    
C65   C73   S    
Cr1   O18   S    
C18   C19   S    
C34   C86   S    
Cr6   O9    S    
C1    O13   A    
C9    C13   S    
C70   C74   A    
Cr4   O6    S    
C8    H23   S    
C33   C35   A    
C6    C15   T    
C63   H22   S    
C60   C80   S    
C62   H19   S    
C4    O15   A    
C45   C56   S    
H33   N1    S    
C8    C9    S    
C7    C17   T    
C22   C25   S    
C45   C67   S    
C38   I1    S    
C56   C64   S    
C69   C73   A    
Cr6   O11   S    
C32   C38   A    
C4    C12   S    
Cr3   O22   S    
C71   H26   S    
C47   C53   A    
C28   C61   S    
C52   O17   A    
Cr1   O22   S    
C26   C31   S    
C51   H17   S    
C55   C60   A    
Cr4   O24   S    
C40   O12   A    
C1    O4    A    
C61   C62   A    
C67   C78   S    
C74   C82   S    
Cr6   O2    S    
C28   O19   A    
C23   H30   S    
C54   C59   A    
C70   H21   S    
C80   O7    A    
C16   O16   A    
C13   C14   S    
Cr2   O13   S    
Cr5   O26   S    
Cr3   O16   S    
C16   O1    A    
C39   C41   A    
C3    C8    S    
Cr5   O7    S    
C57   C60   A    
C45   H29   S    
C25   C26   S    
Cr2   O22   S    
C51   C53   A    
Cr2   O12   S    
C34   C67   S    
C25   H45   S    
C43   C44   A    
C40   O20   A    
C37   C38   A    
C76   H1    S    
Cr5   O8    S    
C46   C81   S    
C47   C48   A    
C33   H46   S    
C41   C46   A    
C23   C34   S    
C22   N2    S    
C62   C63   A    
C50   C51   A    
C64   C76   S    
C79   O23   A    
Cr4   O11   S    
C67   H25   S    
C39   H3    S    
C5    C14   S    
C39   C44   A    
C23   C64   S    
C29   H43   S    
C14   I2    S    
C49   C50   A    
C13   N1    S    
C66   H27   S    
Cr4   O23   S    
C43   H6    S    
C22   C24   S    
C36   C44   S    
C42   C43   A    
C27   H44   S    
C19   C29   S    
Cr3   O20   S    
C58   H15   S    
C3    H32   S    
C72   H24   S    
C54   C55   A    
C11   C17   S    
C20   C79   S    
C4    O14   A    
Cr6   O3    S    
C18   C22   S    
C54   H10   S    
C7    C16   S    
C72   C73   A    
C3    C5    S    
C10   C13   S    
C85   N2    S    
C71   C74   A    
Cr3   O15   S    
C47   C52   S    
C25   C27   S    
C5    H31   S    
C19   H34   S    
C32   C33   A    
C83   C86   T    
C10   H12   S    
C19   C24   S    
C58   C59   A    
C77   O2    A    
C64   H2    S    
C71   C72   A    
C2    C56   S    
C42   H7    S    
C85   H39   S    
C61   C68   A    
C57   C58   A    
C84   N1    S    
C84   H35   S    
C48   C49   A    
C48   H9    S    
C11   C14   S    
Cr1   O17   S    
C18   H42   S    
C75   O24   A    
C32   C40   S    
C9    C15   S    
C69   C70   A    
H38   N2    S    
C24   C30   S    
C3    C11   S    
C10   C11   S    
C52   O21   A    
Cr6   O10   S    
C80   O6    A    
C57   H16   S    
C81   O9    A    
C26   C29   S    
C8    C10   S    
C65   C66   A    
C34   C76   S    
C75   O25   A    
Cr1   O1    S    
C35   H5    S    
Cr3   O21   S    
C37   H8    S    
C68   H28   S    
C81   O8    A    
C85   H41   S    
