data_mof_unit_23505.cif
_audit_creation_date              2013-03-05T15:44:35-0500
_audit_creation_method            fapswitch 2.2
_symmetry_space_group_name_H-M    P1
_symmetry_Int_Tables_number       1
_space_group_crystal_system       triclinic
_cell_length_a                    18.947241
_cell_length_b                    10.905222
_cell_length_c                    18.892239
_cell_angle_alpha                 89.925764
_cell_angle_beta                  90.182627
_cell_angle_gamma                 90.152594
_cell_volume                      3903.5506161

loop_
_atom_site_label
_atom_site_type_symbol
_atom_site_description
_atom_site_fract_x
_atom_site_fract_y
_atom_site_fract_z
_atom_type_partial_charge
O1    O     O_R   0.787540 0.042690 0.170470 -0.542357
O2    O     O_R   0.212460 0.042690 0.829530 -0.541878
O3    O     O_R   0.287540 0.542690 0.170470 -0.543710
O4    O     O_R   0.712460 0.542690 0.829530 -0.542280
O5    O     O_R   0.765660 0.292160 0.175050 -0.505872
O6    O     O_R   0.234340 0.292160 0.824950 -0.501557
O7    O     O_R   0.265660 0.792160 0.175050 -0.506290
O8    O     O_R   0.734340 0.792160 0.824950 -0.506317
C1    C     C_R   0.729245 0.375010 0.144917 0.567710
C2    C     C_R   0.270803 0.374897 0.855149 0.577672
C3    C     C_R   0.229245 0.875013 0.144917 0.567341
C4    C     C_R   0.770799 0.874907 0.855145 0.567912
O9    O     O_R   0.670190 0.408980 0.168550 -0.493877
O10   O     O_R   0.329810 0.408980 0.831450 -0.489231
O11   O     O_R   0.170190 0.908980 0.168550 -0.493884
O12   O     O_R   0.829810 0.908980 0.831450 -0.494075
O13   O     O_R   0.556580 0.251450 0.175160 -0.514939
O14   O     O_R   0.443420 0.251450 0.824840 -0.514687
O15   O     O_R   0.056580 0.751450 0.175160 -0.515042
O16   O     O_R   0.943420 0.751450 0.824840 -0.515253
C5    C     C_R   0.531053 0.155504 0.146724 0.533607
C6    C     C_R   0.468884 0.155564 0.853317 0.534295
C7    C     C_R   0.031054 0.655504 0.146724 0.533935
C8    C     C_R   0.968883 0.655564 0.853318 0.534142
O17   O     O_R   0.545920 0.049510 0.170320 -0.495640
O18   O     O_R   0.454080 0.049510 0.829680 -0.494551
O19   O     O_R   0.045920 0.549510 0.170320 -0.495247
O20   O     O_R   0.954080 0.549510 0.829680 -0.495783
O21   O     O_R   0.681390 0.957840 0.176710 -0.441189
O22   O     O_R   0.318610 0.957840 0.823290 -0.439035
O23   O     O_R   0.181390 0.457840 0.176710 -0.441411
O24   O     O_R   0.818610 0.457840 0.823290 -0.441656
C9    C     C_R   0.741534 0.968415 0.147520 0.569111
C10   C     C_R   0.258434 0.968536 0.852506 0.570909
C11   C     C_R   0.241537 0.468408 0.147523 0.567887
C12   C     C_R   0.758434 0.468542 0.852508 0.568653
O25   O     O_R   0.787500 0.044280 0.330990 -0.524814
O26   O     O_R   0.212500 0.044280 0.669010 -0.531482
O27   O     O_R   0.287500 0.544280 0.330990 -0.522643
O28   O     O_R   0.712500 0.544280 0.669010 -0.524329
O29   O     O_R   0.765610 0.293630 0.323860 -0.487219
O30   O     O_R   0.234390 0.293630 0.676140 -0.477384
O31   O     O_R   0.265610 0.793630 0.323860 -0.485238
O32   O     O_R   0.734390 0.793630 0.676140 -0.490036
C13   C     C_R   0.729805 0.378169 0.352635 0.565326
C14   C     C_R   0.288528 0.332064 0.640164 0.558471
C15   C     C_R   0.229648 0.877692 0.352824 0.565494
C16   C     C_R   0.770276 0.878401 0.647333 0.562987
O33   O     O_R   0.670140 0.410570 0.329080 -0.517905
O34   O     O_R   0.329860 0.410570 0.670920 -0.495136
O35   O     O_R   0.170140 0.910570 0.329080 -0.517390
O36   O     O_R   0.829860 0.910570 0.670920 -0.516894
O37   O     O_R   0.556540 0.252920 0.323970 -0.518355
O38   O     O_R   0.443460 0.252920 0.676030 -0.536786
O39   O     O_R   0.056540 0.752920 0.323970 -0.516960
O40   O     O_R   0.943460 0.752920 0.676030 -0.516579
C17   C     C_R   0.531698 0.156754 0.353776 0.563067
C18   C     C_R   0.469028 0.156612 0.646639 0.550501
C19   C     C_R   0.031003 0.656813 0.353277 0.563372
C20   C     C_R   0.968200 0.656719 0.646083 0.561938
O41   O     O_R   0.545870 0.051100 0.330840 -0.444351
O42   O     O_R   0.454130 0.051100 0.669160 -0.441970
O43   O     O_R   0.045870 0.551100 0.330840 -0.446596
O44   O     O_R   0.954130 0.551100 0.669160 -0.443600
O45   O     O_R   0.681340 0.959300 0.325510 -0.490410
O46   O     O_R   0.318660 0.959300 0.674490 -0.487074
O47   O     O_R   0.181340 0.459300 0.325510 -0.493195
O48   O     O_R   0.818660 0.459300 0.674490 -0.487086
C21   C     C_R   0.741132 0.973255 0.355375 0.544763
C22   C     C_R   0.258752 0.973313 0.644707 0.539266
C23   C     C_R   0.242283 0.468896 0.353875 0.542409
C24   C     C_R   0.758917 0.473918 0.644482 0.544519
Cr1   Cr    Cr6+3 0.772000 0.169640 0.250110 1.054705
Cr2   Cr    Cr6+3 0.228000 0.169640 0.749890 1.052036
Cr3   Cr    Cr6+3 0.272000 0.669640 0.250110 1.054860
Cr4   Cr    Cr6+3 0.728000 0.669640 0.749890 1.052370
Cr5   Cr    Cr6+3 0.614960 0.323350 0.249260 1.045726
Cr6   Cr    Cr6+3 0.385040 0.323350 0.750740 1.044778
Cr7   Cr    Cr6+3 0.114960 0.823350 0.249260 1.047962
Cr8   Cr    Cr6+3 0.885040 0.823350 0.750740 1.048141
Cr9   Cr    Cr6+3 0.616670 0.010620 0.250840 1.134803
Cr10  Cr    Cr6+3 0.383330 0.010620 0.749160 1.133665
Cr11  Cr    Cr6+3 0.116670 0.510620 0.250840 1.133429
Cr12  Cr    Cr6+3 0.883330 0.510620 0.749160 1.137096
O49   O     O_3   0.667880 0.167870 0.250070 -0.278056
O50   O     O_3   0.332120 0.167870 0.749930 -0.299453
O51   O     O_3   0.167880 0.667870 0.250070 -0.276863
O52   O     O_3   0.832120 0.667870 0.749930 -0.278343
H1    H     H_    0.502581 0.965657 0.062739 0.204416
H2    H     H_    0.496074 0.965644 0.937739 0.204609
H3    H     H_    0.002604 0.465650 0.062733 0.204462
H4    H     H_    0.996089 0.465643 0.937735 0.204699
C25   C     C_R   0.496949 0.163934 0.925746 -0.010152
C26   C     C_R   0.502755 0.163928 0.074386 -0.009823
C27   C     C_R   0.996951 0.663935 0.925745 -0.009116
C28   C     C_R   0.002759 0.663924 0.074385 -0.009725
C29   C     C_R   0.502022 0.277240 0.962494 0.026612
C30   C     C_R   0.498045 0.277230 0.037478 0.026972
C31   C     C_R   0.002018 0.777240 0.962495 0.026784
C32   C     C_R   0.998042 0.777226 0.037479 0.026800
C33   C     C_R   0.500333 0.053871 0.036443 -0.129794
C34   C     C_R   0.498763 0.053868 0.963876 -0.129983
C35   C     C_R   0.000346 0.553867 0.036440 -0.129804
C36   C     C_R   0.998773 0.553867 0.963874 -0.129551
C37   C     C_R   0.510903 0.390434 0.926993 -0.098927
C38   C     C_R   0.489482 0.390389 0.072829 -0.099001
C39   C     C_R   0.010894 0.890438 0.926995 -0.098656
C40   C     C_R   0.989474 0.890383 0.072832 -0.098898
C41   C     C_R   0.006818 0.000921 0.963668 -0.109866
C42   C     C_R   0.993784 0.000882 0.036010 -0.109713
C43   C     C_R   0.506834 0.500919 0.963665 -0.109671
C44   C     C_R   0.493799 0.500886 0.036006 -0.109754
H5    H     H_    0.522946 0.394919 0.871178 0.141238
H6    H     H_    0.477436 0.394829 0.128636 0.140272
H7    H     H_    0.022937 0.894928 0.871180 0.141332
H8    H     H_    0.977428 0.894820 0.128638 0.140804
H9    H     H_    0.013133 0.086805 0.935633 0.185408
H10   H     H_    0.987596 0.086712 0.063933 0.186459
H11   H     H_    0.513152 0.586801 0.935628 0.185525
H12   H     H_    0.487615 0.586717 0.063927 0.186358
C45   C     C_R   0.699930 0.852344 0.039660 0.200623
C46   C     C_R   0.299654 0.852221 0.960407 0.200032
C47   C     C_R   0.199945 0.352309 0.039669 0.200849
C48   C     C_R   0.799641 0.352214 0.960402 0.200388
C49   C     C_R   0.702415 0.845261 0.965732 -0.125200
C50   C     C_R   0.297340 0.845210 0.034335 -0.124826
C51   C     C_R   0.202430 0.345219 0.965742 -0.125646
C52   C     C_R   0.797334 0.345189 0.034330 -0.124895
H13   H     H_    0.665077 0.787000 0.938056 0.160479
H14   H     H_    0.334339 0.786452 0.061967 0.161072
H15   H     H_    0.165095 0.286947 0.938067 0.160379
H16   H     H_    0.834320 0.286393 0.061951 0.161073
C53   C     C_R   0.755797 0.906263 0.928185 -0.014606
C54   C     C_R   0.244426 0.906731 0.071935 -0.015057
C55   C     C_R   0.255807 0.406236 0.928193 -0.016166
C56   C     C_R   0.744436 0.406738 0.071939 -0.015076
C57   C     C_R   0.806365 0.975195 0.964478 -0.113965
C58   C     C_R   0.194287 0.976372 0.035727 -0.115673
C59   C     C_R   0.306374 0.475177 0.964485 -0.114497
C60   C     C_R   0.694319 0.476431 0.035740 -0.115707
H17   H     H_    0.849559 0.020206 0.937498 0.216330
H18   H     H_    0.151464 0.021821 0.062761 0.216204
H19   H     H_    0.349565 0.520199 0.937503 0.216137
H20   H     H_    0.651508 0.521897 0.062781 0.216219
C61   C     C_R   0.805039 0.981856 0.036653 -0.173358
C62   C     C_R   0.195454 0.982995 0.963559 -0.173389
C63   C     C_R   0.305048 0.481839 0.036659 -0.173138
C64   C     C_R   0.695485 0.483079 0.963573 -0.173268
H21   H     H_    0.845212 0.037923 0.061650 0.158182
H22   H     H_    0.155579 0.039535 0.938629 0.158071
H23   H     H_    0.345219 0.537914 0.061655 0.158207
H24   H     H_    0.655627 0.539664 0.938651 0.158157
C65   C     C_R   0.751056 0.924699 0.075274 0.012284
C66   C     C_R   0.248898 0.925095 0.924856 0.012445
C67   C     C_R   0.251065 0.424680 0.075281 0.012603
C68   C     C_R   0.748901 0.425129 0.924862 0.012570
C69   C     C_R   0.494269 0.050541 0.463243 0.196353
C70   C     C_R   0.502410 0.048605 0.536469 0.199363
C71   C     C_R   0.991799 0.550832 0.461956 0.195034
C72   C     C_R   0.000346 0.549603 0.535160 0.197410
C73   C     C_R   0.498205 0.160318 0.574618 -0.019068
C74   C     C_R   0.504585 0.162272 0.426447 -0.020752
C75   C     C_R   0.994922 0.661310 0.573143 -0.019558
C76   C     C_R   0.001600 0.662454 0.425022 -0.020507
C77   C     C_R   0.503098 0.271848 0.538109 -0.196774
C78   C     C_R   0.509061 0.272582 0.464594 -0.189385
C79   C     C_R   0.996001 0.772919 0.536102 -0.181839
C80   C     C_R   0.003010 0.773380 0.462681 -0.181948
H25   H     H_    0.502055 0.358093 0.566404 0.149512
H26   H     H_    0.517842 0.359060 0.437723 0.157711
H27   H     H_    0.991668 0.859415 0.563849 0.158959
H28   H     H_    0.010202 0.860017 0.435508 0.159749
C81   C     C_R   0.800790 0.001209 0.468774 -0.135630
C82   C     C_R   0.201950 0.006160 0.530291 -0.136808
C83   C     C_R   0.323506 0.427168 0.453391 -0.124313
C84   C     C_R   0.703296 0.509643 0.529654 -0.133817
C85   C     C_R   0.801094 0.993304 0.541194 -0.139033
C86   C     C_R   0.202090 0.997078 0.457898 -0.135384
C87   C     C_R   0.333274 0.400093 0.524316 -0.128446
C88   C     C_R   0.703101 0.499764 0.457247 -0.138423
H29   H     H_    0.841527 0.043320 0.569915 0.151130
H30   H     H_    0.164269 0.051172 0.428208 0.152241
H31   H     H_    0.383547 0.421358 0.548595 0.139917
H32   H     H_    0.665372 0.553879 0.427454 0.147746
C89   C     C_R   0.753604 0.915113 0.575445 0.037334
C90   C     C_R   0.246560 0.913004 0.424833 0.040000
C91   C     C_R   0.277678 0.352170 0.564368 0.020500
C92   C     C_R   0.747191 0.414905 0.424320 0.043339
C93   C     C_R   0.702255 0.851445 0.536152 -0.092144
C94   C     C_R   0.294305 0.843227 0.465310 -0.078591
C95   C     C_R   0.213264 0.323904 0.531187 -0.108859
C96   C     C_R   0.795174 0.345817 0.464793 -0.081491
H33   H     H_    0.665804 0.789124 0.561585 0.176823
H34   H     H_    0.327753 0.774913 0.440976 0.181824
H35   H     H_    0.169861 0.284962 0.560730 0.184257
H36   H     H_    0.829062 0.278507 0.440344 0.172551
C97   C     C_R   0.699820 0.863992 0.462955 -0.123144
C98   C     C_R   0.296569 0.857152 0.538443 -0.109093
C99   C     C_R   0.203084 0.352349 0.460030 -0.127072
C100  C     C_R   0.797131 0.359136 0.537940 -0.116880
H37   H     H_    0.659501 0.816031 0.433101 0.172272
H38   H     H_    0.333822 0.804237 0.569345 0.182142
H39   H     H_    0.151867 0.336418 0.436368 0.186634
H40   H     H_    0.834146 0.305739 0.568846 0.171391
C101  C     C_R   0.749598 0.938395 0.428968 0.021683
C102  C     C_R   0.250024 0.938462 0.571170 0.018715
C103  C     C_R   0.257258 0.409076 0.421575 0.018062
C104  C     C_R   0.750669 0.440562 0.570655 0.021070
H41   H     H_    0.839786 0.060239 0.444382 0.150350
H42   H     H_    0.165105 0.069594 0.553876 0.149376
H43   H     H_    0.366685 0.469396 0.424784 0.147632
H44   H     H_    0.667060 0.574205 0.553172 0.147896
N1    N     N_R   0.647049 0.783719 0.077182 0.068851
O53   O     O_R   0.663091 0.727087 0.135724 -0.343766
O54   O     O_R   0.586057 0.762456 0.047804 -0.400244
N2    N     N_R   0.351882 0.782845 0.922814 0.068857
O55   O     O_R   0.335189 0.726428 0.864418 -0.338007
O56   O     O_R   0.412808 0.760694 0.952020 -0.400244
N3    N     N_R   0.147071 0.283673 0.077196 0.068947
O57   O     O_R   0.163125 0.227057 0.135742 -0.343900
O58   O     O_R   0.086077 0.262380 0.047819 -0.400070
N4    N     N_R   0.851836 0.282799 0.922794 0.069101
O59   O     O_R   0.835087 0.226323 0.864433 -0.343215
O60   O     O_R   0.912792 0.260690 0.951949 -0.400054
N5    N     N_R   0.477640 0.938792 0.426258 0.111164
O61   O     O_R   0.519493 0.844633 0.430407 -0.315828
O62   O     O_R   0.425817 0.937023 0.380899 -0.349666
N6    N     N_R   0.514267 0.933539 0.571961 0.111736
O63   O     O_R   0.469556 0.843545 0.565251 -0.314596
O64   O     O_R   0.565392 0.923972 0.617792 -0.350469
N7    N     N_R   0.974934 0.439028 0.425028 0.107195
O65   O     O_R   0.014903 0.342803 0.431377 -0.319765
O66   O     O_R   0.924580 0.438553 0.378008 -0.349669
N8    N     N_R   0.014322 0.435442 0.570698 0.111571
O67   O     O_R   0.969433 0.345199 0.567125 -0.318865
O68   O     O_R   0.068157 0.426908 0.613350 -0.340182

loop_
_geom_bond_atom_site_label_1
_geom_bond_atom_site_label_2
_geom_bond_distance
_ccdc_geom_bond_type
C18   O42   1.257947 A    
Cr11  O51   1.968130 S    
O4    C12   1.265502 A    
O47   Cr11  1.948137 S    
C69   C70   1.391627 A    
O39   C19   1.279301 A    
C98   C102  1.398317 A    
O5    Cr1   1.950728 S    
C39   C41   1.393063 A    
C59   H19   1.081869 S    
C43   C44   1.389602 A    
C83   C103  1.403550 A    
C56   C60   1.394774 A    
C60   C64   1.365473 A    
N6    O64   1.301487 A    
C29   C30   1.418858 A    
C41   H9    1.081926 S    
C24   C104  1.449739 S    
C38   C44   1.392952 A    
N1    O53   1.301561 A    
O15   Cr7   1.945879 S    
C53   C57   1.395180 A    
O20   Cr12  2.067983 S    
C59   C63   1.365883 A    
O5    C1    1.271186 A    
C77   C78   1.393820 A    
C5    O17   1.270332 A    
C38   H6    1.080615 S    
C73   C77   1.400444 A    
C96   H36   1.081531 S    
C57   C61   1.365888 A    
C11   C67   1.458226 S    
O25   C21   1.257778 A    
C52   C56   1.403299 A    
O26   Cr2   2.071318 S    
C27   C31   1.420973 A    
O47   C23   1.275552 A    
C87   C91   1.398712 A    
C5    C26   1.469313 S    
C26   C30   1.420827 A    
C85   C89   1.397718 A    
C49   C53   1.403033 A    
C85   H29   1.083842 S    
O34   Cr6   2.064778 S    
O8    Cr4   1.952807 S    
C20   C75   1.470323 S    
O23   Cr11  1.952733 S    
C7    C28   1.469304 S    
C43   H11   1.081927 S    
O30   C14   1.300478 A    
O32   Cr4   1.944108 S    
C1    O9    1.262709 A    
O44   Cr12  2.070436 S    
O25   Cr1   2.069737 S    
C19   C76   1.468516 S    
C88   C92   1.396471 A    
C70   C73   1.418828 A    
C62   H22   1.082710 S    
C3    O11   1.262692 A    
O11   Cr7   2.072041 S    
C17   C74   1.468775 S    
C4    O12   1.260613 A    
C26   C33   1.399341 A    
O33   Cr5   2.064011 S    
C37   H5    1.080607 S    
C97   H37   1.082188 S    
O6    Cr2   1.952807 S    
O27   Cr3   2.069737 S    
C14   C91   1.462332 S    
O3    Cr3   2.068201 S    
C82   C86   1.371390 A    
C91   C95   1.403965 A    
O2    Cr2   2.064537 S    
C69   N5    1.439218 S    
C48   C52   1.399469 A    
C29   C37   1.413997 A    
O2    C10   1.265533 A    
C23   C103  1.462335 S    
O42   Cr10  2.070436 S    
Cr5   O49   1.972152 S    
C83   H43   1.083359 S    
O18   Cr10  2.067983 S    
C72   N8    1.438499 S    
C99   H39   1.080852 S    
C46   C66   1.416353 A    
C42   H10   1.081830 S    
N8    O68   1.301325 A    
C52   H16   1.083382 S    
Cr7   O51   1.972152 S    
N6    O63   1.300803 A    
C33   C34   1.371170 A    
C35   C36   1.371163 A    
O7    C3    1.271211 A    
C87   H31   1.080653 S    
C10   C66   1.457652 S    
C77   H25   1.082678 S    
O24   Cr12  1.949736 S    
C95   C99   1.392189 A    
C32   C40   1.413893 A    
O30   Cr2   1.944108 S    
O22   C10   1.274028 A    
O26   C22   1.258898 A    
O1    C9    1.264367 A    
O10   Cr6   2.076327 S    
O48   Cr12  1.947311 S    
C72   C75   1.418760 A    
C64   H24   1.082700 S    
C76   C80   1.404333 A    
N2    O55   1.301614 A    
C97   C101  1.399501 A    
C2    O10   1.260604 A    
C3    C54   1.450583 S    
H3    C35   1.083009 S    
C79   C80   1.393853 A    
C44   H12   1.081830 S    
O16   Cr8   1.946790 S    
C15   O35   1.264737 A    
C49   H13   1.083361 S    
O27   C23   1.262706 A    
Cr10  O50   1.972660 S    
C47   N3    1.437246 S    
O13   C5    1.270586 A    
Cr4   O52   1.972930 S    
O40   C20   1.283071 A    
C84   H44   1.081581 S    
O48   C24   1.274664 A    
O12   Cr8   2.076327 S    
C45   N1    1.437240 S    
C46   C50   1.399482 A    
O15   C7    1.270592 A    
C45   C49   1.399832 A    
C47   C67   1.416628 A    
C93   H33   1.080985 S    
C100  H40   1.081912 S    
O46   Cr10  1.947311 S    
O39   Cr7   1.951900 S    
O3    C11   1.264360 A    
C84   C88   1.372313 A    
O45   Cr9   1.948137 S    
C71   C72   1.391963 A    
C62   C66   1.402863 A    
C12   C68   1.457626 S    
C13   O33   1.264672 A    
C75   C79   1.403299 A    
O8    C4    1.269804 A    
C39   H7    1.080605 S    
C99   C103  1.401532 A    
N5    O61   1.301179 A    
N7    O66   1.301518 A    
O7    Cr3   1.950728 S    
O29   C13   1.269909 A    
C2    C55   1.451243 S    
C15   C90   1.449008 S    
N4    O60   1.300969 A    
O35   Cr7   2.064011 S    
Cr1   O49   1.972828 S    
C40   C42   1.392952 A    
C86   H30   1.083963 S    
C6    O18   1.270624 A    
C45   C65   1.416621 A    
C89   C93   1.404560 A    
C98   H38   1.081992 S    
Cr3   O51   1.972828 S    
O14   Cr6   1.946790 S    
C48   N4    1.437263 S    
O21   Cr9   1.952733 S    
C78   H26   1.083146 S    
C7    O19   1.270323 A    
C4    C53   1.451227 S    
C48   C68   1.416302 A    
O9    Cr5   2.072041 S    
C83   C87   1.383679 A    
O37   Cr5   1.951900 S    
C6    C25   1.469308 S    
O23   C11   1.272477 A    
C58   H18   1.081799 S    
C8    C27   1.469306 S    
C22   C102  1.449643 S    
N8    O67   1.300690 A    
C70   N6    1.439804 S    
C47   C51   1.399832 A    
N3    O57   1.301606 A    
C8    O20   1.270627 A    
C63   C67   1.402605 A    
C27   C36   1.399527 A    
C94   C98   1.390671 A    
O31   Cr3   1.947066 S    
O38   C18   1.285288 A    
C80   H28   1.083160 S    
C93   C97   1.390065 A    
C57   H17   1.081846 S    
O37   C17   1.279048 A    
O22   Cr10  1.949736 S    
O28   C24   1.258609 A    
H1    C33   1.083000 S    
C82   H42   1.081555 S    
C19   O43   1.261662 A    
O21   C9    1.272463 A    
C81   H41   1.082383 S    
C60   H20   1.081758 S    
N2    O56   1.300950 A    
O17   Cr9   2.068638 S    
O40   Cr8   1.955657 S    
C25   C34   1.399522 A    
C54   C58   1.394825 A    
C79   H27   1.083166 S    
O24   C12   1.274045 A    
C13   C92   1.449476 S    
C17   O41   1.261371 A    
C81   C101  1.403121 A    
Cr2   O50   1.972930 S    
C31   C39   1.414000 A    
C14   O34   1.295632 A    
C21   C101  1.449408 S    
C30   C38   1.413892 A    
C31   C32   1.418852 A    
C92   C96   1.405889 A    
C20   O44   1.259206 A    
C55   C59   1.395206 A    
O1    Cr1   2.068201 S    
C40   H8    1.080614 S    
C51   H15   1.083377 S    
O14   C6    1.270909 A    
N1    O54   1.300812 A    
C61   C65   1.402588 A    
C16   C89   1.449524 S    
Cr8   O52   1.967589 S    
O32   C16   1.269172 A    
H2    C34   1.082996 S    
C41   C42   1.389601 A    
O13   Cr5   1.945879 S    
C84   C104  1.403861 A    
O46   C22   1.274761 A    
Cr12  O52   1.972660 S    
C58   C62   1.365478 A    
O45   C21   1.272873 A    
C63   H23   1.082700 S    
C28   C32   1.420828 A    
O19   Cr11  2.068638 S    
N5    O62   1.301317 A    
C25   C29   1.420973 A    
C46   N2    1.437320 S    
C74   C78   1.405349 A    
C9    C65   1.458236 S    
N3    O58   1.300886 A    
C96   C100  1.390081 A    
C37   C43   1.393066 A    
N4    O59   1.301591 A    
C51   C55   1.403055 A    
C95   H35   1.081028 S    
O4    Cr4   2.064537 S    
O6    C2    1.269794 A    
C94   H34   1.083175 S    
O29   Cr1   1.947066 S    
C86   C90   1.396335 A    
C1    C56   1.450578 S    
O28   Cr4   2.071318 S    
C16   O36   1.261460 A    
C61   H21   1.082689 S    
C50   C54   1.403281 A    
C100  C104  1.398041 A    
Cr6   O50   1.967589 S    
H4    C36   1.083000 S    
C28   C35   1.399353 A    
O43   Cr11  2.072794 S    
N7    O65   1.300901 A    
C82   C102  1.403129 A    
C50   H14   1.083395 S    
C71   C76   1.414396 A    
O41   Cr9   2.072794 S    
C90   C94   1.407081 A    
C64   C68   1.402822 A    
C81   C85   1.370776 A    
O36   Cr8   2.064778 S    
C18   C73   1.470763 S    
O31   C15   1.269283 A    
C69   C74   1.415436 A    
O16   C8    1.270909 A    
Cr9   O49   1.968130 S    
C88   H32   1.083927 S    
C71   N7    1.440180 S    
O38   Cr6   1.955657 S    
