data_mof_unit_25230.cif
_audit_creation_date              2012-12-10T17:16:51-0500
_audit_creation_method            fapswitch 2.2
_symmetry_space_group_name_H-M    P1
_symmetry_Int_Tables_number       1
_space_group_crystal_system       triclinic
_cell_length_a                    18.304174
_cell_length_b                    18.316645
_cell_length_c                    51.288768
_cell_angle_alpha                 89.960088
_cell_angle_beta                  90.062381
_cell_angle_gamma                 89.989923
_cell_volume                      17195.6248366

loop_
_atom_site_label
_atom_site_type_symbol
_atom_type_description
_atom_site_fract_x
_atom_site_fract_y
_atom_site_fract_z
_atom_type_partial_charge
C1    C     C_R   0.000088 0.500090 0.929310 0.891801
C2    C     C_R   0.543149 0.051304 0.277448 -0.147384
C3    C     C_R   0.499921 0.999723 0.400510 -0.398801
C4    C     C_R   0.493946 0.995507 0.846207 -0.000577
C5    C     C_R   0.000055 0.496128 0.845862 -0.056804
C6    C     C_R   0.002220 0.497981 0.346077 -0.041103
C7    C     C_R   0.500010 0.999570 0.345684 -0.070126
C8    C     C_R   0.861178 0.641427 0.998795 0.786754
C9    C     C_R   0.358928 0.860916 0.999087 0.781315
C10   C     C_R   0.140890 0.360713 0.000044 0.779030
C11   C     C_R   0.641036 0.139171 0.999136 0.779578
C12   C     C_R   0.139147 0.641009 0.999138 0.778786
C13   C     C_R   0.961353 0.552033 0.277720 -0.143899
C14   C     C_R   0.641299 0.861221 0.999007 0.789991
C15   C     C_R   0.860815 0.359012 0.999176 0.784268
C16   C     C_R   0.360707 0.140890 0.000034 0.784981
C17   C     C_R   0.359010 0.139196 0.500058 0.780881
C18   C     C_R   0.858904 0.360886 0.499051 0.775451
C19   C     C_R   0.640923 0.860740 0.500051 0.780548
C20   C     C_R   0.141069 0.639138 0.499122 0.775555
C21   C     C_R   0.639136 0.140970 0.499176 0.777175
C22   C     C_R   0.139228 0.359038 0.500087 0.784589
C23   C     C_R   0.360743 0.859084 0.499210 0.777132
C24   C     C_R   0.457000 0.948538 0.277362 -0.147424
C25   C     C_R   0.860749 0.640927 0.500045 0.785757
C26   C     C_R   0.188547 0.703591 0.949274 -0.167095
C27   C     C_R   0.402095 0.294206 0.007837 -0.169554
C28   C     C_R   0.815456 0.292589 0.949533 -0.165743
C29   C     C_R   0.692527 0.802271 0.948862 -0.175904
C30   C     C_R   0.793455 0.688933 0.948539 -0.159525
C31   C     C_R   0.705763 0.186983 0.949339 -0.172395
C32   C     C_R   0.294362 0.401936 0.007839 -0.166328
C33   C     C_R   0.297217 0.809913 0.949118 -0.173459
C34   C     C_R   0.686904 0.204366 0.449360 -0.164574
C35   C     C_R   0.496876 0.996778 0.763998 -0.136392
C36   C     C_R   0.902316 0.794438 0.507414 -0.165298
C37   C     C_R   0.315173 0.793074 0.449568 -0.166886
C38   C     C_R   0.097490 0.205323 0.507000 -0.165129
C39   C     C_R   0.205148 0.097555 0.506871 -0.168520
C40   C     C_R   0.205961 0.687000 0.449337 -0.158054
C41   C     C_R   0.794600 0.902161 0.507387 -0.167658
C42   C     C_R   0.798845 0.307332 0.448996 -0.179243
C43   C     C_R   0.213496 0.732261 0.925757 -0.136500
C44   C     C_R   0.421203 0.367290 0.011063 -0.128802
C45   C     C_R   0.791182 0.263067 0.926042 -0.140357
C46   C     C_R   0.000981 0.494373 0.763821 -0.136749
C47   C     C_R   0.710676 0.768352 0.925518 -0.158324
C48   C     C_R   0.760080 0.711085 0.925420 -0.124294
C49   C     C_R   0.736240 0.210754 0.925935 -0.135380
C50   C     C_R   0.367526 0.420966 0.011063 -0.127726
C51   C     C_R   0.267795 0.785158 0.925675 -0.125098
C52   C     C_R   0.713050 0.231541 0.425785 -0.139100
C53   C     C_R   0.921496 0.867592 0.510392 -0.131170
C54   C     C_R   0.290832 0.763759 0.426066 -0.144270
C55   C     C_R   0.078238 0.132097 0.509690 -0.131333
C56   C     C_R   0.131878 0.078401 0.509622 -0.130835
C57   C     C_R   0.000479 0.497995 0.263894 -0.136719
C58   C     C_R   0.236150 0.711212 0.425940 -0.118776
C59   C     C_R   0.867827 0.921266 0.510375 -0.130818
C60   C     C_R   0.769182 0.282491 0.425599 -0.125039
C61   C     C_R   0.273227 0.781361 0.973316 0.086997
C62   C     C_R   0.273620 0.328286 0.003984 0.095828
C63   C     C_R   0.728418 0.217021 0.973463 0.089759
C64   C     C_R   0.774439 0.720920 0.972795 0.083195
C65   C     C_R   0.721491 0.777413 0.972928 0.106089
C66   C     C_R   0.783722 0.271218 0.973520 0.099821
C67   C     C_R   0.328363 0.273547 0.003981 0.096780
C68   C     C_R   0.500055 0.000020 0.263675 -0.135030
C69   C     C_R   0.218187 0.726951 0.973366 0.097999
C70   C     C_R   0.773675 0.280414 0.473273 0.087059
C71   C     C_R   0.773770 0.828433 0.503760 0.093094
C72   C     C_R   0.228476 0.717055 0.473474 0.080701
C73   C     C_R   0.226064 0.171375 0.503524 0.093059
C74   C     C_R   0.171345 0.226145 0.503581 0.097963
C75   C     C_R   0.283619 0.771410 0.473551 0.098173
C76   C     C_R   0.828513 0.773692 0.503764 0.096092
C77   C     C_R   0.717678 0.226963 0.473391 0.098876
C78   C     C_R   0.192621 0.699555 0.997575 -0.073830
C79   C     C_R   0.597180 0.908624 0.764015 0.507616
C80   C     C_R   0.307311 0.199517 0.001138 -0.069962
C81   C     C_R   0.807463 0.300398 0.997682 -0.074456
C82   C     C_R   0.700606 0.808754 0.997070 -0.078535
C83   C     C_R   0.807497 0.699973 0.996851 -0.079260
C84   C     C_R   0.699458 0.192800 0.997632 -0.074534
C85   C     C_R   0.199510 0.307312 0.001146 -0.070068
C86   C     C_R   0.300531 0.807270 0.997523 -0.074308
C87   C     C_R   0.692311 0.199690 0.497610 -0.074794
C88   C     C_R   0.807405 0.699599 0.501133 -0.073146
C89   C     C_R   0.307371 0.800506 0.497719 -0.072594
C90   C     C_R   0.092986 0.591242 0.763494 0.516483
C91   C     C_R   0.192527 0.300314 0.501257 -0.070574
C92   C     C_R   0.300278 0.192474 0.501169 -0.067627
C93   C     C_R   0.199498 0.692772 0.497633 -0.072226
C94   C     C_R   0.699600 0.807389 0.501151 -0.067967
C95   C     C_R   0.800678 0.306948 0.497475 -0.074336
C96   C     C_R   0.218182 0.728576 0.021030 -0.206952
C97   C     C_R   0.233625 0.180327 0.999536 -0.213229
C98   C     C_R   0.780214 0.273128 0.021159 -0.202714
C99   C     C_R   0.735947 0.788979 0.020131 -0.206123
C100  C     C_R   0.789098 0.735671 0.019986 -0.199794
C101  C     C_R   0.398701 0.087278 0.763357 0.510894
C102  C     C_R   0.726922 0.219755 0.021134 -0.203985
C103  C     C_R   0.180241 0.233713 0.999525 -0.203191
C104  C     C_R   0.271460 0.781934 0.021003 -0.199823
C105  C     C_R   0.718015 0.228718 0.521043 -0.209399
C106  C     C_R   0.733707 0.680386 0.499695 -0.210494
C107  C     C_R   0.280144 0.773166 0.521188 -0.208737
C108  C     C_R   0.266260 0.319535 0.500173 -0.219187
C109  C     C_R   0.319601 0.266145 0.500120 -0.202076
C110  C     C_R   0.226891 0.719749 0.521144 -0.204513
C111  C     C_R   0.680324 0.733759 0.499722 -0.202735
C112  C     C_R   0.500369 0.000079 0.929387 0.936589
C113  C     C_R   0.908612 0.397853 0.763473 0.517112
C114  C     C_R   0.771291 0.282073 0.520969 -0.205434
C115  C     C_R   0.451631 0.044223 0.805002 0.503457
C116  C     C_R   0.951060 0.452476 0.804969 0.548204
C117  C     C_R   0.538083 0.946712 0.805274 0.643743
C118  C     C_R   0.050751 0.536613 0.804933 0.551761
C119  C     C_R   0.966825 0.553248 0.305115 0.554933
C120  C     C_R   0.454981 0.952624 0.304754 0.554333
C121  C     C_R   0.035461 0.442404 0.304979 0.553598
C122  C     C_R   0.545221 0.046836 0.304838 0.554241
C123  C     C_3   0.707822 0.911054 0.785030 0.153639
C124  C     C_R   0.083092 0.393276 0.263402 0.519400
C125  C     C_3   0.769370 0.911120 0.764815 -0.405992
C126  C     C_3   0.834481 0.956198 0.774150 -0.949032
C127  C     C_3   0.096907 0.703699 0.783107 0.132455
C128  C     C_3   0.109670 0.765451 0.763503 -0.378350
C129  C     C_3   0.072821 0.836061 0.772287 -0.952040
C130  C     C_3   0.282316 0.091119 0.779861 0.107562
C131  C     C_3   0.220819 0.123767 0.763337 -0.345866
C132  C     C_3   0.149070 0.082840 0.767411 -0.970521
C133  C     C_3   0.902647 0.286079 0.783588 0.130777
C134  C     C_3   0.892951 0.224840 0.763584 -0.391114
C135  C     C_R   0.582449 0.105253 0.263398 0.514977
C136  C     C_3   0.928524 0.154124 0.772946 -0.953911
C137  C     C_3   0.197062 0.379410 0.281091 0.119272
C138  C     C_3   0.255857 0.350553 0.262568 -0.357901
C139  C     C_3   0.328266 0.390445 0.266404 -0.966216
C140  C     C_3   0.578333 0.216639 0.283791 0.147277
C141  C     C_3   0.576427 0.276613 0.262983 -0.398132
C142  C     C_3   0.538067 0.344904 0.273132 -0.948228
C143  C     C_3   0.803825 0.616219 0.281463 0.117793
C144  C     C_3   0.744876 0.646728 0.263293 -0.355276
C145  C     C_3   0.672205 0.607284 0.267039 -0.970303
C146  C     C_R   0.917690 0.602581 0.263740 0.519089
C147  C     C_3   0.422045 0.783117 0.283451 0.147239
C148  C     C_3   0.424902 0.723927 0.262401 -0.398846
C149  C     C_3   0.464064 0.655806 0.272351 -0.948306
C150  C     C_3   0.616701 0.120561 0.841720 0.109450
C151  C     C_3   0.681474 0.141377 0.824468 -0.381720
C152  C     C_3   0.686242 0.223808 0.820542 -0.887506
C153  C     C_3   0.923313 0.635569 0.830227 0.094219
C154  C     C_3   0.871468 0.700961 0.831001 -0.307475
C155  C     C_3   0.897522 0.762217 0.813097 -0.996624
C156  C     C_3   0.321945 0.969340 0.839896 0.145777
C157  C     C_R   0.417661 0.894791 0.263225 0.515376
C158  C     C_3   0.250257 0.931250 0.846866 -0.331345
C159  C     C_3   0.184548 0.972806 0.836077 -1.017447
C160  C     C_3   0.074284 0.350007 0.835273 0.103707
C161  C     C_3   0.129610 0.287725 0.837225 -0.297438
C162  C     C_3   0.102176 0.219204 0.823422 -1.007529
C163  C     C_3   0.159369 0.539291 0.332463 0.099948
C164  C     C_3   0.234091 0.576186 0.334475 -0.318483
C165  C     C_3   0.290945 0.537456 0.317705 -0.997783
C166  C     C_3   0.403706 0.129508 0.333754 0.094334
C167  C     C_3   0.339508 0.182740 0.334594 -0.285297
C168  C     C_R   0.081611 0.393668 0.236148 -0.241026
C169  C     C_3   0.358431 0.254553 0.321118 -1.014295
C170  C     C_3   0.838177 0.465543 0.335664 0.123401
C171  C     C_3   0.764214 0.427991 0.339080 -0.316949
C172  C     C_3   0.702999 0.471517 0.326121 -1.010034
C173  C     C_3   0.596489 0.869778 0.333878 0.095108
C174  C     C_3   0.660782 0.816636 0.334752 -0.286830
C175  C     C_3   0.642271 0.745093 0.321035 -1.013043
C176  C     C_3   0.671211 0.987277 0.900372 0.112203
C177  C     C_3   0.743998 0.014706 0.911200 -0.346293
C178  C     C_3   0.801129 0.954086 0.912186 -0.968095
C179  C     C_R   0.582437 0.104085 0.236165 -0.243264
C180  C     C_3   0.941996 0.665492 0.899170 0.097131
C181  C     C_3   0.989446 0.678706 0.923340 -0.387667
C182  C     C_3   0.008513 0.759384 0.926334 -0.952765
C183  C     C_3   0.332523 0.016019 0.908986 0.053410
C184  C     C_3   0.279697 0.996955 0.930990 -0.327097
C185  C     C_3   0.231508 0.061989 0.938063 -0.969409
C186  C     C_3   0.066329 0.344703 0.908363 0.109431
C187  C     C_3   0.122654 0.298126 0.922797 -0.288640
C188  C     C_3   0.089052 0.227369 0.932923 -1.011301
C189  C     C_3   0.177831 0.520231 0.402044 0.072665
C190  C     C_R   0.918582 0.602671 0.236482 -0.241199
C191  C     C_3   0.178252 0.473853 0.426935 -0.359638
C192  C     C_3   0.252389 0.437768 0.431302 -0.955397
C193  C     C_3   0.401873 0.137312 0.406680 0.121519
C194  C     C_3   0.335426 0.172288 0.419680 -0.281683
C195  C     C_3   0.352385 0.249101 0.429442 -0.997620
C196  C     C_3   0.835489 0.507018 0.405765 0.061394
C197  C     C_3   0.788291 0.491550 0.429682 -0.335705
C198  C     C_3   0.741129 0.557333 0.436782 -0.963677
C199  C     C_3   0.597408 0.861672 0.406806 0.121941
C200  C     C_3   0.663745 0.826098 0.419743 -0.283441
C201  C     C_R   0.417592 0.896356 0.235997 -0.243662
C202  C     C_3   0.646608 0.748924 0.429133 -0.998046
C203  C     C_R   0.596914 0.909124 0.736750 -0.238128
C204  C     C_R   0.499968 0.999912 0.429263 0.868573
C205  C     C_R   0.092598 0.590296 0.736262 -0.242621
C206  C     C_R   0.400580 0.087382 0.736107 -0.245919
C207  C     C_R   0.908852 0.399046 0.736219 -0.243695
C208  C     C_R   0.040686 0.445822 0.222448 -0.070924
C209  C     C_R   0.541449 0.052251 0.222375 -0.072463
C210  C     C_R   0.959402 0.550905 0.222614 -0.070563
C211  C     C_R   0.458611 0.948323 0.222293 -0.072322
C212  C     C_R   0.547962 0.953289 0.722795 -0.070783
C213  C     C_R   0.046843 0.542538 0.722492 -0.071691
C214  C     C_R   0.449811 0.042901 0.722486 -0.071092
C215  C     C_R   0.000182 0.500072 0.429377 0.929878
C216  C     C_R   0.954602 0.446850 0.722455 -0.071267
C217  C     C_R   0.000176 0.498230 0.236321 -0.017803
C218  C     C_R   0.500036 0.000202 0.236122 -0.015137
C219  C     C_R   0.498201 0.997632 0.736430 -0.017412
C220  C     C_R   0.000849 0.494535 0.736262 -0.015810
C221  C     C_R   0.040459 0.447696 0.195059 0.531268
C222  C     C_R   0.540303 0.051679 0.194998 0.530732
C223  C     C_R   0.959313 0.549712 0.195221 0.531209
C224  C     C_R   0.459816 0.949149 0.194922 0.530428
C225  C     C_R   0.548410 0.955116 0.695389 0.529557
C226  C     C_R   0.544537 0.950036 0.777908 -0.162907
C227  C     C_R   0.045236 0.542413 0.695118 0.530774
C228  C     C_R   0.451312 0.042113 0.695097 0.531951
C229  C     C_R   0.955715 0.447659 0.695058 0.530717
C230  C     C_R   0.977071 0.437270 0.139978 -0.100531
C231  C     C_R   0.565246 0.988636 0.140091 -0.103324
C232  C     C_R   0.022349 0.561561 0.140129 -0.100669
C233  C     C_R   0.435001 0.012352 0.140026 -0.102550
C234  C     C_R   0.486391 0.934648 0.640118 -0.102654
C235  C     C_R   0.064314 0.480534 0.640004 -0.101671
C236  C     C_R   0.515206 0.063715 0.640261 -0.101805
C237  C     C_R   0.048976 0.541154 0.777551 -0.147001
C238  C     C_R   0.935841 0.512393 0.640176 -0.102629
C239  C     C_R   0.977729 0.437283 0.112769 -0.212125
C240  C     C_R   0.565345 0.988788 0.112893 -0.214361
C241  C     C_R   0.021785 0.562091 0.112913 -0.215420
C242  C     C_R   0.434868 0.011881 0.112832 -0.211883
C243  C     C_R   0.486533 0.934853 0.612899 -0.212145
C244  C     C_R   0.064465 0.482413 0.612806 -0.212409
C245  C     C_R   0.514571 0.064195 0.613034 -0.212122
C246  C     C_R   0.935679 0.513416 0.612966 -0.213140
C247  C     C_R   0.999817 0.499807 0.099004 -0.011866
C248  C     C_R   0.448364 0.043180 0.777586 -0.117663
C249  C     C_R   0.500090 0.000224 0.099016 -0.015570
C250  C     C_R   0.500353 0.999708 0.599091 -0.014654
C251  C     C_R   0.000087 0.498711 0.599036 -0.015280
C252  C     C_R   0.999972 0.499965 0.070282 0.797003
C253  C     C_R   0.500034 0.000038 0.070290 0.799375
C254  C     C_R   0.500063 0.999952 0.570312 0.797380
C255  C     C_R   0.000030 0.499849 0.570298 0.797435
C256  C     C_R   0.999723 0.499258 0.153866 0.290406
C257  C     C_R   0.500124 0.000544 0.153807 0.296381
C258  C     C_R   0.500841 0.999017 0.653990 0.293922
C259  C     C_R   0.952964 0.447633 0.777566 -0.145277
C260  C     C_R   0.000103 0.495797 0.653871 0.293681
C261  C     C_R   0.555435 0.024158 0.859116 0.346699
C262  C     C_R   0.951033 0.542466 0.859284 0.368140
C263  C     C_R   0.433871 0.969129 0.860666 0.379363
C264  C     C_R   0.050001 0.452372 0.859877 0.396227
C265  C     C_R   0.058940 0.533867 0.359860 0.368072
C266  C     C_R   0.442559 0.033720 0.359310 0.396351
C267  C     C_R   0.944432 0.464385 0.359852 0.392153
C268  C     C_R   0.557373 0.965399 0.359411 0.395582
C269  C     C_R   0.558786 0.023076 0.886481 0.274412
C270  C     C_R   0.039931 0.443746 0.277559 -0.144800
C271  C     C_R   0.953652 0.545819 0.886640 0.356974
C272  C     C_R   0.434284 0.975363 0.887989 0.307605
C273  C     C_R   0.049173 0.452788 0.887191 0.306593
C274  C     C_R   0.059733 0.531604 0.387285 0.343084
C275  C     C_R   0.442559 0.033944 0.386613 0.317941
C276  C     C_R   0.941976 0.469256 0.387117 0.317748
C277  C     C_R   0.557261 0.965310 0.386718 0.318352
C278  C     C_R   0.497592 0.000342 0.900862 -0.336514
C279  C     C_R   0.000616 0.499210 0.900643 -0.373204
C280  C     C_R   0.000959 0.500054 0.400811 -0.355941
H1    H     H_    0.197999 0.708476 0.039556 0.162008
H2    H     H_    0.717482 0.623680 0.497983 0.160786
H3    H     H_    0.902530 0.135227 0.791314 0.262754
H4    H     H_    0.213159 0.365860 0.301405 0.177091
H5    H     H_    0.195059 0.440355 0.280031 0.102575
H6    H     H_    0.264005 0.291216 0.266078 0.240059
H7    H     H_    0.238002 0.358181 0.242054 0.228701
H8    H     H_    0.322013 0.449238 0.261579 0.273917
H9    H     H_    0.370108 0.366622 0.253267 0.276524
H10   H     H_    0.347346 0.385118 0.286866 0.269732
H11   H     H_    0.602298 0.239743 0.301910 0.192085
H12   H     H_    0.521512 0.199497 0.288854 0.101093
H13   H     H_    0.299052 0.794596 0.539699 0.161101
H14   H     H_    0.633126 0.291016 0.257193 0.248188
H15   H     H_    0.546812 0.256447 0.245497 0.220484
H16   H     H_    0.481942 0.331324 0.279735 0.267029
H17   H     H_    0.534552 0.386270 0.257344 0.275858
H18   H     H_    0.569148 0.368651 0.289698 0.266495
H19   H     H_    0.788204 0.628433 0.301921 0.177664
H20   H     H_    0.805318 0.555353 0.279839 0.099446
H21   H     H_    0.737380 0.705924 0.267227 0.240060
H22   H     H_    0.762167 0.640113 0.242690 0.228557
H23   H     H_    0.677936 0.548578 0.262022 0.272071
H24   H     H_    0.282568 0.376287 0.498750 0.161097
H25   H     H_    0.630458 0.631812 0.253989 0.276931
H26   H     H_    0.653392 0.612176 0.287533 0.271880
H27   H     H_    0.397773 0.759171 0.301371 0.191399
H28   H     H_    0.478604 0.800466 0.288821 0.101947
H29   H     H_    0.368447 0.709014 0.256438 0.247956
H30   H     H_    0.454449 0.745055 0.245060 0.220717
H31   H     H_    0.519888 0.669928 0.279160 0.267091
H32   H     H_    0.468349 0.615067 0.256404 0.276135
H33   H     H_    0.433130 0.631058 0.288740 0.265017
H34   H     H_    0.622856 0.148051 0.860973 0.172829
H35   H     H_    0.376395 0.282368 0.498634 0.159065
H36   H     H_    0.565429 0.139659 0.832133 0.163881
H37   H     H_    0.732942 0.121784 0.833641 0.228641
H38   H     H_    0.675635 0.114451 0.805151 0.224726
H39   H     H_    0.635760 0.244483 0.811029 0.276263
H40   H     H_    0.733646 0.236817 0.807864 0.275735
H41   H     H_    0.693759 0.251717 0.839581 0.266586
H42   H     H_    0.924923 0.615250 0.809845 0.151083
H43   H     H_    0.979098 0.654368 0.835936 0.120213
H44   H     H_    0.815995 0.683405 0.824777 0.251644
H45   H     H_    0.867770 0.722064 0.851249 0.208332
H46   H     H_    0.205493 0.700645 0.539630 0.162913
H47   H     H_    0.952421 0.781595 0.819228 0.262123
H48   H     H_    0.858668 0.808650 0.814160 0.272549
H49   H     H_    0.900088 0.742878 0.792594 0.269823
H50   H     H_    0.325438 0.973052 0.818339 0.146806
H51   H     H_    0.320976 0.025966 0.847890 0.134748
H52   H     H_    0.250289 0.875085 0.838661 0.239708
H53   H     H_    0.245276 0.927027 0.868404 0.234681
H54   H     H_    0.183195 0.029233 0.843997 0.266944
H55   H     H_    0.133425 0.944387 0.841782 0.274791
H56   H     H_    0.187178 0.975114 0.814458 0.269175
H57   H     H_    0.623561 0.717587 0.497999 0.157941
H58   H     H_    0.064889 0.361761 0.814302 0.145144
H59   H     H_    0.021750 0.331510 0.844186 0.114199
H60   H     H_    0.182062 0.304990 0.828220 0.249234
H61   H     H_    0.139978 0.274799 0.858070 0.222471
H62   H     H_    0.049792 0.200647 0.832105 0.266000
H63   H     H_    0.143180 0.174923 0.825589 0.272525
H64   H     H_    0.093981 0.230226 0.802319 0.270004
H65   H     H_    0.142261 0.540700 0.311698 0.148467
H66   H     H_    0.165057 0.481240 0.338797 0.128204
H67   H     H_    0.229529 0.633955 0.328009 0.249099
H68   H     H_    0.791241 0.302658 0.539464 0.164876
H69   H     H_    0.252706 0.575806 0.355080 0.208489
H70   H     H_    0.295661 0.479171 0.323474 0.262724
H71   H     H_    0.344947 0.563999 0.320381 0.269382
H72   H     H_    0.275609 0.541059 0.296793 0.269825
H73   H     H_    0.416112 0.117838 0.312987 0.145442
H74   H     H_    0.452220 0.156539 0.342831 0.112291
H75   H     H_    0.291479 0.157869 0.324731 0.249491
H76   H     H_    0.324568 0.193993 0.355189 0.223397
H77   H     H_    0.406112 0.280717 0.330733 0.263331
H78   H     H_    0.311116 0.292244 0.322391 0.273519
H79   H     H_    0.144630 0.664556 0.948206 0.157538
H80   H     H_    0.371307 0.244875 0.300241 0.271822
H81   H     H_    0.849351 0.469898 0.314463 0.141214
H82   H     H_    0.834750 0.521793 0.343977 0.125008
H83   H     H_    0.766342 0.372600 0.330263 0.244300
H84   H     H_    0.752040 0.421849 0.360186 0.228014
H85   H     H_    0.699907 0.527349 0.334502 0.264365
H86   H     H_    0.649965 0.443588 0.329406 0.272087
H87   H     H_    0.712568 0.475402 0.304792 0.270719
H88   H     H_    0.584153 0.881674 0.313107 0.145530
H89   H     H_    0.547986 0.842579 0.342869 0.112071
H90   H     H_    0.445607 0.254475 0.008987 0.149415
H91   H     H_    0.708907 0.841853 0.325087 0.249580
H92   H     H_    0.675419 0.804924 0.355361 0.223065
H93   H     H_    0.594675 0.718448 0.330509 0.263293
H94   H     H_    0.689782 0.707592 0.322245 0.274452
H95   H     H_    0.629435 0.755265 0.300169 0.271662
H96   H     H_    0.681322 0.963503 0.880691 0.185883
H97   H     H_    0.649659 0.943879 0.913474 0.117310
H98   H     H_    0.764683 0.059557 0.898607 0.229652
H99   H     H_    0.735692 0.036337 0.931204 0.216152
H100  H     H_    0.783660 0.910461 0.925815 0.271388
H101  H     H_    0.860226 0.330910 0.948565 0.142417
H102  H     H_    0.853835 0.976742 0.919223 0.270794
H103  H     H_    0.809621 0.930403 0.892486 0.265327
H104  H     H_    0.897235 0.706214 0.898882 0.158178
H105  H     H_    0.975046 0.676247 0.881346 0.114482
H106  H     H_    0.960541 0.660078 0.941153 0.216526
H107  H     H_    0.040751 0.646925 0.921439 0.202071
H108  H     H_    0.040012 0.778670 0.909157 0.265272
H109  H     H_    0.042179 0.767272 0.944123 0.267048
H110  H     H_    0.957978 0.792522 0.928321 0.270643
H111  H     H_    0.300448 0.034799 0.891873 0.144712
H112  H     H_    0.217424 0.123642 0.997720 0.161732
H113  H     H_    0.657121 0.849143 0.947468 0.152220
H114  H     H_    0.367352 0.062250 0.915764 0.143147
H115  H     H_    0.244347 0.950716 0.924860 0.227201
H116  H     H_    0.311353 0.980401 0.948526 0.201513
H117  H     H_    0.265610 0.108608 0.944691 0.268018
H118  H     H_    0.193904 0.046409 0.954100 0.263058
H119  H     H_    0.198399 0.079153 0.920958 0.270650
H120  H     H_    0.046249 0.313646 0.891137 0.117981
H121  H     H_    0.019542 0.355196 0.921708 0.104575
H122  H     H_    0.168487 0.284803 0.909418 0.224872
H123  H     H_    0.144975 0.329504 0.939537 0.245159
H124  H     H_    0.834388 0.647260 0.946647 0.194047
H125  H     H_    0.044025 0.239474 0.946773 0.261186
H126  H     H_    0.131402 0.195098 0.943300 0.280356
H127  H     H_    0.067546 0.194313 0.916467 0.269972
H128  H     H_    0.226529 0.556317 0.402268 0.158784
H129  H     H_    0.183994 0.483998 0.384739 0.122062
H130  H     H_    0.165038 0.508493 0.444074 0.208390
H131  H     H_    0.136408 0.430282 0.425256 0.227174
H132  H     H_    0.266703 0.402609 0.414421 0.269904
H133  H     H_    0.250167 0.403340 0.449099 0.263587
H134  H     H_    0.295411 0.479869 0.433982 0.263966
H135  H     H_    0.665628 0.143952 0.948139 0.173303
H136  H     H_    0.417093 0.170429 0.389311 0.112964
H137  H     H_    0.448261 0.137901 0.420737 0.110143
H138  H     H_    0.289632 0.174975 0.405460 0.225654
H139  H     H_    0.317800 0.138104 0.436434 0.254174
H140  H     H_    0.397187 0.247512 0.444060 0.259480
H141  H     H_    0.303007 0.272448 0.438828 0.283268
H142  H     H_    0.368576 0.284859 0.412929 0.265603
H143  H     H_    0.799187 0.517545 0.388824 0.145645
H144  H     H_    0.867160 0.557960 0.409736 0.141307
H145  H     H_    0.752166 0.444174 0.425641 0.224902
H146  H     H_    0.254641 0.445440 0.008990 0.149888
H147  H     H_    0.824146 0.478348 0.446542 0.205295
H148  H     H_    0.776163 0.604791 0.441849 0.267333
H149  H     H_    0.706699 0.543781 0.453924 0.262284
H150  H     H_    0.704852 0.572230 0.420235 0.268449
H151  H     H_    0.581881 0.828872 0.389396 0.113007
H152  H     H_    0.551129 0.861172 0.420876 0.109731
H153  H     H_    0.709597 0.823876 0.405574 0.225765
H154  H     H_    0.681346 0.859609 0.436669 0.253262
H155  H     H_    0.601725 0.750019 0.443690 0.259695
H156  H     H_    0.695883 0.725080 0.438480 0.283178
H157  H     H_    0.337564 0.852575 0.947818 0.180686
H158  H     H_    0.630446 0.713842 0.412437 0.265066
H159  H     H_    0.641281 0.167087 0.448382 0.148737
H160  H     H_    0.945853 0.754748 0.508592 0.149037
H161  H     H_    0.359817 0.831520 0.448591 0.148848
H162  H     H_    0.053958 0.244984 0.508246 0.149857
H163  H     H_    0.244764 0.053959 0.508012 0.151346
H164  H     H_    0.799140 0.294576 0.039666 0.161062
H165  H     H_    0.165999 0.643858 0.448130 0.179431
H166  H     H_    0.754925 0.945697 0.508550 0.150557
H167  H     H_    0.840388 0.348731 0.447541 0.184123
H168  H     H_    0.189864 0.713985 0.907534 0.153159
H169  H     H_    0.477849 0.382221 0.013974 0.144350
H170  H     H_    0.815793 0.280211 0.907855 0.141971
H171  H     H_    0.687108 0.787393 0.907372 0.151817
H172  H     H_    0.773698 0.684679 0.907200 0.172839
H173  H     H_    0.717968 0.187558 0.907647 0.157658
H174  H     H_    0.382519 0.477550 0.013974 0.144430
H175  H     H_    0.720878 0.813567 0.038577 0.168377
H176  H     H_    0.286494 0.807976 0.907378 0.179566
H177  H     H_    0.689033 0.213590 0.407587 0.152610
H178  H     H_    0.978197 0.882591 0.513130 0.137114
H179  H     H_    0.315196 0.781251 0.407879 0.151616
H180  H     H_    0.021500 0.117050 0.512258 0.137419
H181  H     H_    0.116759 0.021690 0.512136 0.137471
H182  H     H_    0.217800 0.688391 0.407617 0.175464
H183  H     H_    0.882887 0.977909 0.513101 0.137238
H184  H     H_    0.788918 0.304031 0.407244 0.182931
H185  H     H_    0.113845 0.353520 0.225782 0.200253
H186  H     H_    0.814313 0.720433 0.038334 0.170597
H187  H     H_    0.614446 0.144660 0.225888 0.203872
H188  H     H_    0.886068 0.642947 0.226248 0.199835
H189  H     H_    0.385553 0.855927 0.225652 0.203956
H190  H     H_    0.636264 0.875384 0.726586 0.203250
H191  H     H_    0.127997 0.627915 0.725973 0.202395
H192  H     H_    0.362853 0.122415 0.725688 0.200110
H193  H     H_    0.873101 0.361795 0.725904 0.202247
H194  H     H_    0.958849 0.389005 0.150292 0.156153
H195  H     H_    0.615784 0.979032 0.150540 0.152487
H196  H     H_    0.040566 0.609606 0.150566 0.155894
H197  H     H_    0.705537 0.200684 0.039626 0.162653
H198  H     H_    0.384463 0.022020 0.150424 0.153105
H199  H     H_    0.474683 0.884440 0.650458 0.154074
H200  H     H_    0.114190 0.467204 0.650336 0.154300
H201  H     H_    0.526884 0.113713 0.650718 0.153473
H202  H     H_    0.886034 0.524830 0.650646 0.154560
H203  H     H_    0.960103 0.388717 0.102503 0.166213
H204  H     H_    0.616347 0.979411 0.102749 0.168575
H205  H     H_    0.039459 0.610838 0.102757 0.165375
H206  H     H_    0.383846 0.021137 0.102643 0.170666
H207  H     H_    0.475128 0.884407 0.602676 0.168825
H208  H     H_    0.123496 0.217587 0.997661 0.162173
H209  H     H_    0.114766 0.470437 0.602566 0.169903
H210  H     H_    0.525764 0.114873 0.602912 0.168266
H211  H     H_    0.885357 0.526387 0.602848 0.169824
H212  H     H_    0.729367 0.887444 0.803462 0.187884
H213  H     H_    0.691286 0.968302 0.789698 0.124590
H214  H     H_    0.787458 0.854101 0.761166 0.245396
H215  H     H_    0.749158 0.934626 0.746191 0.226782
H216  H     H_    0.817812 0.013817 0.777367 0.267135
H217  H     H_    0.878219 0.955026 0.759171 0.275899
H218  H     H_    0.856693 0.933495 0.792608 0.263723
H219  H     H_    0.291558 0.802268 0.039513 0.164570
H220  H     H_    0.116743 0.721851 0.802532 0.190243
H221  H     H_    0.037050 0.693388 0.785314 0.099959
H222  H     H_    0.169313 0.775218 0.761417 0.245951
H223  H     H_    0.087329 0.749545 0.744182 0.222721
H224  H     H_    0.012822 0.828135 0.773836 0.272415
H225  H     H_    0.083611 0.879831 0.757804 0.272249
H226  H     H_    0.094748 0.853698 0.791485 0.265712
H227  H     H_    0.267279 0.096497 0.800757 0.180739
H228  H     H_    0.286751 0.031281 0.775785 0.100944
H229  H     H_    0.213064 0.182067 0.768677 0.241212
H230  H     H_    0.697838 0.208727 0.539584 0.162906
H231  H     H_    0.235838 0.120893 0.742387 0.226303
H232  H     H_    0.155162 0.024688 0.761666 0.270142
H233  H     H_    0.105704 0.107959 0.755198 0.274806
H234  H     H_    0.132038 0.085693 0.788151 0.270218
H235  H     H_    0.880043 0.267331 0.802544 0.185288
H236  H     H_    0.962046 0.296517 0.786991 0.104103
H237  H     H_    0.833736 0.215053 0.760255 0.241454
H238  H     H_    0.918274 0.241234 0.744801 0.224772
H239  H     H_    0.987845 0.162590 0.776357 0.269682
H240  H     H_    0.921583 0.111103 0.757906 0.276173
N1    N     N_R   0.493083 0.994095 0.818160 -0.302880
N2    N     N_R   0.000678 0.494867 0.817898 -0.319059
N3    N     N_R   0.001600 0.497933 0.318056 -0.314490
N4    N     N_R   0.500104 0.999648 0.317726 -0.319763
N5    N     N_R   0.999838 0.498890 0.181966 -0.352599
N6    N     N_R   0.500081 0.000467 0.181841 -0.353286
N7    N     N_R   0.500258 0.998796 0.682082 -0.352999
N8    N     N_R   0.000376 0.495199 0.681941 -0.352779
O1    O     O_3   1.000000 0.500000 0.999730 -0.487484
O2    O     O_R   0.000000 0.561020 0.441690 -0.623092
O3    O     O_R   0.438980 1.000000 0.441690 -0.608737
O4    O     O_R   1.000000 0.438980 0.441690 -0.636159
O5    O     O_R   1.000000 0.560630 0.057780 -0.641730
O6    O     O_R   0.439370 0.000000 0.057780 -0.641883
O7    O     O_R   1.000000 0.439370 0.057780 -0.639953
O8    O     O_R   0.560630 0.000000 0.057780 -0.643804
O9    O     O_R   0.500000 0.060630 0.557780 -0.641204
O10   O     O_R   0.939370 0.500000 0.557780 -0.641872
O11   O     O_R   0.500000 0.939370 0.557780 -0.641670
O12   O     O_3   0.500000 1.000000 0.999730 -0.485716
O13   O     O_R   0.060630 0.500000 0.557780 -0.642043
O14   O     O_R   0.854090 0.585380 0.984510 -0.648038
O15   O     O_R   0.414620 0.854090 0.984510 -0.639667
O16   O     O_R   0.145910 0.414620 0.984510 -0.645592
O17   O     O_R   0.585380 0.145910 0.984510 -0.647507
O18   O     O_R   0.145910 0.585380 0.984510 -0.648934
O19   O     O_R   0.585380 0.854090 0.984510 -0.644080
O20   O     O_R   0.854090 0.414620 0.984510 -0.639214
O21   O     O_R   0.414620 0.145910 0.984510 -0.646085
O22   O     O_R   0.354090 0.085380 0.484510 -0.652188
O23   O     O_3   0.500000 0.000000 0.499730 -0.485897
O24   O     O_R   0.914620 0.354090 0.484510 -0.649758
O25   O     O_R   0.645910 0.914620 0.484510 -0.651455
O26   O     O_R   0.085380 0.645910 0.484510 -0.646751
O27   O     O_R   0.645910 0.085380 0.484510 -0.646220
O28   O     O_R   0.085380 0.354090 0.484510 -0.643888
O29   O     O_R   0.354090 0.914620 0.484510 -0.646111
O30   O     O_R   0.914620 0.645910 0.484510 -0.644399
O31   O     O_R   0.085720 0.353770 0.014950 -0.632274
O32   O     O_R   0.646230 0.085720 0.014950 -0.635770
O33   O     O_R   0.914280 0.646230 0.014950 -0.635831
O34   O     O_3   0.000000 0.500000 0.499730 -0.486896
O35   O     O_R   0.353770 0.914280 0.014950 -0.637419
O36   O     O_R   0.914280 0.353770 0.014950 -0.639680
O37   O     O_R   0.353770 0.085720 0.014950 -0.633966
O38   O     O_R   0.085720 0.646230 0.014950 -0.637445
O39   O     O_R   0.646230 0.914280 0.014950 -0.640525
O40   O     O_R   0.585720 0.853770 0.514950 -0.633088
O41   O     O_R   0.146230 0.585720 0.514950 -0.635588
O42   O     O_R   0.414280 0.146230 0.514950 -0.633055
O43   O     O_R   0.853770 0.414280 0.514950 -0.635226
O44   O     O_R   0.414280 0.853770 0.514950 -0.638435
O45   O     O_R   0.061020 0.500000 0.941690 -0.614402
O46   O     O_R   0.853770 0.585720 0.514950 -0.634060
O47   O     O_R   0.585720 0.146230 0.514950 -0.639068
O48   O     O_R   0.146230 0.414280 0.514950 -0.635010
O49   O     O_2   0.414805 0.095551 0.818497 -0.572409
O50   O     O_2   0.900757 0.414998 0.818740 -0.525647
O51   O     O_2   0.576257 0.896791 0.819021 -0.510068
O52   O     O_2   0.101165 0.574122 0.818671 -0.518096
O53   O     O_2   0.937358 0.608701 0.318836 -0.522319
O54   O     O_2   0.409108 0.909757 0.318499 -0.517115
O55   O     O_2   0.065136 0.386747 0.318586 -0.521062
O56   O     O_R   0.500000 0.061020 0.941690 -0.638672
O57   O     O_2   0.591108 0.089519 0.318662 -0.517368
O58   O     O_2   0.081299 0.399276 0.181632 -0.562190
O59   O     O_2   0.578465 0.102392 0.181626 -0.562314
O60   O     O_2   0.918304 0.598443 0.181948 -0.563523
O61   O     O_2   0.421689 0.898548 0.181479 -0.562554
O62   O     O_2   0.597131 0.914132 0.682159 -0.561702
O63   O     O_2   0.087562 0.589766 0.681772 -0.563028
O64   O     O_2   0.403593 0.083692 0.681578 -0.562363
O65   O     O_2   0.913050 0.400767 0.681639 -0.563416
O66   O     O_3   0.649029 0.866342 0.776651 -0.600589
O67   O     O_R   0.938980 0.500000 0.941690 -0.623704
O68   O     O_3   0.137832 0.641036 0.775990 -0.592612
O69   O     O_3   0.347790 0.130948 0.775777 -0.592256
O70   O     O_3   0.862732 0.348915 0.775922 -0.599857
O71   O     O_3   0.129290 0.344682 0.275884 -0.590110
O72   O     O_3   0.623808 0.158096 0.275833 -0.594550
O73   O     O_3   0.871710 0.650879 0.276410 -0.590390
O74   O     O_3   0.376424 0.841692 0.275569 -0.594511
O75   O     O_3   0.616197 0.044079 0.844797 -0.627142
O76   O     O_3   0.895411 0.579789 0.846527 -0.578896
O77   O     O_3   0.381067 0.926353 0.848798 -0.598500
O78   O     O_R   0.500000 0.938980 0.941690 -0.638257
O79   O     O_3   0.104049 0.412912 0.847265 -0.570807
O80   O     O_3   0.108335 0.579473 0.347366 -0.581803
O81   O     O_3   0.383290 0.063738 0.346303 -0.567572
O82   O     O_3   0.893064 0.421672 0.347159 -0.584422
O83   O     O_3   0.616766 0.935429 0.346519 -0.567751
O84   O     O_3   0.621433 0.046200 0.899151 -0.638891
O85   O     O_3   0.909703 0.595020 0.899835 -0.597651
O86   O     O_3   0.373879 0.953399 0.902218 -0.616769
O87   O     O_3   0.099705 0.410771 0.900572 -0.565114
O88   O     O_3   0.115201 0.565762 0.401050 -0.606174
O89   O     O_R   0.561020 1.000000 0.441690 -0.608301
O90   O     O_3   0.383861 0.065034 0.399489 -0.561924
O91   O     O_3   0.880513 0.445674 0.400422 -0.610647
O92   O     O_3   0.615737 0.933965 0.399708 -0.561911
Zn1   Zn    Zn3+2 1.000000 0.586680 0.021470 0.967830
Zn2   Zn    Zn3+2 0.500000 0.913510 0.977990 0.974704
Zn3   Zn    Zn3+2 0.086490 0.500000 0.977990 0.968428
Zn4   Zn    Zn3+2 0.500000 0.086490 0.977990 0.965662
Zn5   Zn    Zn3+2 0.413510 0.000000 0.477990 0.965853
Zn6   Zn    Zn3+2 1.000000 0.413510 0.477990 0.965114
Zn7   Zn    Zn3+2 0.586490 0.000000 0.477990 0.966146
Zn8   Zn    Zn3+2 1.000000 0.586490 0.477990 0.972138
Zn9   Zn    Zn3+2 0.413320 0.000000 0.021470 0.972126
Zn10  Zn    Zn3+2 0.000000 0.413320 0.021470 0.971491
Zn11  Zn    Zn3+2 0.586680 0.000000 0.021470 0.968869
Zn12  Zn    Zn3+2 0.500000 0.086680 0.521470 0.966770
Zn13  Zn    Zn3+2 0.913320 0.500000 0.521470 0.968511
Zn14  Zn    Zn3+2 0.500000 0.913320 0.521470 0.967111
Zn15  Zn    Zn3+2 0.086680 0.500000 0.521470 0.967557
Zn16  Zn    Zn3+2 0.913510 0.500000 0.977990 0.971455

loop_
_geom_bond_atom_site_label_1
_geom_bond_atom_site_label_2
_ccdc_geom_bond_type
C145  H26   S    
C260  N8    S    
C245  C250  A    
O56   Zn4   S    
C10   C85   S    
C159  H55   S    
C181  H107  S    
C26   H79   S    
C266  O81   S    
C69   C78   A    
C229  O65   S    
C247  C252  S    
C271  O85   S    
C249  C253  S    
C188  H127  S    
C167  H76   S    
C200  H153  S    
C193  H136  S    
C177  H98   S    
C33   H157  S    
C92   C109  A    
O3    Zn5   S    
C142  H16   S    
C143  C144  S    
C94   C111  A    
C175  H93   S    
C160  H58   S    
C108  C109  A    
C73   C74   A    
C36   C53   A    
C262  C271  A    
C124  C168  A    
C156  H51   S    
O1    Zn1   S    
C22   O28   A    
C38   C55   A    
C276  C280  A    
C78   C96   A    
C272  C278  A    
C22   C91   S    
C168  C208  A    
C130  H228  S    
C110  H46   S    
C104  H219  S    
C53   H178  S    
C85   C103  A    
C93   C110  A    
C166  H74   S    
C128  H222  S    
C206  C214  A    
C271  C279  A    
C240  H204  S    
C273  O87   S    
O28   Zn6   S    
C240  C249  A    
C176  H96   S    
C243  C250  A    
C118  N2    A    
C3    C204  S    
C174  H91   S    
C133  O70   S    
C236  C245  A    
C203  H190  S    
C100  H186  S    
O11   Zn14  S    
C143  H20   S    
O32   Zn11  S    
C150  H36   S    
C7    N4    S    
C24   C120  A    
C40   C58   A    
C67   C80   A    
C191  C192  S    
C123  O66   S    
C193  O90   S    
C11   O17   A    
C140  C141  S    
C205  H191  S    
C235  H200  S    
O2    Zn8   S    
C144  C145  S    
C153  O76   S    
C98   C102  A    
C24   C68   A    
C164  H69   S    
C25   C88   S    
C102  H197  S    
C227  O63   S    
C123  H213  S    
C242  H206  S    
C7    C266  A    
C28   C66   A    
C183  C184  S    
C27   H90   S    
C202  H158  S    
C90   C205  A    
C39   C56   A    
C266  C275  A    
C191  H131  S    
C137  O71   S    
C171  C172  S    
C154  C155  S    
C97   C103  A    
C19   C94   S    
O1    Zn10  S    
C183  H111  S    
C212  C225  A    
C108  H24   S    
C118  C237  A    
O26   Zn8   S    
C223  N5    A    
C83   C100  A    
C96   C104  A    
C162  H62   S    
C158  C159  S    
C11   C84   S    
C107  C110  A    
O9    Zn12  S    
C139  H9    S    
C160  O79   S    
C11   O32   A    
C115  C248  A    
C44   C50   A    
C208  C217  A    
C234  C258  A    
C211  C218  A    
C98   H164  S    
C186  O87   S    
C241  C247  A    
C242  C249  A    
C112  O56   A    
C40   H165  S    
C204  O3    A    
C231  H195  S    
C196  C197  S    
C35   C219  A    
C233  C257  A    
C204  O89   A    
C127  H221  S    
C225  O62   S    
O48   Zn15  S    
C236  C258  A    
C125  H215  S    
O30   Zn8   S    
C63   C84   A    
C156  C158  S    
C130  C131  S    
C190  C210  A    
C32   C62   A    
C140  H11   S    
C192  H134  S    
C170  H82   S    
C65   C82   A    
C105  H230  S    
C138  H7    S    
C207  C216  A    
O15   Zn2   S    
C139  H8    S    
C152  H39   S    
C263  O77   S    
C112  C278  S    
C236  H201  S    
C233  H198  S    
C182  H110  S    
C244  H209  S    
O29   Zn5   S    
C18   O43   A    
C5    N2    S    
C194  H138  S    
C130  O69   S    
C33   C61   A    
C193  C194  S    
O16   Zn3   S    
C160  H59   S    
C140  O72   S    
C171  H83   S    
C20   O41   A    
C101  C248  A    
C202  H155  S    
C189  H129  S    
O36   Zn10  S    
C144  H21   S    
O43   Zn13  S    
C252  O5    A    
C163  H66   S    
C23   O29   A    
C196  O91   S    
C80   C97   A    
C8    C83   S    
C84   C102  A    
C127  O68   S    
C147  C148  S    
C9    O35   A    
C86   C104  A    
C128  C129  S    
C126  H217  S    
C141  H14   S    
C167  C169  S    
C199  O92   S    
C258  N7    S    
C231  C257  A    
C265  O80   S    
C124  C270  A    
C125  C126  S    
C29   C47   A    
C178  H102  S    
C152  H41   S    
C30   C48   A    
C157  O74   S    
C1    C279  S    
C2    C68   A    
C171  H84   S    
C3    C277  A    
C13   C57   A    
C170  C171  S    
O13   Zn15  S    
C42   C70   A    
C184  C185  S    
C206  H192  S    
C103  H208  S    
C189  C191  S    
C154  H45   S    
C174  C175  S    
O21   Zn4   S    
C178  H103  S    
C52   C60   A    
O27   Zn7   S    
C27   C44   A    
C127  H220  S    
C99   C100  A    
C137  H4    S    
C235  C260  A    
C30   H124  S    
O10   Zn13  S    
O67   Zn16  S    
C29   H113  S    
C261  C269  A    
C16   O21   A    
C41   C71   A    
C156  H50   S    
C180  H104  S    
C126  H216  S    
C155  H49   S    
C70   C77   A    
C18   C95   S    
C230  C239  A    
C72   C75   A    
C55   H180  S    
O1    Zn3   S    
C195  H142  S    
C106  C111  A    
C228  O64   S    
C117  C226  A    
C8    O33   A    
C46   C220  A    
C224  N6    A    
C222  N6    A    
C275  O90   S    
C31   C63   A    
C169  H78   S    
C165  H71   S    
C138  C139  S    
C99   H175  S    
C6    N3    S    
C161  H61   S    
C24   C157  A    
O12   Zn2   S    
C223  O60   S    
C158  H53   S    
C147  H28   S    
C124  O71   S    
C151  H38   S    
C117  N1    A    
C115  N1    A    
C231  C240  A    
C106  H2    S    
C129  H224  S    
O40   Zn14  S    
C10   O16   A    
C182  H108  S    
O1    Zn16  S    
C87   C105  A    
C185  H117  S    
C239  H203  S    
C172  H85   S    
C121  N3    A    
C23   C89   S    
C216  C229  A    
C50   H174  S    
C116  C259  A    
C41   H166  S    
C29   C65   A    
C245  H210  S    
C200  C202  S    
C252  O7    A    
O14   Zn16  S    
C177  C178  S    
C116  N2    A    
C188  H125  S    
C189  H128  S    
C131  H231  S    
C157  C201  A    
C12   O18   A    
O45   Zn3   S    
C187  H122  S    
C179  H187  S    
C178  H100  S    
C52   H177  S    
C38   C74   A    
C145  H25   S    
C176  H97   S    
C26   C69   A    
C190  H188  S    
C176  C177  S    
C268  O83   S    
C181  H106  S    
C40   C72   A    
O34   Zn15  S    
C216  C220  A    
C73   C92   A    
C153  H43   S    
C20   O26   A    
C3    C275  A    
C167  H75   S    
C2    C135  A    
C200  H154  S    
C215  C280  S    
C276  O91   S    
C39   H163  S    
C186  C187  S    
C163  O80   S    
C48   H172  S    
C136  H239  S    
C264  O79   S    
C142  H17   S    
C246  H211  S    
C198  H149  S    
C14   O39   A    
O34   Zn8   S    
C39   C73   A    
C37   C75   A    
C197  C198  S    
C207  H193  S    
C27   C67   A    
C215  O4    A    
C75   C89   A    
C205  C213  A    
C233  C242  A    
C199  C200  S    
C199  H152  S    
C77   C87   A    
C10   O31   A    
C230  H194  S    
C150  C151  S    
C195  H140  S    
C201  C211  A    
O46   Zn13  S    
C12   O38   A    
C153  H42   S    
C145  H23   S    
C101  O69   S    
C148  H29   S    
C19   O40   A    
C250  C254  S    
C149  H32   S    
C55   C56   A    
C196  H143  S    
C150  H34   S    
C209  C222  A    
C244  C251  A    
C30   C64   A    
C118  O52   S    
C82   C99   A    
C243  H207  S    
C169  H80   S    
C174  H92   S    
C150  O75   S    
O7    Zn10  S    
C161  C162  S    
C143  H19   S    
O39   Zn11  S    
C181  C182  S    
O12   Zn4   S    
C221  O58   S    
C35   C248  A    
C261  O75   S    
C210  C217  A    
C166  O81   S    
C113  C207  A    
C272  O86   S    
C164  C165  S    
O20   Zn16  S    
C134  H237  S    
C230  C256  A    
C34   C77   A    
C71   C76   A    
C123  C125  S    
C81   C98   A    
C185  H119  S    
C95   C114  A    
C193  H137  S    
O23   Zn12  S    
C172  H87   S    
C173  H89   S    
C221  N5    A    
C28   H101  S    
C239  C247  A    
C46   C237  A    
C45   H170  S    
C32   H146  S    
C16   O37   A    
C21   O27   A    
O31   Zn10  S    
C155  H48   S    
C228  N7    A    
C151  C152  S    
C131  H229  S    
C132  H233  S    
C143  O73   S    
C256  N5    S    
C255  O13   A    
C79   C226  A    
C234  H199  S    
C17   O42   A    
C269  O84   S    
C194  C195  S    
C63   C66   A    
C154  H44   S    
C159  H56   S    
C173  H88   S    
O34   Zn13  S    
C31   C49   A    
C213  C220  A    
C2    C122  A    
C23   O44   A    
C267  C276  A    
C277  O92   S    
C253  O6    A    
C132  H232  S    
C177  H99   S    
C227  N8    A    
C14   O19   A    
O22   Zn5   S    
C257  N6    S    
C97   H112  S    
O78   Zn2   S    
C175  H94   S    
C31   H135  S    
C125  H214  S    
C232  C241  A    
O34   Zn6   S    
C74   C91   A    
C254  O9    A    
C64   C83   A    
C241  H205  S    
C213  C227  A    
C215  O2    A    
O41   Zn15  S    
C192  H132  S    
C251  C255  S    
O38   Zn1   S    
C133  H235  S    
C201  H189  S    
C89   C107  A    
O42   Zn12  S    
C152  H40   S    
C147  O74   S    
C130  H227  S    
O44   Zn14  S    
O19   Zn2   S    
C166  H73   S    
C72   C93   A    
C62   C67   A    
C47   H171  S    
C194  H139  S    
O23   Zn7   S    
C133  C134  S    
C14   C82   S    
C127  C128  S    
C15   O20   A    
C202  H156  S    
C180  C181  S    
C36   H160  S    
C144  H22   S    
C46   C259  A    
C179  C209  A    
C225  N7    A    
O8    Zn11  S    
C210  C223  A    
C90   C237  A    
C91   C108  A    
C133  H236  S    
C37   H161  S    
C56   H181  S    
C96   H1    S    
C187  H123  S    
C126  H218  S    
C79   O66   S    
C107  H13   S    
C149  H33   S    
C212  C219  A    
C33   C51   A    
C132  H234  S    
C34   C52   A    
C264  C273  A    
C162  H63   S    
C64   C65   A    
C187  C188  S    
C162  H64   S    
C160  C161  S    
C66   C81   A    
O4    Zn6   S    
C183  O86   S    
C43   C51   A    
C57   C217  A    
C57   C270  A    
C211  C224  A    
C268  C277  A    
C122  O57   S    
C170  H81   S    
C17   O22   A    
C170  O82   S    
C184  H116  S    
C129  H225  S    
C235  C244  A    
C61   C86   A    
C9    O15   A    
C159  H54   S    
C111  H57   S    
C6    C267  A    
C113  C259  A    
C16   C80   S    
C4    N1    S    
C119  O53   S    
C25   O30   A    
C139  H10   S    
C192  H133  S    
O6    Zn9   S    
C20   C93   S    
C21   C87   S    
C253  O8    A    
C35   C226  A    
C120  O54   S    
C163  C164  S    
C232  C256  A    
C119  N3    A    
C195  H141  S    
C53   C59   A    
C34   H159  S    
C15   C81   S    
C71   C94   A    
C274  O88   S    
C173  C174  S    
C90   O68   S    
C273  C279  A    
O23   Zn14  S    
C113  O70   S    
C274  C280  A    
C209  C218  A    
C169  H77   S    
C43   H168  S    
C214  C219  A    
C238  H202  S    
C176  O84   S    
C161  H60   S    
O37   Zn9   S    
C180  O85   S    
C141  H15   S    
C140  H12   S    
C180  H105  S    
C147  H27   S    
C151  H37   S    
C189  O88   S    
C173  O83   S    
C59   H183  S    
C184  H115  S    
C136  H3    S    
C18   O24   A    
C36   C76   A    
O35   Zn9   S    
C129  H226  S    
C182  H109  S    
C168  H185  S    
O24   Zn6   S    
C156  O77   S    
O23   Zn5   S    
C12   C78   S    
C5    C264  A    
C238  C260  A    
C117  O51   S    
C45   C49   A    
C214  C228  A    
C76   C88   A    
C135  O72   S    
C234  C243  A    
C188  H126  S    
C109  H35   S    
C198  H150  S    
C238  C246  A    
C224  O61   S    
C17   C92   S    
C13   C146  A    
O25   Zn7   S    
C262  O76   S    
C196  H144  S    
C255  O10   A    
C13   C119  A    
C26   C43   A    
C62   C85   A    
C28   C45   A    
C21   O47   A    
C51   H176  S    
C123  H212  S    
C128  H223  S    
C47   C48   A    
C105  C114  A    
C148  C149  S    
C41   C59   A    
C101  C206  A    
C42   C60   A    
O17   Zn4   S    
C4    C261  A    
C134  C136  S    
C208  C221  A    
C146  O73   S    
C112  O78   A    
C191  H130  S    
C172  H86   S    
C68   C218  A    
C120  N4    A    
C9    C86   S    
C136  H240  S    
C88   C106  A    
C60   H184  S    
C246  C251  A    
C137  H5    S    
C142  H18   S    
O12   Zn9   S    
C116  O50   S    
C6    C265  A    
C175  H95   S    
C115  O49   S    
C148  H30   S    
C122  N4    A    
C49   H173  S    
C15   O36   A    
C32   C50   A    
C44   H169  S    
C37   C54   A    
C263  C272  A    
C199  H151  S    
C79   C203  A    
C267  O82   S    
C166  C167  S    
C229  N8    A    
C203  C212  A    
C58   H182  S    
C54   H179  S    
C186  H120  S    
O33   Zn1   S    
C54   C58   A    
C61   C69   A    
C149  H31   S    
C42   H167  S    
O89   Zn7   S    
C121  O55   S    
C165  H72   S    
O12   Zn11  S    
C1    O45   A    
O5    Zn1   S    
C1    O67   A    
C158  H52   S    
C137  C138  S    
C138  H6    S    
C8    O14   A    
C254  O11   A    
C70   C95   A    
C186  H121  S    
C135  C179  A    
C134  H238  S    
C141  C142  S    
O47   Zn12  S    
C5    C262  A    
C183  H114  S    
C146  C190  A    
C185  H118  S    
C4    C263  A    
C165  H70   S    
C163  H65   S    
C164  H67   S    
C269  C278  A    
O18   Zn3   S    
C25   O46   A    
C7    C268  A    
C22   O48   A    
C19   O25   A    
C265  C274  A    
C155  H47   S    
C197  H147  S    
C198  H148  S    
C232  H196  S    
C197  H145  S    
C222  O59   S    
C153  C154  S    
C38   H162  S    
C121  C270  A    
C131  C132  S    
C114  H68   S    
