data_mof_unit_67257.cif
_audit_creation_date              2012-12-11T18:15:48-0500
_audit_creation_method            fapswitch 2.2
_symmetry_space_group_name_H-M    P1
_symmetry_Int_Tables_number       1
_space_group_crystal_system       triclinic
_cell_length_a                    20.259414
_cell_length_b                    19.958692
_cell_length_c                    8.500519
_cell_angle_alpha                 90.204286
_cell_angle_beta                  91.877538
_cell_angle_gamma                 89.582563
_cell_volume                      3435.24128416

loop_
_atom_site_label
_atom_site_type_symbol
_atom_type_description
_atom_site_fract_x
_atom_site_fract_y
_atom_site_fract_z
_atom_type_partial_charge
Ba1   Ba    Ba6+2 0.999980 0.452130 0.155200 1.696925
Ba2   Ba    Ba6+2 0.999980 0.547870 0.655200 1.694391
Ba3   Ba    Ba6+2 0.499980 0.952130 0.155200 1.697011
Ba4   Ba    Ba6+2 0.499980 0.047870 0.655200 1.694479
Br1   Br    Br    0.919245 0.199476 0.331636 -0.569105
Br2   Br    Br    0.987507 0.945588 0.958625 -0.582608
Br3   Br    Br    0.594704 0.588077 0.564819 -0.734340
Br4   Br    Br    0.487505 0.445602 0.958605 -0.582327
Br5   Br    Br    0.909200 0.806796 0.836061 -0.526956
Br6   Br    Br    0.419231 0.699461 0.331600 -0.568897
Br7   Br    Br    0.409175 0.306827 0.836036 -0.526735
Br8   Br    Br    0.254589 0.600728 0.022850 -0.642750
Br9   Br    Br    0.252342 0.396641 0.524860 -0.647199
Br10  Br    Br    0.754383 0.100837 0.022294 -0.643047
Br11  Br    Br    0.752120 0.896535 0.524330 -0.647469
Br12  Br    Br    0.094720 0.088087 0.564840 -0.734342
C1    C     C_3   0.009972 0.110442 0.468829 0.067425
C2    C     C_R   0.114824 0.660386 0.178683 -0.223706
C3    C     C_R   0.612511 0.838459 0.681356 -0.235086
C4    C     C_R   0.614783 0.160415 0.178748 -0.223642
C5    C     C_R   0.126685 0.286294 0.578190 0.037690
C6    C     C_R   0.128810 0.711940 0.075045 0.034330
C7    C     C_R   0.626647 0.786268 0.578254 0.037801
C8    C     C_R   0.628770 0.211970 0.075110 0.034437
C9    C     C_R   0.175449 0.239033 0.618647 -0.066414
C10   C     C_R   0.177015 0.759308 0.115889 -0.103549
C11   C     C_R   0.675418 0.739012 0.618705 -0.066347
C12   C     C_3   0.996723 0.861405 0.071755 0.133542
C13   C     C_R   0.676984 0.259330 0.115944 -0.103482
C14   C     C_R   0.210598 0.243375 0.763355 0.046642
C15   C     C_R   0.213105 0.754521 0.259709 0.034050
C16   C     C_R   0.710578 0.743365 0.763397 0.046588
C17   C     C_R   0.713086 0.254532 0.259746 0.034008
C18   C     C_R   0.198804 0.298118 0.865464 0.001548
C19   C     C_R   0.200955 0.700567 0.363079 -0.004697
C20   C     C_R   0.698790 0.798113 0.865497 0.001414
C21   C     C_R   0.700939 0.200574 0.363110 -0.004836
C22   C     C_R   0.797205 0.699128 0.945123 -0.011325
C23   C     C_3   0.509964 0.610427 0.468764 0.067457
C24   C     C_R   0.798749 0.299768 0.443225 -0.003641
C25   C     C_R   0.297209 0.199127 0.945109 -0.011340
C26   C     C_R   0.298754 0.799769 0.443212 -0.003648
C27   C     C_R   0.784944 0.753476 0.047722 0.040216
C28   C     C_R   0.786960 0.245506 0.545746 0.026575
C29   C     C_R   0.284943 0.253471 0.047712 0.040203
C30   C     C_R   0.286962 0.745508 0.545734 0.026564
C31   C     C_R   0.848298 0.652200 0.987352 0.063048
C32   C     C_R   0.848982 0.347194 0.486843 0.076627
C33   C     C_R   0.348301 0.152199 0.987346 0.063035
C34   C     C_3   0.496712 0.361416 0.071726 0.133600
C35   C     C_R   0.348984 0.847195 0.486838 0.076615
C36   C     C_R   0.885393 0.660805 0.126705 -0.260899
C37   C     C_R   0.886428 0.338102 0.626292 -0.267108
C38   C     C_R   0.385393 0.160803 0.126703 -0.260915
C39   C     C_R   0.386428 0.838104 0.626289 -0.267143
C40   C     C_3   0.019844 0.208672 0.954490 0.385615
C41   C     C_3   0.003028 0.798262 0.482616 0.400308
C42   C     C_3   0.519839 0.708667 0.954470 0.385658
C43   C     C_3   0.503023 0.298270 0.482592 0.400440
C44   C     C_R   0.870262 0.711732 0.230763 0.000946
C45   C     C_R   0.149421 0.346885 0.821844 0.041898
C46   C     C_R   0.872378 0.286795 0.729821 -0.002333
C47   C     C_R   0.370260 0.211730 0.230762 0.000971
C48   C     C_R   0.372377 0.786797 0.729817 -0.002320
C49   C     C_R   0.820956 0.758688 0.191375 -0.118331
C50   C     C_R   0.823288 0.240184 0.689473 -0.109890
C51   C     C_R   0.320950 0.258682 0.191374 -0.118390
C52   C     C_R   0.323286 0.740187 0.689467 -0.109925
C53   C     C_R   0.758501 0.694396 0.804545 -0.020648
C54   C     C_R   0.760591 0.303642 0.301177 -0.037383
C55   C     C_R   0.258512 0.194400 0.804519 -0.020624
C56   C     C_R   0.151035 0.652414 0.320404 0.044568
C57   C     C_R   0.260601 0.803639 0.301155 -0.037369
C58   C     C_3   0.050173 0.139659 0.986512 0.268946
C59   C     C_3   0.021299 0.870967 0.521433 0.335082
C60   C     C_3   0.550165 0.639652 0.986494 0.268963
C61   C     C_3   0.521288 0.370976 0.521412 0.335128
C62   C     C_3   0.810952 0.458711 0.811983 0.292021
C63   C     C_3   0.810552 0.542972 0.319445 0.273279
C64   C     C_3   0.310951 0.958712 0.811976 0.292018
C65   C     C_3   0.310552 0.042971 0.319445 0.273276
C66   C     C_3   0.752095 0.412712 0.829538 -0.379709
C67   C     C_R   0.649399 0.846872 0.821883 0.041920
C68   C     C_3   0.755135 0.590497 0.363488 -0.356648
C69   C     C_3   0.252095 0.912713 0.829539 -0.379701
C70   C     C_3   0.255136 0.090496 0.363497 -0.356644
C71   C     C_3   0.221352 0.512264 0.067800 0.508819
C72   C     C_3   0.220778 0.486480 0.568318 0.504521
C73   C     C_3   0.721345 0.012328 0.067614 0.508704
C74   C     C_3   0.720776 0.986420 0.568137 0.504386
C75   C     C_3   0.278203 0.473978 0.149202 -0.257900
C76   C     C_3   0.278455 0.523531 0.647865 -0.251139
C77   C     C_3   0.778318 0.974210 0.149000 -0.257827
C78   C     C_R   0.651012 0.152428 0.320442 0.044580
C79   C     C_3   0.778588 0.023288 0.647625 -0.250953
C80   C     C_3   0.003990 0.185410 0.436067 0.542530
C81   C     C_3   0.989605 0.799919 0.964677 0.652553
C82   C     C_3   0.503976 0.685397 0.436027 0.542513
C83   C     C_3   0.489582 0.299933 0.964641 0.652559
C84   C     C_R   0.236906 0.301992 0.006549 0.005766
C85   C     C_R   0.238684 0.697364 0.505096 -0.027461
C86   C     C_R   0.736905 0.801999 0.006565 0.005727
C87   C     C_R   0.738679 0.197361 0.505116 -0.027524
C88   C     C_3   0.158690 0.097753 0.992695 0.254944
C89   C     C_R   0.112551 0.338486 0.681290 -0.235149
C90   C     C_3   0.141063 0.026839 0.042785 -0.370362
C91   C     C_3   0.134468 0.869021 0.482924 0.255207
C92   C     C_3   0.151926 0.936662 0.415189 -0.328250
C93   C     C_3   0.658681 0.597745 0.992679 0.254948
C94   C     C_3   0.641059 0.526829 0.042767 -0.370330
C95   C     C_3   0.634459 0.369026 0.482932 0.255182
C96   C     C_3   0.651919 0.436661 0.415170 -0.328258
H1    H     H_    0.706722 0.436369 0.777614 0.161398
H2    H     H_    0.753308 0.594024 0.493299 0.147561
H3    H     H_    0.662215 0.600698 0.863036 0.103575
H4    H     H_    0.614436 0.501159 0.944280 0.185729
H5    H     H_    0.686675 0.497719 0.071543 0.099020
H6    H     H_    0.609912 0.528100 0.147507 0.158292
H7    H     H_    0.621266 0.334087 0.385361 -0.011718
H8    H     H_    0.678878 0.347933 0.544323 0.071394
H9    H     H_    0.683836 0.428993 0.313293 0.082727
H10   H     H_    0.606911 0.463716 0.373161 0.156389
H11   H     H_    0.678274 0.467291 0.505992 0.178794
H12   H     H_    0.244684 0.902900 0.956103 0.110551
H13   H     H_    0.253310 0.094019 0.493308 0.147569
H14   H     H_    0.178272 0.518705 0.142751 0.053864
H15   H     H_    0.177862 0.481875 0.644133 0.058811
H16   H     H_    0.678280 0.018706 0.142651 0.053891
H17   H     H_    0.677885 0.981892 0.644063 0.058876
H18   H     H_    0.259077 0.430162 0.210238 0.120544
H19   H     H_    0.260381 0.569003 0.705979 0.118449
H20   H     H_    0.759359 0.930238 0.209777 0.120406
H21   H     H_    0.706976 0.571445 0.318131 0.164752
H22   H     H_    0.760713 0.068927 0.705430 0.118264
H23   H     H_    0.303877 0.505799 0.239122 0.155735
H24   H     H_    0.303339 0.491895 0.739550 0.174141
H25   H     H_    0.803825 0.006085 0.239097 0.155511
H26   H     H_    0.803290 0.991615 0.739519 0.173932
H27   H     H_    0.314744 0.457292 0.062312 0.152013
H28   H     H_    0.315408 0.537500 0.560198 0.121446
H29   H     H_    0.814975 0.957758 0.062120 0.152262
H30   H     H_    0.815655 0.036977 0.559957 0.121577
H31   H     H_    0.005377 0.212753 0.550570 -0.078728
H32   H     H_    0.206719 0.936371 0.777635 0.161419
H33   H     H_    0.984125 0.755801 0.042882 -0.193445
H34   H     H_    0.505357 0.712732 0.550539 -0.078764
H35   H     H_    0.484092 0.255814 0.042839 -0.193514
H36   H     H_    0.970991 0.094932 0.549851 0.089462
H37   H     H_    0.045759 0.860161 0.134060 0.003413
H38   H     H_    0.470977 0.594906 0.549757 0.089540
H39   H     H_    0.545750 0.360164 0.134022 0.003350
H40   H     H_    0.004179 0.081391 0.357578 0.120452
H41   H     H_    0.957874 0.860251 0.160894 0.044520
H42   H     H_    0.504185 0.581382 0.357501 0.120483
H43   H     H_    0.206977 0.071445 0.318142 0.164755
H44   H     H_    0.457865 0.360267 0.160871 0.044529
H45   H     H_    0.046901 0.109851 0.875727 0.080403
H46   H     H_    0.015649 0.902625 0.414394 -0.013724
H47   H     H_    0.546893 0.609843 0.875710 0.080424
H48   H     H_    0.515640 0.402634 0.414371 -0.013692
H49   H     H_    0.075584 0.375420 0.646375 0.059796
H50   H     H_    0.077531 0.624103 0.144552 0.057865
H51   H     H_    0.575542 0.875391 0.646443 0.059804
H52   H     H_    0.577488 0.124135 0.144619 0.057868
H53   H     H_    0.186712 0.199694 0.535686 0.111091
H54   H     H_    0.760435 0.364346 0.769326 0.052570
H55   H     H_    0.186290 0.799752 0.035129 0.068831
H56   H     H_    0.686686 0.699677 0.535739 0.111103
H57   H     H_    0.686263 0.299772 0.035181 0.068825
H58   H     H_    0.810342 0.798685 0.273408 0.135271
H59   H     H_    0.813311 0.200049 0.770587 0.131039
H60   H     H_    0.310331 0.298677 0.273411 0.135159
H61   H     H_    0.313306 0.700052 0.770583 0.130920
H62   H     H_    0.923507 0.624817 0.160170 0.050234
H63   H     H_    0.924271 0.373894 0.659883 0.046349
H64   H     H_    0.423508 0.124816 0.160169 0.050224
H65   H     H_    0.762765 0.640996 0.314460 0.068275
H66   H     H_    0.424271 0.873896 0.659882 0.046343
H67   H     H_    0.229533 0.342194 0.086965 0.092087
H68   H     H_    0.230241 0.658265 0.587204 0.095307
H69   H     H_    0.729543 0.842213 0.086976 0.092293
H70   H     H_    0.730241 0.158256 0.587225 0.095531
H71   H     H_    0.764377 0.652381 0.726533 0.095206
H72   H     H_    0.766655 0.344947 0.221663 0.089808
H73   H     H_    0.264387 0.152385 0.726507 0.095219
H74   H     H_    0.266662 0.844944 0.221642 0.089811
H75   H     H_    0.038538 0.243909 0.046672 0.119913
H76   H     H_    0.260433 0.864349 0.769313 0.052555
H77   H     H_    0.023444 0.764934 0.576452 0.116268
H78   H     H_    0.538542 0.743905 0.046641 0.119865
H79   H     H_    0.523449 0.264940 0.576413 0.116202
H80   H     H_    0.035473 0.226189 0.837366 -0.112933
H81   H     H_    0.023733 0.783374 0.367953 -0.200132
H82   H     H_    0.535464 0.726178 0.837338 -0.112995
H83   H     H_    0.523720 0.283387 0.367917 -0.200329
H84   H     H_    0.020638 0.113453 0.075041 0.127518
H85   H     H_    0.985644 0.891463 0.605891 0.169905
H86   H     H_    0.520626 0.613448 0.075018 0.127549
H87   H     H_    0.262765 0.140996 0.314475 0.068259
H88   H     H_    0.485628 0.391471 0.605860 0.169963
H89   H     H_    0.821615 0.463437 0.685798 0.014143
H90   H     H_    0.814224 0.541606 0.189896 0.001633
H91   H     H_    0.321609 0.963441 0.685788 0.014150
H92   H     H_    0.314221 0.041607 0.189896 0.001637
H93   H     H_    0.853882 0.436124 0.877636 0.056631
H94   H     H_    0.857032 0.562208 0.375135 0.064616
H95   H     H_    0.353883 0.936125 0.877617 0.056619
H96   H     H_    0.357032 0.062207 0.375132 0.064613
H97   H     H_    0.208514 0.108826 0.042770 0.062483
H98   H     H_    0.744677 0.402905 0.956101 0.110557
H99   H     H_    0.162226 0.100705 0.863052 0.103589
H100  H     H_    0.114418 0.001178 0.944318 0.185753
H101  H     H_    0.186678 0.997719 0.071510 0.099042
H102  H     H_    0.109935 0.028112 0.147559 0.158285
H103  H     H_    0.121272 0.834088 0.385339 -0.011744
H104  H     H_    0.178889 0.847924 0.544296 0.071381
H105  H     H_    0.183829 0.929002 0.313282 0.082735
H106  H     H_    0.106914 0.963728 0.373230 0.156417
H107  H     H_    0.178294 0.967280 0.506015 0.178767
H108  H     H_    0.708506 0.608820 0.042749 0.062491
O1    O     O_2   0.130070 0.404060 0.104920 -0.477033
O2    O     O_3   0.934250 0.794125 0.474663 -0.586211
O3    O     O_3   0.450702 0.704357 0.958570 -0.581635
O4    O     O_3   0.434244 0.294124 0.474667 -0.586129
O5    O     O_3   0.924190 0.533610 0.949240 -0.494965
O6    O     O_3   0.924190 0.466390 0.449240 -0.495055
O7    O     O_3   0.424190 0.033610 0.949240 -0.494966
O8    O     O_3   0.424190 0.966390 0.449240 -0.495059
O9    O     O_3   0.075780 0.466370 0.861070 -0.474172
O10   O     O_3   0.075780 0.533630 0.361070 -0.471311
O11   O     O_3   0.575780 0.966370 0.861070 -0.474183
O12   O     O_2   0.130070 0.595940 0.604920 -0.480606
O13   O     O_3   0.575780 0.033630 0.361070 -0.471320
O14   O     O_3   0.022320 0.344950 0.359800 -0.460980
O15   O     O_3   0.022320 0.655050 0.859800 -0.460994
O16   O     O_3   0.522320 0.844950 0.359800 -0.460977
O17   O     O_3   0.522320 0.155050 0.859800 -0.460987
O18   O     O_2   0.135553 0.296771 0.257212 -0.454352
O19   O     O_2   0.128940 0.712305 0.744726 -0.477728
O20   O     O_2   0.635562 0.796771 0.257286 -0.454180
O21   O     O_2   0.628947 0.212310 0.744794 -0.477595
O22   O     O_3   0.204144 0.481444 0.924124 -0.651336
O23   O     O_2   0.630070 0.904060 0.104920 -0.476888
O24   O     O_3   0.203671 0.516931 0.424360 -0.650173
O25   O     O_3   0.704171 0.981401 0.924042 -0.651361
O26   O     O_3   0.703699 0.016973 0.424284 -0.650188
O27   O     O_3   0.053476 0.204608 0.332925 -0.562817
O28   O     O_3   0.043695 0.795335 0.864338 -0.580725
O29   O     O_3   0.553461 0.704607 0.332894 -0.562859
O30   O     O_3   0.543669 0.295340 0.864296 -0.580772
O31   O     O_2   0.869860 0.403670 0.205810 -0.458960
O32   O     O_2   0.869860 0.596330 0.705810 -0.458480
O33   O     O_2   0.369860 0.903670 0.205810 -0.458966
O34   O     O_2   0.630070 0.095940 0.604920 -0.480455
O35   O     O_2   0.369860 0.096330 0.705810 -0.458497
O36   O     O_3   0.977590 0.344880 0.951200 -0.509640
O37   O     O_3   0.977590 0.655120 0.451200 -0.504235
O38   O     O_3   0.477590 0.844880 0.951200 -0.509660
O39   O     O_3   0.477590 0.155120 0.451200 -0.504254
O40   O     O_2   0.866347 0.293216 0.054238 -0.417669
O41   O     O_2   0.858998 0.697238 0.546749 -0.436914
O42   O     O_2   0.366345 0.793219 0.054232 -0.417679
O43   O     O_2   0.358997 0.197235 0.546744 -0.436938
O44   O     O_3   0.115218 0.147211 0.049901 -0.643714
O45   O     O_3   0.794414 0.479110 0.372526 -0.657140
O46   O     O_3   0.084782 0.875571 0.594519 -0.604047
O47   O     O_3   0.615209 0.647200 0.049892 -0.643735
O48   O     O_3   0.584768 0.375586 0.594511 -0.604062
O49   O     O_3   0.794320 0.521693 0.871869 -0.655503
O50   O     O_3   0.294414 0.979109 0.372524 -0.657144
O51   O     O_3   0.294320 0.021693 0.871870 -0.655502
O52   O     O_3   0.950706 0.204357 0.958570 -0.581708
P1    P     P_3+3 0.136530 0.426510 0.931350 0.976078
P2    P     P_3+3 0.911425 0.712549 0.424970 0.997674
P3    P     P_3+3 0.416390 0.783840 0.922568 1.007969
P4    P     P_3+3 0.411424 0.212548 0.424967 0.997694
P5    P     P_3+3 0.082631 0.716930 0.885537 1.006428
P6    P     P_3+3 0.084428 0.283871 0.383989 1.035022
P7    P     P_3+3 0.582616 0.216943 0.885563 1.006550
P8    P     P_3+3 0.584417 0.783863 0.384015 1.035149
P9    P     P_3+3 0.136530 0.573490 0.431350 0.978203
P10   P     P_3+3 0.636530 0.926510 0.931350 0.976174
P11   P     P_3+3 0.636530 0.073490 0.431350 0.978306
P12   P     P_3+3 0.863410 0.426100 0.379280 0.968337
P13   P     P_3+3 0.863410 0.573900 0.879280 0.966087
P14   P     P_3+3 0.363410 0.926100 0.379280 0.968316
P15   P     P_3+3 0.363410 0.073900 0.879280 0.966067
P16   P     P_3+3 0.916391 0.283839 0.922571 1.007947

loop_
_geom_bond_atom_site_label_1
_geom_bond_atom_site_label_2
_ccdc_geom_bond_type
Ba1   O6    S    
C12   C81   S    
Ba3   P14   S    
C40   H80   S    
C60   H47   S    
O37   P2    S    
O14   P6    S    
C71   C75   S    
C87   H70   S    
C25   C29   A    
O21   P7    D    
C35   P14   S    
C43   H79   S    
C95   C96   S    
C62   H89   S    
Ba4   O34   S    
C93   O47   S    
C96   H9    S    
O32   P13   D    
C94   H6    S    
C81   O28   S    
C88   C90   S    
C14   C55   A    
C32   P12   S    
O11   P10   S    
C42   C60   S    
C74   C79   S    
C75   H18   S    
C5    C89   A    
C30   C52   A    
O42   P3    D    
O10   P9    S    
C37   H63   S    
O24   P9    S    
C44   P2    S    
C48   C52   A    
O49   P13   S    
O17   P7    S    
O50   P14   S    
C95   O48   S    
C72   H15   S    
Ba2   O32   S    
O23   P10   D    
C63   C68   S    
C42   O3    S    
C15   C57   A    
C64   H91   S    
C38   C47   A    
C20   C67   A    
C33   C38   A    
C4    H52   S    
C13   C17   A    
Ba4   P11   S    
O36   P16   S    
C69   H12   S    
C95   H7    S    
Ba1   Ba2   S    
C26   C30   A    
Ba4   O7    S    
C38   H64   S    
Br6   C82   S    
C8    C13   A    
Ba1   O1    S    
C5    C9    A    
C36   C44   A    
Ba2   O9    S    
Ba2   O37   S    
C74   H17   S    
C28   C50   A    
C34   H39   S    
Ba3   P10   S    
Br2   C12   S    
C91   H104  S    
C4    C8    A    
C34   H44   S    
Br12  C1    S    
C79   H26   S    
C42   H78   S    
Br5   C81   S    
Ba4   O17   S    
O20   P8    D    
O1    P1    D    
C7    C11   A    
O12   P9    D    
C65   H92   S    
C77   H20   S    
C45   C89   A    
C80   O27   S    
Ba1   P1    S    
C65   C70   S    
C62   O49   S    
Ba1   O36   S    
Ba2   O12   S    
C70   H87   S    
C25   C55   A    
C20   C86   A    
C92   H106  S    
O34   P11   D    
C69   H76   S    
O28   P5    S    
O38   P3    S    
C22   C53   A    
C10   C15   A    
C2    C6    A    
C70   H13   S    
C94   H4    S    
C92   H107  S    
C84   H67   S    
C43   C61   S    
C76   H24   S    
C88   H97   S    
C55   H73   S    
C83   O30   S    
C3    C67   A    
Ba1   O10   S    
C94   H5    S    
C25   C33   A    
C28   C87   A    
O45   P12   S    
C57   H74   S    
Ba2   P9    S    
C58   H84   S    
C41   O2    S    
C59   H85   S    
C48   P3    S    
C2    C56   A    
C32   C37   A    
O4    P4    S    
C30   C85   A    
C47   C51   A    
C68   H21   S    
C6    P5    S    
Ba4   P15   S    
C40   C58   S    
C46   C50   A    
C23   H42   S    
O15   P5    S    
Ba4   O11   S    
C69   H32   S    
C50   H59   S    
O39   P4    S    
C76   H19   S    
Br9   C72   S    
O22   P1    S    
C96   H11   S    
C31   P13   S    
Ba3   O7    S    
C77   H25   S    
C21   C87   A    
C14   C18   A    
O33   P14   D    
C23   C82   S    
Ba3   O23   S    
O41   P2    D    
C82   H34   S    
O18   P6    D    
C41   H77   S    
C3    H51   S    
C42   H82   S    
C79   H22   S    
C17   C21   A    
C41   H81   S    
C95   H8    S    
O5    P13   S    
O2    P2    S    
C31   C36   A    
C3    C7    A    
C70   H43   S    
Ba3   O33   S    
Br10  C73   S    
C96   H10   S    
C64   C69   S    
C10   H55   S    
Ba4   O8    S    
O7    P15   S    
Ba3   O16   S    
C82   O29   S    
C37   C46   A    
C62   C66   S    
C18   C84   A    
C23   H38   S    
C40   H75   S    
C24   C28   A    
Ba1   O14   S    
C52   H61   S    
C63   H90   S    
C90   H100  S    
C39   C48   A    
C1    H36   S    
C91   O46   S    
Ba1   O31   S    
C34   C83   S    
Ba3   O38   S    
O3    P3    S    
O26   P11   S    
C1    C80   S    
C72   C76   S    
O6    P12   S    
C22   C31   A    
O40   P16   D    
C24   C54   A    
C17   C54   A    
C53   H71   S    
C65   H96   S    
C75   H27   S    
C92   H105  S    
C73   H16   S    
C59   H46   S    
C54   H72   S    
O13   P11   S    
C44   C49   A    
Ba4   O39   S    
Ba2   P13   S    
C40   O52   S    
C12   H41   S    
C39   H66   S    
C15   C19   A    
C29   C51   A    
C1    H40   S    
C91   C92   S    
Ba3   Ba4   S    
C76   H28   S    
C36   H62   S    
Br1   C80   S    
C77   H29   S    
Ba2   O6    S    
C66   H54   S    
Ba1   O5    S    
C9    C14   A    
C24   C32   A    
C90   H101  S    
C4    C78   A    
C33   P15   S    
C26   C57   A    
C45   P1    S    
C58   H45   S    
C11   C16   A    
O16   P8    S    
C86   H69   S    
C81   H33   S    
C66   H98   S    
C66   H1    S    
C19   C85   A    
C29   C84   A    
C72   O24   S    
Ba1   P12   S    
C7    P8    S    
C16   C20   A    
C19   C56   A    
O51   P15   S    
C16   C53   A    
C8    P7    S    
C51   H60   S    
O52   P16   S    
C63   H94   S    
C26   C35   A    
O9    P1    S    
Ba4   O35   S    
C61   O48   S    
C85   H68   S    
C49   H58   S    
C71   O22   S    
C64   O51   S    
C9    H53   S    
C68   H2    S    
C41   C59   S    
O27   P6    S    
C27   C49   A    
C27   C86   A    
C83   H35   S    
C22   C27   A    
Br8   C71   S    
C93   H108  S    
C60   H86   S    
C5    P6    S    
O30   P7    S    
C90   H102  S    
C2    H50   S    
Br11  C74   S    
C74   O26   S    
Br7   C83   S    
C65   O50   S    
C63   O45   S    
C73   O25   S    
C21   C78   A    
Br4   C34   S    
C35   C39   A    
O31   P12   D    
C18   C45   A    
C73   C77   S    
C68   H65   S    
O19   P5    D    
C61   H88   S    
C46   P16   S    
O35   P15   D    
C62   H93   S    
C43   H83   S    
C43   O4    S    
C93   H3    S    
C61   H48   S    
Ba2   O15   S    
O8    P14   S    
C47   P4    S    
C12   H37   S    
C64   H95   S    
C75   H23   S    
Ba2   O5    S    
C79   H30   S    
O43   P4    D    
C6    C10   A    
C60   O47   S    
O25   P10   S    
C67   P10   S    
Br3   C23   S    
C89   H49   S    
C56   P9    S    
C88   O44   S    
C88   H99   S    
C13   H57   S    
C93   C94   S    
O29   P8    S    
Ba3   O8    S    
C91   H103  S    
C71   H14   S    
Ba3   O13   S    
C11   H56   S    
C78   P11   S    
C80   H31   S    
C59   O46   S    
C58   O44   S    
