data_mof_unit_17349.cif
_audit_creation_date              2012-12-11T16:29:32-0500
_audit_creation_method            fapswitch 2.2
_symmetry_space_group_name_H-M    P1
_symmetry_Int_Tables_number       1
_space_group_crystal_system       triclinic
_cell_length_a                    6.979961
_cell_length_b                    17.352704
_cell_length_c                    18.725175
_cell_angle_alpha                 106.069543
_cell_angle_beta                  89.806427
_cell_angle_gamma                 90.484173
_cell_volume                      2179.31706136

loop_
_atom_site_label
_atom_site_type_symbol
_atom_type_description
_atom_site_fract_x
_atom_site_fract_y
_atom_site_fract_z
_atom_type_partial_charge
O1    O     O_R   0.494360 0.415680 0.413760 -0.544882
O2    O     O_R   0.818810 0.432910 0.557230 -0.529926
O3    O     O_R   0.994290 0.584320 0.586240 -0.537098
C1    C     C_R   0.649821 0.416310 0.580819 0.703876
O4    O     O_R   0.823740 0.406440 0.412520 -0.523083
O5    O     O_R   0.999250 0.557660 0.440500 -0.509761
C2    C     C_R   0.655131 0.385509 0.383286 0.794240
O6    O     O_R   0.489400 0.442340 0.559500 -0.524356
O7    O     O_3   0.662500 0.549650 0.509350 -0.359851
V1    V     V_3+5 0.935340 0.490790 0.498270 1.432180
O8    O     O_R   0.329270 0.567090 0.442770 -0.536500
C3    C     C_R   0.161486 0.580986 0.416902 0.721078
O9    O     O_R   0.324340 0.593560 0.587480 -0.530255
C4    C     C_R   0.155106 0.619100 0.613036 0.714119
V2    V     V_3+5 0.435970 0.509210 0.501730 1.407550
O10   O     O_3   0.158940 0.450350 0.490650 -0.365014
C5    C     C_R   0.091934 0.594877 0.756046 -0.232605
C6    C     C_R   0.074760 0.579249 0.824831 -0.181277
C7    C     C_R   0.071288 0.641788 0.889975 0.479419
C8    C     C_R   0.068575 0.721045 0.885131 -0.242113
C9    C     C_R   0.095285 0.738779 0.816318 0.003791
C10   C     C_R   0.108257 0.674444 0.750313 0.075514
C11   C     C_R   0.120135 0.819071 0.813817 -0.145326
C12   C     C_R   0.172176 0.835266 0.745589 -0.049277
C13   C     C_R   0.175800 0.771023 0.677973 -0.026663
C14   C     C_R   0.142521 0.689763 0.680604 -0.127673
C15   C     C_R   0.222585 0.914350 0.742322 0.361841
C16   C     C_R   0.318891 0.923978 0.679775 -0.239230
C17   C     C_R   0.315691 0.863980 0.613529 0.167987
C18   C     C_R   0.218168 0.791765 0.610575 0.133290
H1    H     H_    0.098668 0.543400 0.707808 0.126207
H2    H     H_    0.069320 0.517752 0.827612 0.135058
H3    H     H_    0.050411 0.768515 0.935888 0.092358
H4    H     H_    0.383968 0.980942 0.681072 0.132727
C19   C     C_1   0.111430 0.864507 0.133074 -0.223532
C20   C     C_1   0.118479 0.821832 0.176610 -0.007740
C21   C     C_1   0.127459 0.771225 0.228159 -0.010483
C22   C     C_1   0.135487 0.728568 0.271671 -0.010561
C23   C     C_1   0.145914 0.677587 0.322912 -0.029164
C24   C     C_1   0.154058 0.633797 0.365457 -0.236706
C25   C     C_1   0.640528 0.365180 0.633583 -0.214793
C26   C     C_1   0.635199 0.323318 0.677838 0.011471
C27   C     C_1   0.630718 0.274052 0.730579 -0.002450
C28   C     C_1   0.628333 0.232403 0.775033 -0.017025
C29   C     C_1   0.627671 0.182308 0.827154 -0.030177
C30   C     C_1   0.624596 0.138721 0.869934 -0.244033
C31   C     C_R   0.719900 0.402575 0.230279 0.314119
C32   C     C_R   0.769997 0.407961 0.158336 0.396657
C33   C     C_R   0.748623 0.340448 0.097568 -0.305628
C34   C     C_R   0.695159 0.267584 0.107758 -0.202710
C35   C     C_R   0.664673 0.257590 0.179375 0.021127
C36   C     C_R   0.677418 0.326026 0.242449 -0.074495
C37   C     C_R   0.622960 0.179944 0.187256 -0.091024
C38   C     C_R   0.600568 0.168411 0.260061 -0.004957
C39   C     C_R   0.604441 0.238043 0.322856 -0.026775
C40   C     C_R   0.644235 0.315952 0.314782 -0.111641
C41   C     C_R   0.577738 0.090654 0.274045 -0.001129
C42   C     C_R   0.551495 0.085279 0.347691 0.379059
C43   C     C_R   0.530864 0.155293 0.406155 0.328229
C44   C     C_R   0.567685 0.229243 0.394350 -0.303526
H5    H     H_    0.767775 0.343616 0.041194 0.142632
H6    H     H_    0.680393 0.218788 0.057649 0.131529
H7    H     H_    0.563304 0.280152 0.443081 0.141156
O11   O     O_R   0.775690 0.057750 0.940570 -0.527033
O12   O     O_R   0.441200 0.093570 0.087490 -0.539636
O13   O     O_R   0.265840 0.942320 0.059480 -0.531362
C45   C     C_R   0.609701 0.112505 0.117775 0.698792
O14   O     O_R   0.446270 0.067110 0.942790 -0.508605
O15   O     O_R   0.270950 0.915660 0.913750 -0.516731
C46   C     C_R   0.615397 0.084909 0.920274 0.731674
O16   O     O_R   0.770580 0.084400 0.086300 -0.537094
O17   O     O_3   0.602640 0.950400 0.990690 -0.364098
V3    V     V_3+5 0.329740 0.009200 0.001730 1.448938
O18   O     O_R   0.940900 0.906360 0.912450 -0.541037
C47   C     C_R   0.109721 0.884884 0.884219 0.803824
O19   O     O_R   0.935830 0.932820 0.057160 -0.529764
C48   C     C_R   0.103902 0.916191 0.080722 0.690085
V4    V     V_3+5 0.829130 0.990680 0.998180 1.415549
O20   O     O_3   0.106100 0.049590 0.009310 -0.355570
C49   C     C_3   0.406433 0.880180 0.545566 -0.786453
H8    H     H_    0.495220 0.935778 0.560316 0.197744
H9    H     H_    0.501579 0.829780 0.517697 0.213180
H10   H     H_    0.294855 0.887658 0.506037 0.216673
O21   O     O_3   0.732001 0.470933 0.289874 -0.580749
C50   C     C_3   0.604550 0.531497 0.282255 0.103758
H11   H     H_    0.492860 0.538734 0.325140 0.126051
H12   H     H_    0.527150 0.517933 0.228176 0.126511
C51   C     C_3   0.717249 0.610020 0.295283 -0.249830
H13   H     H_    0.768721 0.628340 0.353615 0.192224
H14   H     H_    0.842273 0.599598 0.257448 0.241332
C52   C     C_3   0.602395 0.678560 0.281294 -0.827401
H15   H     H_    0.513048 0.657622 0.230539 0.236902
H16   H     H_    0.701678 0.725990 0.273651 0.233058
H17   H     H_    0.512751 0.705803 0.330527 0.239442
O22   O     O_3   0.817044 0.482987 0.149620 -0.584405
C53   C     C_3   0.968178 0.482245 0.098936 0.091873
H18   H     H_    0.991413 0.545462 0.098319 0.160554
H19   H     H_    0.929053 0.449646 0.041028 0.119352
C54   C     C_3   0.156192 0.451513 0.122903 -0.353157
H20   H     H_    0.185055 0.482554 0.182311 0.196271
H21   H     H_    0.145196 0.386022 0.116403 0.196690
C55   C     C_3   0.322353 0.466825 0.075668 -0.818638
H22   H     H_    0.289986 0.442095 0.015579 0.233057
H23   H     H_    0.452052 0.437352 0.088444 0.249612
H24   H     H_    0.351351 0.532106 0.088534 0.235940
C56   C     C_3   0.585204 0.011993 0.213389 -0.707777
H25   H     H_    0.573049 0.958071 0.233761 0.230099
H26   H     H_    0.462206 0.007546 0.175524 0.206434
H27   H     H_    0.724329 0.006487 0.183820 0.191021
O23   O     O_3   0.523374 0.010916 0.360755 -0.576446
C57   C     C_3   0.677089 0.992152 0.402265 0.074257
H28   H     H_    0.625527 0.944240 0.426675 0.152649
H29   H     H_    0.721324 0.043179 0.449904 0.147131
C58   C     C_3   0.851005 0.960389 0.352826 -0.344243
H30   H     H_    0.806477 0.909147 0.305453 0.209854
H31   H     H_    0.910752 0.008600 0.330492 0.192997
C59   C     C_3   0.007129 0.932216 0.396519 -0.815841
H32   H     H_    0.047114 0.980797 0.446769 0.218495
H33   H     H_    0.136495 0.915173 0.361197 0.261114
H34   H     H_    0.956306 0.879199 0.413752 0.228626
O24   O     O_3   0.062665 0.623098 0.957364 -0.588368
C60   C     C_3   0.214069 0.660353 0.005352 0.055235
H35   H     H_    0.187151 0.649146 0.060096 0.145865
H36   H     H_    0.215911 0.726503 0.016243 0.115064
C61   C     C_3   0.410822 0.625565 0.976893 -0.343764
H37   H     H_    0.407390 0.559408 0.966569 0.206044
H38   H     H_    0.445657 0.639035 0.923632 0.195493
C62   C     C_3   0.568634 0.661334 0.032854 -0.783627
H39   H     H_    0.581666 0.726924 0.040185 0.230353
H40   H     H_    0.707287 0.632835 0.012247 0.265154
H41   H     H_    0.537454 0.650656 0.087522 0.224625
O25   O     O_3   0.191074 0.981508 0.801645 -0.572759
C63   C     C_3   0.079446 0.039272 0.779819 0.063086
H42   H     H_    0.955409 0.054141 0.817886 0.150580
H43   H     H_    0.018542 0.017948 0.722541 0.102392
C64   C     C_3   0.198673 0.115483 0.787786 -0.295229
H44   H     H_    0.240864 0.139958 0.846893 0.210391
H45   H     H_    0.329305 0.100631 0.753377 0.195610
C65   C     C_3   0.092521 0.180285 0.763534 -0.819547
H46   H     H_    0.009783 0.154476 0.711724 0.231836
H47   H     H_    0.196901 0.224611 0.753144 0.234312
H48   H     H_    0.996793 0.212698 0.808914 0.241125
C66   C     C_3   0.146245 0.744895 0.535958 -0.757683
H49   H     H_    0.087044 0.785517 0.505164 0.201285
H50   H     H_    0.270022 0.713112 0.504895 0.210094
H51   H     H_    0.023597 0.705567 0.539416 0.198744
O26   O     O_3   0.487811 0.151986 0.477468 -0.574692
C67   C     C_3   0.288986 0.138443 0.483403 0.096123
H52   H     H_    0.268759 0.105746 0.526232 0.139475
H53   H     H_    0.224492 0.099744 0.431092 0.132812
C68   C     C_3   0.182653 0.218307 0.508525 -0.342303
H54   H     H_    0.240275 0.254344 0.562914 0.206888
H55   H     H_    0.204285 0.252818 0.467209 0.199322
C69   C     C_3   0.968522 0.204545 0.515896 -0.780290
H56   H     H_    0.910345 0.167944 0.461994 0.227256
H57   H     H_    0.894140 0.263018 0.531372 0.239602
H58   H     H_    0.940803 0.173344 0.559364 0.229827

loop_
_geom_bond_atom_site_label_1
_geom_bond_atom_site_label_2
_ccdc_geom_bond_type
C66   H51   S    
C39   C40   A    
C32   O22   S    
C25   C26   T    
O22   C53   S    
C12   C15   A    
C1    O6    A    
C62   H39   S    
C58   H30   S    
C50   H11   S    
C16   C17   A    
C21   C22   T    
C44   H7    S    
O19   V4    S    
C9    C10   A    
C20   C21   S    
C67   H53   S    
C59   H33   S    
O5    C3    A    
C22   C23   S    
C65   H48   S    
C1    C25   S    
C66   H49   S    
C53   C54   S    
O12   V3    S    
C55   H24   S    
C6    C7    A    
C68   C69   S    
O23   C57   S    
O17   V4    S    
O26   C67   S    
O8    V2    S    
O21   C50   S    
C7    C8    A    
O25   C63   S    
O12   C45   A    
C53   H19   S    
C63   C64   S    
C68   H54   S    
C67   C68   S    
O15   V3    S    
O1    V2    S    
O11   C46   A    
O7    V1    S    
C69   H57   S    
O17   V3    S    
O14   V3    S    
C41   C56   S    
C16   H4    S    
C43   C44   A    
C42   O23   S    
O9    C4    A    
C63   H43   S    
C15   O25   S    
C2    C40   S    
C64   C65   S    
C5    C6    A    
C50   H12   S    
C33   H5    S    
O18   C47   A    
C35   C36   A    
C12   C13   A    
C69   H58   S    
C49   H9    S    
C59   H34   S    
C23   C24   T    
O4    C2    A    
V4    O20   S    
C49   H8    S    
C13   C14   A    
C29   C30   T    
O13   V3    S    
C19   C48   S    
C4    C14   S    
C18   C66   S    
C35   C37   A    
C19   C20   T    
C3    C24   S    
O2    C1    A    
C27   C28   T    
C17   C18   A    
C52   H16   S    
C31   C32   A    
C51   C52   S    
C11   C12   A    
C53   H18   S    
C8    C9    A    
C34   C35   A    
V3    O20   S    
C57   H29   S    
C31   O21   S    
O19   C48   A    
C55   H23   S    
C69   H56   S    
O3    C4    A    
C8    H3    S    
C64   H45   S    
C32   C33   A    
C54   H21   S    
C51   H14   S    
O6    V2    S    
C9    C11   A    
O18   V4    S    
C61   H37   S    
C5    H1    S    
C6    H2    S    
C26   C27   S    
C60   H36   S    
O2    V1    S    
C62   H41   S    
C52   H15   S    
C28   C29   S    
C49   H10   S    
C50   C51   S    
C13   C18   A    
C66   H50   S    
O13   C48   A    
C38   C39   A    
C7    O24   S    
C57   H28   S    
O1    C2    A    
O11   V4    S    
C11   C47   S    
C64   H44   S    
C62   H40   S    
O5    V1    S    
C58   H31   S    
C65   H46   S    
O24   C60   S    
C37   C38   A    
C31   C36   A    
C5    C10   A    
C54   H20   S    
C60   C61   S    
O9    V2    S    
C42   C43   A    
O4    V1    S    
O3    V1    S    
V1    O10   S    
C59   H32   S    
C52   H17   S    
C65   H47   S    
C41   C42   A    
C63   H42   S    
C17   C49   S    
C56   H26   S    
C61   C62   S    
C34   H6    S    
O15   C47   A    
C57   C58   S    
C45   O16   A    
C67   H52   S    
C68   H55   S    
O7    V2    S    
C55   H22   S    
C37   C45   S    
C30   C46   S    
C58   C59   S    
C10   C14   A    
C36   C40   A    
C54   C55   S    
C51   H13   S    
O14   C46   A    
C33   C34   A    
C56   H25   S    
C15   C16   A    
C61   H38   S    
C60   H35   S    
C39   C44   A    
C56   H27   S    
O16   V4    S    
V2    O10   S    
O8    C3    A    
C38   C41   A    
C43   O26   S    
