data_mof_unit_47027.cif
_audit_creation_date              2012-12-11T16:08:53-0500
_audit_creation_method            fapswitch 2.2
_symmetry_space_group_name_H-M    P1
_symmetry_Int_Tables_number       1
_space_group_crystal_system       triclinic
_cell_length_a                    12.972699
_cell_length_b                    13.221702
_cell_length_c                    27.718473
_cell_angle_alpha                 94.41481
_cell_angle_beta                  90.419813
_cell_angle_gamma                 119.388893
_cell_volume                      4124.60695072

loop_
_atom_site_label
_atom_site_type_symbol
_atom_type_description
_atom_site_fract_x
_atom_site_fract_y
_atom_site_fract_z
_atom_type_partial_charge
C1    C     C_R   0.626240 0.898297 0.426121 0.548465
C2    C     C_R   0.158948 0.736009 0.302014 0.026026
C3    C     C_R   0.153310 0.730534 0.199791 0.028396
C4    C     C_R   0.600891 0.221965 0.440438 0.545770
C5    C     C_R   0.143705 0.633885 0.222467 0.014023
C6    C     C_R   0.157920 0.641492 0.273306 0.019066
C7    C     C_R   0.160139 0.736348 0.149129 0.001927
C8    C     C_R   0.127083 0.809981 0.127466 0.001590
C9    C     C_R   0.202255 0.942694 0.356991 -0.150380
C10   C     C_R   0.175977 0.930944 0.307112 0.023516
C11   C     C_R   0.162429 0.830015 0.279129 0.010964
C12   C     C_R   0.597295 0.238614 0.218439 -0.107103
C13   C     C_R   0.170232 0.020332 0.284144 0.008641
C14   C     C_R   0.152724 0.008678 0.233758 -0.104489
C15   C     C_R   0.147068 0.913305 0.205882 -0.004953
C16   C     C_R   0.266926 0.875387 0.426080 0.555390
C17   C     C_R   0.154644 0.824606 0.228338 0.018582
C18   C     C_R   0.126588 0.901815 0.155810 -0.149689
C19   C     C_R   0.201049 0.851130 0.379389 -0.002534
C20   C     C_R   0.721535 0.969317 0.350424 -0.128380
C21   C     C_R   0.720909 0.960759 0.299974 0.020051
C22   C     C_R   0.716433 0.937270 0.198035 0.015278
C23   C     C_R   0.585053 0.222759 0.267778 -0.100376
C24   C     C_R   0.785407 0.046817 0.224025 -0.107370
C25   C     C_R   0.790407 0.059454 0.274600 0.001100
C26   C     C_R   0.720127 0.922391 0.147261 -0.008641
C27   C     C_R   0.670597 0.807803 0.124508 0.006527
C28   C     C_R   0.627453 0.897808 0.564644 0.539929
C29   C     C_R   0.570611 0.765926 0.349878 -0.136389
C30   C     C_R   0.573266 0.753135 0.299460 0.018484
C31   C     C_R   0.646736 0.851201 0.274324 0.047605
C32   C     C_R   0.502044 0.644374 0.273691 -0.128698
C33   C     C_R   0.505652 0.631486 0.223495 -0.128776
C34   C     C_R   0.666283 0.309096 0.302348 0.029525
C35   C     C_R   0.578773 0.727773 0.198394 0.007157
C36   C     C_R   0.646810 0.839024 0.223555 0.042702
C37   C     C_R   0.592111 0.712754 0.149099 -0.153316
C38   C     C_R   0.643926 0.874208 0.375373 -0.005518
C39   C     C_R   0.724999 0.265107 0.652968 -0.139567
C40   C     C_R   0.603776 0.226953 0.578216 0.535908
C41   C     C_R   0.740045 0.290753 0.702881 0.001691
C42   C     C_R   0.750286 0.321621 0.804747 0.026317
C43   C     C_R   0.812253 0.271914 0.780523 -0.133940
C44   C     C_R   0.807190 0.256900 0.730147 -0.141682
C45   C     C_R   0.691290 0.340652 0.203437 0.029760
C46   C     C_R   0.750828 0.334472 0.855994 -0.014913
C47   C     C_R   0.692315 0.391354 0.877646 0.016914
C48   C     C_R   0.594420 0.347718 0.648632 -0.135990
C49   C     C_R   0.610877 0.376499 0.698472 0.006660
C50   C     C_R   0.680521 0.343997 0.726020 0.052558
C51   C     C_R   0.552453 0.430158 0.721507 -0.131149
C52   C     C_R   0.326744 0.902430 0.569679 0.563200
C53   C     C_R   0.558940 0.447353 0.771701 -0.132718
C54   C     C_R   0.623324 0.410385 0.799196 -0.010245
C55   C     C_R   0.685808 0.359675 0.776735 0.037458
C56   C     C_1   0.697314 0.363865 0.153376 -0.068934
C57   C     C_R   0.627156 0.425578 0.848958 -0.145759
C58   C     C_R   0.646454 0.286851 0.626356 -0.005824
C59   C     C_1   0.295827 0.893224 0.619256 -0.016043
C60   C     C_R   0.135662 0.786532 0.722919 -0.117599
C61   C     C_R   0.105309 0.771887 0.770979 -0.113377
C62   C     C_R   0.294719 0.939560 0.797639 -0.091492
C63   C     C_R   0.326484 0.955564 0.749257 0.011236
C64   C     C_1   0.632046 0.267225 0.394182 -0.023668
C65   C     C_R   0.245674 0.877423 0.711622 0.053774
C66   C     C_R   0.184691 0.847843 0.808406 0.024467
C67   C     C_1   0.650936 0.291605 0.352966 -0.072804
C68   C     C_1   0.151083 0.829340 0.857619 -0.059527
C69   C     C_1   0.272935 0.886668 0.661318 -0.061354
C70   C     C_1   0.114109 0.805881 0.897300 -0.015201
C71   C     C_1   0.646056 0.859369 0.609084 -0.020011
C72   C     C_R   0.734129 0.759753 0.710817 -0.105596
C73   C     C_R   0.746637 0.744136 0.759448 -0.102325
C74   C     C_R   0.619795 0.825385 0.781702 -0.109025
C75   C     C_R   0.607353 0.840980 0.733226 -0.109496
C76   C     C_R   0.761766 0.410035 0.287316 -0.112723
C77   C     C_R   0.665211 0.809182 0.697769 0.033225
C78   C     C_1   0.704030 0.392339 0.112745 -0.023241
C79   C     C_R   0.690149 0.777823 0.794956 0.032014
C80   C     C_1   0.707986 0.768147 0.845190 -0.068738
C81   C     C_1   0.656774 0.833165 0.648691 -0.062679
C82   C     C_1   0.725043 0.761840 0.887306 -0.020389
C83   C     C_R   0.066027 0.772997 0.079162 0.547926
C84   C     C_R   0.716976 0.440738 0.067195 0.546215
C85   C     C_R   0.718017 0.783690 0.079860 0.555570
C86   C     C_R   0.058136 0.767541 0.941750 0.538474
C87   C     C_R   0.710445 0.435483 0.928727 0.531395
C88   C     C_R   0.774209 0.425796 0.237939 -0.108404
C89   C     C_R   0.158842 0.741734 0.353142 0.001770
C90   C     C_R   0.748919 0.754389 0.936987 0.562875
C91   C     C_3   0.180102 0.127249 0.312419 -0.409791
C92   C     C_3   0.776695 0.026936 0.117878 -0.384779
C93   C     C_3   0.870840 0.178723 0.300329 -0.409672
C94   C     C_3   0.809290 0.284768 0.886680 -0.387138
C95   C     C_3   0.445699 0.056323 0.739747 -0.398026
C96   C     C_3   0.221485 0.682382 0.119371 -0.374712
C97   C     C_3   0.097050 0.633259 0.379998 -0.375365
C98   C     C_3   0.098795 0.515886 0.194088 -0.407946
C99   C     C_3   0.191038 0.558770 0.295103 -0.400317
Cr1   Cr    Cr6+3 0.416430 0.829200 0.492370 1.013567
Cr2   Cr    Cr6+3 0.674630 0.087020 0.504170 1.011111
Cr3   Cr    Cr6+3 0.408920 0.083740 0.503490 1.019864
Cr4   Cr    Cr6+3 0.914010 0.832750 0.013970 1.011407
Cr5   Cr    Cr6+3 0.922310 0.578600 0.003000 1.007096
Cr6   Cr    Cr6+3 0.656280 0.574630 0.003870 1.013617
H1    H     H_    0.228739 0.024402 0.378366 0.135298
H2    H     H_    0.145475 0.075379 0.215996 0.104516
H3    H     H_    0.269298 0.179014 0.331017 0.131974
H4    H     H_    0.167462 0.184579 0.288607 0.120761
H5    H     H_    0.111144 0.100839 0.339592 0.133627
H6    H     H_    0.874629 0.071751 0.123413 0.135123
H7    H     H_    0.751861 0.002145 0.078627 0.152067
H8    H     H_    0.744414 0.088616 0.129013 0.117059
H9    H     H_    0.777050 0.052870 0.370533 0.143078
H10   H     H_    0.840285 0.122862 0.205303 0.112023
H11   H     H_    0.818337 0.207418 0.323128 0.144098
H12   H     H_    0.452753 0.545802 0.204369 0.105584
H13   H     H_    0.939361 0.175648 0.323428 0.122350
H14   H     H_    0.917207 0.245560 0.274561 0.122019
H15   H     H_    0.549193 0.625213 0.130954 0.132712
H16   H     H_    0.445409 0.568799 0.292468 0.101990
H17   H     H_    0.509901 0.692870 0.369107 0.114095
H18   H     H_    0.776625 0.191936 0.873818 0.119182
H19   H     H_    0.906915 0.335119 0.884218 0.138894
H20   H     H_    0.787900 0.285066 0.925291 0.143857
H21   H     H_    0.766054 0.218386 0.635662 0.140045
H22   H     H_    0.864678 0.243666 0.800021 0.119320
H23   H     H_    0.846882 0.505473 0.226734 0.122230
H24   H     H_    0.582848 0.470092 0.865337 0.141125
H25   H     H_    0.499743 0.456393 0.700811 0.119192
H26   H     H_    0.535104 0.365631 0.627749 0.128462
H27   H     H_    0.073150 0.726352 0.694428 0.115448
H28   H     H_    0.532261 0.172652 0.192161 0.112722
H29   H     H_    0.019817 0.700792 0.778983 0.113633
H30   H     H_    0.355772 0.998448 0.826814 0.113115
H31   H     H_    0.463546 0.061350 0.700699 0.141921
H32   H     H_    0.450123 0.139214 0.754036 0.148828
H33   H     H_    0.516798 0.048167 0.758552 0.127438
H34   H     H_    0.853474 0.215959 0.712518 0.117493
H35   H     H_    0.801333 0.707287 0.769429 0.113868
H36   H     H_    0.576119 0.852043 0.808885 0.113288
H37   H     H_    0.267632 0.736607 0.089513 0.134518
H38   H     H_    0.291026 0.679570 0.141911 0.129281
H39   H     H_    0.157385 0.593458 0.103178 0.148930
H40   H     H_    0.020680 0.562786 0.357634 0.114209
H41   H     H_    0.158981 0.602847 0.390783 0.149008
H42   H     H_    0.059706 0.651179 0.413427 0.136736
H43   H     H_    0.035144 0.503181 0.164132 0.141100
H44   H     H_    0.173735 0.506474 0.179961 0.121577
H45   H     H_    0.512152 0.488065 0.789076 0.121116
H46   H     H_    0.047767 0.443781 0.217092 0.126246
H47   H     H_    0.261651 0.606016 0.324233 0.139383
H48   H     H_    0.112101 0.484572 0.308703 0.117225
H49   H     H_    0.229847 0.522425 0.268113 0.128134
H50   H     H_    0.106271 0.961982 0.139141 0.126702
H51   H     H_    0.779364 0.735082 0.683669 0.113427
H52   H     H_    0.554099 0.879537 0.723455 0.113993
H53   H     H_    0.511333 0.143877 0.279024 0.120350
H54   H     H_    0.825343 0.476963 0.313664 0.108852
O1    O     O_R   0.296680 0.802170 0.437540 -0.511868
O2    O     O_R   0.637200 0.461990 0.052510 -0.508212
O3    O     O_R   0.664790 0.681920 0.057970 -0.499856
O4    O     O_R   0.525380 0.838530 0.443500 -0.497894
O5    O     O_R   0.815840 0.852920 0.961840 -0.508636
O6    O     O_R   0.012100 0.822630 0.963670 -0.511831
O7    O     O_R   0.037010 0.668460 0.953040 -0.506477
O8    O     O_R   0.813390 0.478970 0.949660 -0.499044
O9    O     O_R   0.632250 0.456930 0.945520 -0.530243
O10   O     O_R   0.660200 0.677230 0.958780 -0.497532
O11   O     O_3   0.830870 0.661990 0.006950 -0.259811
O12   O     O_R   0.662610 0.183990 0.557860 -0.508631
O13   O     O_R   0.702130 0.995190 0.446810 -0.520958
O14   O     O_R   0.661770 0.181390 0.458760 -0.495976
O15   O     O_R   0.499820 0.198480 0.455280 -0.509157
O16   O     O_R   0.311660 0.976250 0.449080 -0.498992
O17   O     O_R   0.297580 0.804960 0.544440 -0.507344
O18   O     O_R   0.526220 0.841130 0.542590 -0.509976
O19   O     O_R   0.703030 0.997990 0.553710 -0.509953
O20   O     O_R   0.500730 0.201280 0.562180 -0.520514
O21   O     O_R   0.312500 0.978850 0.548170 -0.489139
O22   O     O_3   0.499990 0.999990 0.500010 -0.263045
O23   O     O_R   0.820790 0.857990 0.068830 -0.511802
O24   O     O_R   0.016700 0.827330 0.062850 -0.500964
O25   O     O_R   0.041970 0.673520 0.060040 -0.514289
O26   O     O_R   0.817980 0.483660 0.048840 -0.495085

loop_
_geom_bond_atom_site_label_1
_geom_bond_atom_site_label_2
_ccdc_geom_bond_type
C15   C18   A    
C66   C68   S    
C63   C65   A    
C76   H54   S    
C33   H12   S    
C85   O23   A    
C72   H51   S    
C16   O1    A    
C8    C83   S    
Cr3   O21   S    
C97   H41   S    
Cr2   O14   S    
C35   C36   A    
C86   O7    A    
C60   H27   S    
C7    C8    A    
C39   C41   A    
C53   C54   A    
C25   C93   S    
Cr5   O26   S    
C21   C31   A    
C12   C23   A    
C26   C27   A    
C72   C77   A    
Cr6   O10   S    
Cr4   O24   S    
C91   H5    S    
C57   H24   S    
C35   C37   A    
C52   O17   A    
C3    C7    A    
C31   C36   A    
C30   C31   A    
C96   H39   S    
Cr1   O18   S    
C26   C92   S    
Cr4   O23   S    
C23   H53   S    
C63   C95   S    
C56   C78   T    
Cr2   O13   S    
C96   H38   S    
C42   C46   A    
C42   C43   A    
C27   C85   S    
Cr2   O19   S    
Cr5   O7    S    
C46   C47   A    
C61   C66   A    
C9    C19   A    
C87   O8    A    
C45   C56   S    
C49   C51   A    
C29   C38   A    
Cr1   O17   S    
Cr4   O11   S    
C48   H26   S    
Cr2   O12   S    
C19   C89   A    
C30   C32   A    
C29   C30   A    
C28   O18   A    
C76   C88   A    
C72   C73   A    
C94   H18   S    
C75   H52   S    
C39   H21   S    
C4    O15   A    
C13   C14   A    
C13   C91   S    
Cr3   O20   S    
C97   H42   S    
C84   O26   A    
C2    C6    A    
C86   O6    A    
C2    C11   A    
C32   H16   S    
C51   H25   S    
C61   H29   S    
C98   H46   S    
C95   H32   S    
C40   C58   S    
C74   C75   A    
C62   C66   A    
C64   C67   T    
C45   C88   A    
C24   C25   A    
C80   C82   T    
Cr6   O11   S    
C43   H22   S    
C92   H7    S    
C99   H49   S    
C9    H1    S    
C39   C58   A    
C85   O3    A    
C8    C18   A    
C90   O5    A    
C60   C61   A    
C51   C53   A    
C93   H11   S    
C47   C87   S    
C62   H30   S    
C2    C89   A    
C43   C44   A    
C52   O21   A    
C62   C63   A    
C7    C96   S    
C52   C59   S    
C42   C55   A    
C47   C57   A    
C40   O20   A    
C20   C38   A    
Cr1   O1    S    
C87   O9    A    
C46   C94   S    
C77   C81   S    
C23   C34   A    
C29   H17   S    
C73   C79   A    
C83   O24   A    
C84   O2    A    
C5    C98   S    
C48   C58   A    
Cr1   O22   S    
C75   C77   A    
C1    C38   S    
C59   C69   T    
C16   O16   A    
C48   C49   A    
Cr5   O25   S    
C74   H36   S    
C60   C65   A    
Cr4   O6    S    
C44   H34   S    
C4    O14   A    
C53   H45   S    
C41   C44   A    
Cr6   O2    S    
C28   C71   S    
C93   H13   S    
C92   H8    S    
C70   C86   S    
C41   C50   A    
Cr2   O22   S    
Cr5   O11   S    
C9    C10   A    
C94   H20   S    
C15   C17   A    
C21   C25   A    
C54   C55   A    
C14   H2    S    
C95   H33   S    
Cr6   O3    S    
Cr3   O22   S    
C97   H40   S    
C91   H3    S    
C12   C45   A    
C3    C5    A    
C10   C13   A    
C11   C17   A    
C34   C67   S    
C92   H6    S    
Cr4   O5    S    
C73   H35   S    
Cr3   O15   S    
C22   C36   A    
C99   H47   S    
C4    C64   S    
C1    O13   A    
C50   C55   A    
C82   C90   S    
Cr6   O9    S    
C74   C79   A    
C32   C33   A    
C91   H4    S    
Cr3   O16   S    
C88   H23   S    
C6    C99   S    
Cr5   O8    S    
C20   H9    S    
C5    C6    A    
C37   H15   S    
C98   H43   S    
C27   C37   A    
C16   C19   S    
C65   C69   S    
C99   H48   S    
C90   O10   A    
C95   H31   S    
C33   C35   A    
C83   O25   A    
C3    C17   A    
Cr1   O4    S    
C22   C24   A    
C10   C11   A    
C18   H50   S    
C96   H37   S    
C79   C80   S    
C78   C84   S    
C20   C21   A    
C1    O4    A    
C24   H10   S    
C68   C70   T    
C49   C50   A    
C22   C26   A    
C89   C97   S    
C14   C15   A    
C93   H14   S    
C28   O19   A    
C98   H44   S    
C40   O12   A    
C12   H28   S    
C34   C76   A    
C71   C81   T    
C54   C57   A    
C94   H19   S    
