data_mof_unit_62164.cif
_audit_creation_date              2012-12-10T18:40:10-0500
_audit_creation_method            fapswitch 2.2
_symmetry_space_group_name_H-M    P1
_symmetry_Int_Tables_number       1
_space_group_crystal_system       triclinic
_cell_length_a                    15.767237
_cell_length_b                    11.573191
_cell_length_c                    10.784527
_cell_angle_alpha                 90.002197
_cell_angle_beta                  89.9506
_cell_angle_gamma                 89.996955
_cell_volume                      1967.9300436

loop_
_atom_site_label
_atom_site_type_symbol
_atom_type_description
_atom_site_fract_x
_atom_site_fract_y
_atom_site_fract_z
_atom_type_partial_charge
Br1   Br    Br    0.072635 0.305615 0.305298 -0.418757
Br2   Br    Br    0.927359 0.694405 0.694682 -0.418741
Br3   Br    Br    0.927707 0.242083 0.569940 -0.390631
Br4   Br    Br    0.072299 0.757921 0.430077 -0.390646
C1    C     C_1   0.500002 0.161050 0.499996 -0.152423
C2    C     C_1   0.499999 0.940842 0.500002 0.035692
C3    C     C_3   0.971846 0.394432 0.531361 0.247418
C4    C     C_3   0.028154 0.605574 0.468639 0.247444
C5    C     C_3   0.028306 0.421586 0.418030 0.246633
C6    C     C_3   0.971694 0.578420 0.581970 0.246662
C7    C     C_1   0.248751 0.500007 0.500256 -0.130500
C8    C     C_1   0.751249 0.499994 0.499744 -0.130500
C9    C     C_3   0.027245 0.472739 0.614290 -0.001159
C10   C     C_3   0.972754 0.527266 0.385710 -0.001147
C11   C     C_3   0.083006 0.499887 0.500950 -0.120983
C12   C     C_1   0.499998 0.838949 0.500004 -0.152423
C13   C     C_3   0.916993 0.500118 0.499050 -0.120980
C14   C     C_1   0.173691 0.499979 0.500576 0.088622
C15   C     C_1   0.826309 0.500024 0.499424 0.088623
C16   C     C_3   0.935429 0.557350 0.258637 -0.341110
C17   C     C_3   0.003570 0.581049 0.161314 -0.734324
C18   C     C_3   0.064571 0.442635 0.741358 -0.341063
C19   C     C_3   0.996428 0.419024 0.838708 -0.734323
C20   C     C_1   0.499996 0.500000 0.069776 0.066109
C21   C     C_1   0.500004 0.500000 0.930224 0.066109
C22   C     C_R   0.500001 0.281178 0.499998 0.912862
C23   C     C_R   0.499999 0.718822 0.500002 0.912863
C24   C     C_R   0.337402 0.500013 0.500042 0.904253
C25   C     C_R   0.662598 0.499987 0.499958 0.904251
C26   C     C_1   0.500001 0.059158 0.499998 0.035692
H1    H     H_    0.043653 0.655347 0.188893 0.291317
H2    H     H_    0.104852 0.515588 0.773130 0.224473
H3    H     H_    0.044375 0.504169 0.147472 0.274626
H4    H     H_    0.972769 0.602181 0.071596 0.250261
H5    H     H_    0.895196 0.484362 0.226839 0.224505
H6    H     H_    0.894605 0.635061 0.268299 0.230851
H7    H     H_    0.955677 0.495953 0.852573 0.274613
H8    H     H_    0.956294 0.344777 0.811146 0.291302
H9    H     H_    0.027232 0.397861 0.928415 0.250271
H10   H     H_    0.105350 0.364879 0.731695 0.230867
N1    N     N_1   0.499990 0.500000 0.180630 -0.073149
N2    N     N_1   0.500010 0.500000 0.819370 -0.073149
O1    O     O_R   0.499990 0.334450 0.602530 -0.607045
O2    O     O_R   0.500010 0.665550 0.397470 -0.607045
O3    O     O_R   0.500010 0.334450 0.397470 -0.605101
O4    O     O_R   0.499990 0.665550 0.602530 -0.605100
O5    O     O_R   0.376780 0.500000 0.602510 -0.614323
O6    O     O_R   0.623220 0.500000 0.397490 -0.614322
O7    O     O_R   0.376780 0.500000 0.397450 -0.598609
O8    O     O_R   0.623220 0.500000 0.602550 -0.598608
Zn1   Zn    Zn3+2 0.500000 0.500000 0.636920 1.014922
Zn2   Zn    Zn3+2 0.500000 0.500000 0.363080 1.014922

loop_
_geom_bond_atom_site_label_1
_geom_bond_atom_site_label_2
_ccdc_geom_bond_type
C21   N2    T    
C22   O1    A    
C11   C14   S    
C4    C10   S    
C5    C10   S    
C24   O5    A    
C8    C25   S    
C19   H8    S    
C24   O7    A    
N1    Zn2   S    
C22   O3    A    
C3    C9    S    
N2    Zn1   S    
Br4   C4    S    
O7    Zn2   S    
C18   H10   S    
O2    Zn2   S    
C12   C23   S    
O8    Zn1   S    
C5    C11   S    
C7    C14   T    
C16   C17   S    
C20   N1    T    
C17   H1    S    
C10   C13   S    
O1    Zn1   S    
C18   H2    S    
C7    C24   S    
C19   H9    S    
C23   O2    A    
C23   O4    A    
C2    C26   S    
C9    C18   S    
C4    C11   S    
Br3   C3    S    
C25   O8    A    
C9    C11   S    
C17   H3    S    
C6    C13   S    
C2    C12   T    
C1    C22   S    
Br2   C6    S    
C10   C16   S    
O6    Zn2   S    
Br1   C5    S    
C20   C21   S    
C8    C15   T    
C4    C6    S    
C1    C26   T    
C3    C5    S    
C18   C19   S    
O5    Zn1   S    
C17   H4    S    
C25   O6    A    
O3    Zn2   S    
C13   C15   S    
C19   H7    S    
C16   H5    S    
O4    Zn1   S    
C3    C13   S    
C6    C9    S    
C16   H6    S    
