data_mof_unit_5906.cif
_audit_creation_date              2012-12-10T17:35:45-0500
_audit_creation_method            fapswitch 2.2
_symmetry_space_group_name_H-M    P1
_symmetry_Int_Tables_number       1
_space_group_crystal_system       triclinic
_cell_length_a                    10.530711
_cell_length_b                    12.139187
_cell_length_c                    12.848349
_cell_angle_alpha                 94.045159
_cell_angle_beta                  93.376817
_cell_angle_gamma                 89.983749
_cell_volume                      1635.5105672

loop_
_atom_site_label
_atom_site_type_symbol
_atom_type_description
_atom_site_fract_x
_atom_site_fract_y
_atom_site_fract_z
_atom_type_partial_charge
C1    C     C_R   0.501713 0.522188 0.700072 0.880039
C2    C     C_R   0.508869 0.478912 0.300176 0.866726
C3    C     C_R   0.561001 0.454603 0.871379 0.097329
C4    C     C_R   0.518145 0.563561 0.131038 0.083522
C5    C     C_R   0.525649 0.448850 0.973372 0.050101
C6    C     C_R   0.485962 0.548163 0.024887 0.032843
C7    C     C_R   0.398867 0.940541 0.384649 0.317812
C8    C     C_R   0.647391 0.058335 0.580751 0.318100
C9    C     C_R   0.402143 0.828994 0.401830 -0.062426
C10   C     C_R   0.625636 0.170956 0.574456 -0.067519
C11   C     C_R   0.559146 0.862577 0.541725 0.258964
C12   C     C_R   0.442996 0.134520 0.459798 0.221267
C13   C     C_R   0.560508 0.978861 0.527198 -0.080743
C14   C     C_R   0.467152 0.018636 0.455477 -0.105292
C15   C     C_R   0.741638 0.502995 0.498787 0.890368
C16   C     C_R   0.257892 0.497169 0.501180 0.909365
C17   C     C_3   0.958704 0.480979 0.593652 -0.293312
C18   C     C_3   0.039406 0.520869 0.404707 -0.319182
C19   C     C_3   0.048242 0.575660 0.571424 0.104783
C20   C     C_3   0.949574 0.425791 0.427270 0.096879
C21   C     C_3   0.122570 0.493354 0.502436 -0.203869
C22   C     C_3   0.875982 0.507634 0.496553 -0.193863
C23   C     C_3   0.033447 0.398863 0.523930 0.438816
C24   C     C_3   0.963914 0.602348 0.474985 0.438279
C25   C     C_R   0.522505 0.468396 0.188492 -0.114116
C26   C     C_R   0.501169 0.534888 0.811839 -0.080758
C27   C     C_R   0.426187 0.630640 0.967007 0.139485
C28   C     C_R   0.538756 0.352328 0.028682 0.158599
C29   C     C_R   0.430267 0.619828 0.858816 -0.268766
C30   C     C_R   0.533654 0.363624 0.137006 -0.264128
H1    H     H_    0.922593 0.463926 0.669871 0.184665
H2    H     H_    0.075479 0.536648 0.327614 0.175052
H3    H     H_    0.542966 0.291154 0.180981 0.177382
H4    H     H_    0.380437 0.678511 0.811663 0.165675
H5    H     H_    0.691868 0.230547 0.613557 0.187364
H6    H     H_    0.349091 0.769872 0.349189 0.176848
N1    N     N_R   0.523490 0.207800 0.519350 -0.145639
N2    N     N_R   0.476510 0.792200 0.480650 -0.153961
O1    O     O_R   0.506270 0.421700 0.658830 -0.615785
O2    O     O_R   0.493730 0.578300 0.341170 -0.618036
O3    O     O_R   0.491200 0.609310 0.646410 -0.648254
O4    O     O_R   0.508800 0.390690 0.353590 -0.627748
O5    O     O_R   0.693580 0.406210 0.506230 -0.627266
O6    O     O_R   0.306420 0.593790 0.493770 -0.616858
O7    O     O_R   0.678510 0.593830 0.493810 -0.617718
O8    O     O_R   0.321490 0.406170 0.506190 -0.611657
Zn1   Zn    Zn3+2 0.510060 0.374730 0.508290 0.941517
Zn2   Zn    Zn3+2 0.489940 0.625270 0.491710 0.935609
C31   C     C_3   0.109041 0.659787 0.653961 -0.353088
C32   C     C_3   0.009752 0.718282 0.719344 -0.812956
H7    H     H_    0.934264 0.753689 0.668376 0.299376
H8    H     H_    0.966643 0.659627 0.769571 0.242871
H9    H     H_    0.055298 0.786735 0.770009 0.260651
H10   H     H_    0.177242 0.616591 0.706150 0.188266
H11   H     H_    0.162099 0.722213 0.614364 0.250262
C33   C     C_3   0.886309 0.344375 0.343347 -0.346103
C34   C     C_3   0.983995 0.278159 0.282947 -0.823828
H12   H     H_    0.049654 0.334067 0.247071 0.244268
H13   H     H_    0.038804 0.225223 0.336186 0.298816
H14   H     H_    0.934624 0.224153 0.219863 0.256606
H15   H     H_    0.824882 0.286138 0.380658 0.251936
H16   H     H_    0.825754 0.391120 0.288141 0.189379
Cl1   Cl    Cl    0.063234 0.265147 0.568021 -0.611418
Cl2   Cl    Cl    0.916624 0.736879 0.441327 -0.617383
C35   C     C_3   0.583601 0.672357 0.171511 -0.402091
C36   C     C_3   0.721707 0.654328 0.210116 -0.735691
H17   H     H_    0.727367 0.605370 0.279865 0.267450
H18   H     H_    0.774615 0.610553 0.147391 0.233572
H19   H     H_    0.768154 0.735507 0.231548 0.284417
H20   H     H_    0.588125 0.729378 0.107859 0.204669
H21   H     H_    0.530699 0.718111 0.232531 0.240042
C37   C     C_3   0.690024 0.408257 0.842570 -0.405179
C38   C     C_3   0.789096 0.500791 0.850724 -0.888779
H22   H     H_    0.769552 0.557701 0.787746 0.246112
H23   H     H_    0.787612 0.548333 0.927815 0.268221
H24   H     H_    0.885523 0.465115 0.843901 0.258302
H25   H     H_    0.725726 0.346888 0.897008 0.216691
H26   H     H_    0.686532 0.365749 0.763417 0.229631
C39   C     C_3   0.346162 0.722127 0.016213 -0.397357
C40   C     C_3   0.204880 0.703182 0.986850 -0.820579
H27   H     H_    0.185904 0.701944 0.901098 0.254057
H28   H     H_    0.173511 0.623430 0.014453 0.257494
H29   H     H_    0.148624 0.770878 0.024115 0.273732
H30   H     H_    0.356575 0.727224 0.102657 0.230263
H31   H     H_    0.376320 0.802919 0.990008 0.222246
C41   C     C_3   0.543469 0.236969 0.974703 -0.450643
C42   C     C_3   0.427292 0.167979 0.995364 -0.772505
H32   H     H_    0.426516 0.151341 0.079149 0.269747
H33   H     H_    0.338441 0.211535 0.971966 0.266168
H34   H     H_    0.429901 0.087400 0.948882 0.251937
H35   H     H_    0.544727 0.239298 0.888620 0.220790
H36   H     H_    0.631367 0.194763 0.002663 0.217397
C43   C     C_3   0.313830 0.172932 0.419645 -0.274994
C44   C     C_3   0.313205 0.224478 0.314290 -0.714697
H37   H     H_    0.293191 0.314076 0.323147 0.242795
H38   H     H_    0.404195 0.208943 0.277058 0.264829
H39   H     H_    0.236644 0.187269 0.260032 0.259227
H40   H     H_    0.242873 0.104919 0.414660 0.230693
H41   H     H_    0.275543 0.228107 0.480069 0.257732
C45   C     C_3   0.641532 0.816022 0.628146 -0.292208
C46   C     C_3   0.595458 0.850576 0.736341 -0.847291
H42   H     H_    0.494827 0.825147 0.740674 0.252698
H43   H     H_    0.654364 0.809773 0.796942 0.254958
H44   H     H_    0.601774 0.941168 0.753798 0.281320
H45   H     H_    0.643763 0.727125 0.620715 0.251623
H46   H     H_    0.742617 0.833751 0.620969 0.250680
Cl3   Cl    Cl    0.327564 0.970581 0.262314 -0.693781
Cl4   Cl    Cl    0.795123 0.031351 0.646119 -0.591842

loop_
_geom_bond_atom_site_label_1
_geom_bond_atom_site_label_2
_ccdc_geom_bond_type
C36   H18   S    
C42   H32   S    
C39   H30   S    
C16   C21   S    
C27   C29   A    
C18   C21   S    
C38   H22   S    
C20   C33   S    
C4    C25   A    
C45   H45   S    
C43   C44   S    
C10   N1    A    
C18   C24   S    
C19   C21   S    
C27   C39   S    
C41   H35   S    
C5    C6    A    
C8    C10   A    
C34   H13   S    
C36   H19   S    
C31   H10   S    
C33   C34   S    
C7    C9    A    
C12   N1    A    
C9    N2    A    
C37   H26   S    
O3    Zn2   S    
C15   C22   S    
C9    H6    S    
C32   H8    S    
C10   H5    S    
N1    Zn1   S    
C43   H41   S    
N2    Zn2   S    
C33   H16   S    
C23   Cl1   S    
C36   H17   S    
C46   H43   S    
C13   C14   A    
C7    Cl3   S    
C38   H23   S    
C40   H29   S    
C8    Cl4   S    
C7    C14   A    
C32   H9    S    
C46   H42   S    
C4    C6    A    
C16   O8    A    
C41   C42   S    
C40   H27   S    
C34   H14   S    
C44   H39   S    
C31   H11   S    
C29   H4    S    
C11   C45   S    
C11   N2    A    
C37   H25   S    
C5    C28   A    
C19   C31   S    
C6    C27   A    
C20   C23   S    
C32   H7    S    
C17   C23   S    
C44   H38   S    
C1    O3    A    
C12   C14   A    
C31   C32   S    
C46   H44   S    
C21   C23   S    
C28   C41   S    
C1    C26   S    
C17   H1    S    
C38   H24   S    
C22   C24   S    
C12   C43   S    
C18   H2    S    
C15   O7    A    
C39   H31   S    
O1    Zn1   S    
O7    Zn2   S    
C25   C30   A    
O2    Zn2   S    
C16   O6    A    
O8    Zn1   S    
C30   H3    S    
C3    C26   A    
C20   C22   S    
C37   C38   S    
C3    C5    A    
C45   H46   S    
C17   C22   S    
C28   C30   A    
C3    C37   S    
C15   O5    A    
C35   H21   S    
C11   C13   A    
C34   H12   S    
C4    C35   S    
C2    O4    A    
C45   C46   S    
C17   C19   S    
C40   H28   S    
C19   C24   S    
C2    C25   S    
C18   C20   S    
O4    Zn1   S    
C44   H37   S    
C1    O1    A    
C39   C40   S    
C8    C13   A    
C2    O2    A    
C26   C29   A    
C24   Cl2   S    
C35   C36   S    
C42   H34   S    
C42   H33   S    
C33   H15   S    
C41   H36   S    
C35   H20   S    
O5    Zn1   S    
C43   H40   S    
O6    Zn2   S    
