data_mof_unit_18047.cif
_audit_creation_date              2012-12-10T17:07:48-0500
_audit_creation_method            fapswitch 2.2
_symmetry_space_group_name_H-M    P1
_symmetry_Int_Tables_number       1
_space_group_crystal_system       triclinic
_cell_length_a                    10.754413
_cell_length_b                    10.681434
_cell_length_c                    10.067207
_cell_angle_alpha                 92.076775
_cell_angle_beta                  89.671052
_cell_angle_gamma                 89.583686
_cell_volume                      1155.63480353

loop_
_atom_site_label
_atom_site_type_symbol
_atom_type_description
_atom_site_fract_x
_atom_site_fract_y
_atom_site_fract_z
_atom_type_partial_charge
C1    C     C_R   0.503566 0.262710 0.497370 0.918356
C2    C     C_3   0.878784 0.498049 0.505688 0.039804
C3    C     C_3   0.929452 0.638522 0.501196 0.406281
C4    C     C_3   0.925743 0.417784 0.381733 -0.525961
C5    C     C_2   0.431328 0.934802 0.395375 0.215107
C6    C     C_2   0.448976 0.868918 0.507509 0.003648
C7    C     C_2   0.430486 0.070708 0.404668 -0.161708
C8    C     C_2   0.506956 0.130265 0.488870 -0.366693
C9    C     C_2   0.540230 0.590005 0.932103 0.182954
C10   C     C_2   0.573259 0.565317 0.072947 0.199514
C11   C     C_R   0.258433 0.491935 0.499145 0.891638
C12   C     C_R   0.489440 0.738137 0.501826 0.899651
C13   C     C_R   0.742107 0.496939 0.501087 0.882097
C14   C     C_3   0.073101 0.449139 0.634162 -0.447139
C15   C     C_3   0.932447 0.426897 0.629494 -0.001269
C16   C     C_3   0.073775 0.630370 0.476702 -0.028925
C17   C     C_3   0.069336 0.400634 0.380804 0.388602
C18   C     C_3   0.121949 0.492596 0.496638 0.033168
H1    H     H_    0.894917 0.461703 0.289730 0.194494
H2    H     H_    0.570135 0.081905 0.553615 0.158466
H3    H     H_    0.120814 0.361738 0.663845 0.170382
H4    H     H_    0.420008 0.470641 0.104451 0.128683
N1    N     N_2   0.501360 0.501330 0.852150 -0.208280
N2    N     N_2   0.501390 0.501360 0.147810 -0.204911
O1    O     O_R   0.499980 0.319060 0.613040 -0.620338
O2    O     O_R   0.500020 0.319100 0.386900 -0.609297
O3    O     O_R   0.314770 0.499960 0.613070 -0.616562
O4    O     O_R   0.314820 0.500000 0.386930 -0.628830
O5    O     O_R   0.499980 0.680900 0.613100 -0.603855
O6    O     O_R   0.500020 0.680940 0.386960 -0.620731
O7    O     O_R   0.685180 0.500000 0.613070 -0.611876
O8    O     O_R   0.685230 0.500040 0.386930 -0.617814
Zn1   Zn    Zn3+2 0.499970 0.499970 0.650990 0.917447
Zn2   Zn    Zn3+2 0.500030 0.500030 0.349010 0.913574
H5    H     H_    0.095063 0.520807 0.713162 0.210103
H6    H     H_    0.092690 0.651297 0.371741 0.166055
C19   C     C_3   0.871770 0.713429 0.387208 -0.963133
H7    H     H_    0.770540 0.728153 0.403320 0.253404
H8    H     H_    0.914105 0.807921 0.383911 0.243062
H9    H     H_    0.889578 0.667536 0.288724 0.230844
C20   C     C_3   0.420298 0.877698 0.256042 -0.878962
H10   H     H_    0.390896 0.948609 0.184275 0.219860
H11   H     H_    0.511567 0.840461 0.220747 0.251064
H12   H     H_    0.348738 0.803176 0.253318 0.249585
C21   C     C_3   0.410960 0.922346 0.644501 -0.957815
H13   H     H_    0.348017 0.856323 0.693596 0.249386
H14   H     H_    0.494489 0.936966 0.707267 0.246141
H15   H     H_    0.356932 0.011001 0.641060 0.262694
H16   H     H_    0.372745 0.122071 0.336698 0.157293
C22   C     C_3   0.554346 0.720639 0.885343 -0.807793
H17   H     H_    0.578990 0.787271 0.968025 0.207057
H18   H     H_    0.628600 0.723623 0.808980 0.249226
H19   H     H_    0.463763 0.752519 0.847304 0.248481
H20   H     H_    0.496662 0.413769 0.891609 0.136755
C23   C     C_3   0.691971 0.617340 0.126311 -0.831856
H21   H     H_    0.745279 0.667138 0.049928 0.208064
H22   H     H_    0.751210 0.538679 0.156471 0.240797
H23   H     H_    0.671660 0.683771 0.210134 0.263391
H24   H     H_    0.918399 0.325148 0.608359 0.159129
C24   C     C_3   0.874192 0.443946 0.770786 -0.867544
H25   H     H_    0.843750 0.540235 0.797939 0.262282
H26   H     H_    0.792352 0.381932 0.780643 0.250754
H27   H     H_    0.941114 0.413974 0.847346 0.223057
C25   C     C_3   0.148513 0.734169 0.550875 -0.921720
H28   H     H_    0.155673 0.718836 0.658842 0.250404
H29   H     H_    0.243020 0.736440 0.508583 0.242038
H30   H     H_    0.107645 0.828024 0.534642 0.251629
C26   C     C_3   0.894919 0.715561 0.630947 -0.845789
H31   H     H_    0.795034 0.706436 0.655431 0.229644
H32   H     H_    0.951580 0.688331 0.716591 0.232820
H33   H     H_    0.910473 0.817385 0.620065 0.232108
C27   C     C_3   0.115917 0.424631 0.236218 -0.865593
H34   H     H_    0.109971 0.523668 0.208684 0.211016
H35   H     H_    0.211886 0.389359 0.217338 0.260157
H36   H     H_    0.058061 0.371071 0.162999 0.221125
C28   C     C_3   0.104737 0.261558 0.404738 -0.908434
H37   H     H_    0.073922 0.199437 0.320415 0.244133
H38   H     H_    0.206948 0.251297 0.413661 0.225328
H39   H     H_    0.062334 0.224270 0.495148 0.216625
H40   H     H_    0.879300 0.324722 0.378647 0.173450

loop_
_geom_bond_atom_site_label_1
_geom_bond_atom_site_label_2
_ccdc_geom_bond_type
C23   H21   S    
C11   C18   S    
C6    C21   S    
C12   O5    A    
C1    C8    S    
C20   H10   S    
C14   C18   S    
C13   O8    A    
C3    C26   S    
C28   H39   S    
C7    C8    D    
C21   H13   S    
O3    Zn1   S    
C8    H2    S    
C24   H27   S    
C14   H3    S    
C28   H38   S    
C4    H40   S    
C19   H9    S    
C6    C12   S    
C5    C6    D    
O5    Zn1   S    
C24   H26   S    
C15   C24   S    
C2    C13   S    
C4    H1    S    
O2    Zn2   S    
C26   H31   S    
N1    Zn1   S    
C17   C28   S    
C22   H18   S    
O7    Zn1   S    
C9    C10   S    
O4    Zn2   S    
C1    O1    A    
C20   H11   S    
C27   H36   S    
C22   H17   S    
C21   H14   S    
C22   H19   S    
O6    Zn2   S    
C25   H30   S    
C28   H37   S    
C7    H16   S    
C27   H35   S    
C14   H5    S    
C5    C7    S    
C9    N1    D    
C10   N2    D    
N2    Zn2   S    
C24   H25   S    
C25   H29   S    
C2    C4    S    
C19   H7    S    
C10   C23   S    
C11   O3    A    
C17   C18   S    
C2    C15   S    
C4    C17   S    
C26   H32   S    
C23   H22   S    
C1    O2    A    
C20   H12   S    
H4    N2    S    
N1    H20   S    
C21   H15   S    
C5    C20   S    
C12   O6    A    
C15   H24   S    
C13   O7    A    
C9    C22   S    
C27   H34   S    
C25   H28   S    
C2    C3    S    
C19   H8    S    
C16   H6    S    
C11   O4    A    
C26   H33   S    
C3    C19   S    
C17   C27   S    
C16   C18   S    
C23   H23   S    
O1    Zn1   S    
C14   C15   S    
C16   C25   S    
C3    C16   S    
O8    Zn2   S    
