data_mof_unit_26802.cif
_audit_creation_date              2012-10-26T20:00:55-0400
_audit_creation_method            fapswitch 2.2
_symmetry_space_group_name_H-M    P1
_symmetry_Int_Tables_number       1
_space_group_crystal_system       triclinic
_cell_length_a                    11.75293
_cell_length_b                    13.121172
_cell_length_c                    13.453802
_cell_angle_alpha                 93.154834
_cell_angle_beta                  76.752445
_cell_angle_gamma                 100.165254
_cell_volume                      1987.5983363

loop_
_atom_site_label
_atom_site_type_symbol
_atom_type_description
_atom_site_fract_x
_atom_site_fract_y
_atom_site_fract_z
_atom_type_partial_charge
C1    C     C_R   0.523010 0.700744 0.493713 0.600130
C2    C     C_R   0.394534 0.455312 0.805577 -0.028632
C3    C     C_R   0.461770 0.185843 0.506011 -0.005513
C4    C     C_R   0.435408 0.483041 0.694834 0.555060
C5    C     C_R   0.535486 0.814996 0.484219 -0.050679
C6    C     C_R   0.655966 0.985437 0.491172 0.258430
C7    C     C_R   0.648161 0.878727 0.469273 0.249463
C8    C     C_R   0.434410 0.861765 0.488488 -0.057044
C9    C     C_R   0.442948 0.969440 0.500310 -0.025517
C10   C     C_R   0.554224 0.031837 0.499364 -0.016021
C11   C     C_R   0.562435 0.139652 0.498411 -0.061022
C12   C     C_R   0.446440 0.461054 0.972486 0.019620
C13   C     C_R   0.349090 0.122653 0.518897 -0.015379
C14   C     C_R   0.341089 0.015933 0.513988 -0.098453
C15   C     C_R   0.949406 0.595970 0.592584 -0.049879
C16   C     C_R   0.477583 0.299353 0.501135 0.532055
C17   C     C_R   0.831367 0.589169 0.586829 0.431576
C18   C     C_R   0.854697 0.454798 0.461160 0.070120
C19   C     C_R   0.976546 0.461870 0.465029 -0.033315
C20   C     C_R   0.023049 0.532949 0.533613 -0.050721
C21   C     C_R   0.142097 0.539219 0.543068 0.140784
C22   C     C_R   0.173187 0.412170 0.411960 0.114729
C23   C     C_R   0.478210 0.448356 0.865334 -0.028461
C24   C     C_R   0.053333 0.400366 0.403448 -0.054742
C25   C     C_R   0.564535 0.506840 0.303552 0.577118
C26   C     C_R   0.746090 0.490742 0.030705 -0.034364
C27   C     C_R   0.603633 0.507938 0.190141 0.001846
C28   C     C_R   0.272672 0.433090 0.853622 -0.035617
C29   C     C_R   0.238735 0.425628 0.960474 -0.022730
C30   C     C_R   0.324182 0.447839 0.019302 -0.100763
C31   C     C_1   0.239181 0.163311 0.539113 0.245837
C32   C     C_1   0.327136 0.803524 0.463318 0.254517
C33   C     C_1   0.185965 0.605921 0.620076 0.300972
C34   C     C_R   0.537639 0.476675 0.028352 -0.008763
C35   C     C_1   0.250401 0.349089 0.347366 0.273572
C36   C     C_1   0.012085 0.326253 0.330155 0.255280
C37   C     C_1   0.183453 0.405052 0.793902 0.276832
C38   C     C_1   0.117109 0.388108 0.010509 0.272620
C39   C     C_1   0.584228 0.329567 0.749345 0.298657
C40   C     C_R   0.655705 0.469020 0.976626 -0.006839
C41   C     C_R   0.679351 0.432415 0.874114 0.270588
C42   C     C_R   0.586040 0.413497 0.823158 0.016821
C43   C     C_R   0.514669 0.498252 0.134178 -0.142258
C44   C     C_R   0.723287 0.511393 0.135514 0.252655
Cu1   Cu    Cu3+1 0.386470 0.492430 0.492410 1.027758
Cu2   Cu    Cu3+1 0.613530 0.507570 0.507590 1.159334
H1    H     H_    0.253674 0.969274 0.522284 0.148515
H2    H     H_    0.930005 0.901085 0.278509 0.379517
H3    H     H_    0.812564 0.836986 0.716817 0.389095
H4    H     H_    0.904904 0.336899 0.668226 0.392190
H5    H     H_    0.983440 0.651583 0.645657 0.175600
H6    H     H_    0.815355 0.397325 0.412993 0.185406
H7    H     H_    0.836352 0.487190 0.992731 0.236161
H8    H     H_    0.426610 0.506389 0.175254 0.145915
H9    H     H_    0.292610 0.443693 0.101113 0.119909
H10   H     H_    0.648090 0.188842 0.488317 0.208005
H11   H     H_    0.924665 0.618431 0.305096 0.363838
H12   H     H_    0.953266 0.026395 0.546585 0.376931
N1    N     N_R   0.215880 0.481050 0.481000 -0.265939
N2    N     N_1   0.581835 0.260322 0.692650 -0.218322
N3    N     N_R   0.784100 0.518950 0.519000 -0.252698
N4    N     N_1   0.150969 0.195415 0.555589 -0.252550
N5    N     N_1   0.241887 0.758848 0.441681 -0.274533
N6    N     N_1   0.219904 0.659627 0.682104 -0.242827
N7    N     N_1   0.311146 0.297989 0.295108 -0.280296
N8    N     N_1   0.980668 0.266836 0.271139 -0.143454
N9    N     N_1   0.112965 0.381445 0.745649 -0.192444
N10   N     N_1   0.019807 0.356227 0.049321 -0.130178
O1    O     O_R   0.419710 0.645650 0.494620 -0.514598
O2    O     O_2   0.960226 0.561433 0.110095 -0.276534
O3    O     O_3   0.847005 0.613793 0.286607 -0.426665
O4    O     O_2   0.850835 0.127133 0.430047 -0.260515
O5    O     O_2   0.759595 0.122753 0.612765 -0.252288
O6    O     O_3   0.880771 0.979294 0.536945 -0.419809
O7    O     O_2   0.833218 0.776851 0.441288 -0.201030
O8    O     O_2   0.721419 0.763908 0.306111 -0.263318
O9    O     O_3   0.865621 0.933478 0.322218 -0.434656
O10   O     O_2   0.632951 0.685462 0.682919 -0.243994
O11   O     O_2   0.766218 0.645700 0.782380 -0.280902
O12   O     O_R   0.611450 0.658430 0.507430 -0.396681
O13   O     O_3   0.840771 0.794684 0.655831 -0.472696
O14   O     O_2   0.914159 0.498735 0.810876 -0.278105
O15   O     O_2   0.850142 0.320330 0.870592 -0.250989
O16   O     O_3   0.828267 0.362100 0.690280 -0.506412
O17   O     O_R   0.357340 0.490460 0.641450 -0.505553
O18   O     O_R   0.549080 0.503250 0.654260 -0.459961
O19   O     O_R   0.388550 0.341570 0.492570 -0.502177
O20   O     O_R   0.580290 0.354350 0.505380 -0.524472
O21   O     O_R   0.450920 0.496750 0.345740 -0.530093
O22   O     O_R   0.642660 0.509540 0.358550 -0.427217
O23   O     O_2   0.854891 0.423175 0.228005 -0.305875
S1    S     S_3+6 0.849546 0.527092 0.190247 0.038994
S2    S     S_3+6 0.789190 0.057618 0.518029 0.071435
S3    S     S_3+6 0.769426 0.834509 0.384122 0.112998
S4    S     S_3+6 0.758999 0.676103 0.678291 0.084022
S5    S     S_3+6 0.822057 0.403223 0.811743 0.029590

loop_
_geom_bond_atom_site_label_1
_geom_bond_atom_site_label_2
_ccdc_geom_bond_type
C41   C42   A    
C2    C4    S    
C19   C20   A    
C31   N4    T    
O5    S2    D    
C18   H6    S    
Cu1   Cu2   S    
C22   C35   S    
C12   C23   A    
C25   O22   A    
C24   C36   S    
C23   C42   A    
C1    C5    S    
C28   C29   A    
Cu1   O19   S    
C21   N1    A    
O13   S4    S    
C36   N8    T    
C41   S5    S    
C21   C33   S    
O15   S5    D    
O9    S3    S    
C18   C19   A    
O16   S5    S    
H3    O13   S    
O8    S3    D    
C27   C44   A    
O3    S1    S    
C8    C9    A    
C29   C38   S    
C16   O19   A    
C17   S4    S    
C15   H5    S    
Cu1   O21   S    
C9    C10   A    
C44   S1    S    
C17   N3    A    
C13   C14   A    
O6    S2    S    
C39   C42   S    
Cu2   O20   S    
C15   C20   A    
O14   S5    D    
Cu2   N3    S    
C26   C44   A    
C8    C32   S    
O23   S1    D    
C5    C7    A    
C4    O17   A    
Cu1   O1    S    
C1    O1    A    
H2    O9    S    
Cu1   O17   S    
C9    C14   A    
O11   S4    D    
C29   C30   A    
C43   H8    S    
O10   S4    D    
C6    S2    S    
H11   O3    S    
C14   H1    S    
O4    S2    D    
C40   C41   A    
C38   N10   T    
C22   C24   A    
C12   C34   A    
C26   H7    S    
C22   N1    A    
H12   O6    S    
C15   C17   A    
C7    S3    S    
Cu1   N1    S    
C12   C30   A    
C13   C31   S    
O2    S1    D    
C34   C43   A    
C32   N5    T    
C3    C13   A    
C6    C10   A    
C5    C8    A    
C18   N3    A    
C6    C7    A    
Cu2   O22   S    
C25   C27   S    
C30   H9    S    
C25   O21   A    
C19   C24   A    
Cu2   O12   S    
C26   C40   A    
C28   C37   S    
C33   N6    T    
C39   N2    T    
C37   N9    T    
H4    O16   S    
C3    C11   A    
C10   C11   A    
C11   H10   S    
C27   C43   A    
C4    O18   A    
C20   C21   A    
C2    C23   A    
C16   O20   A    
C1    O12   A    
C35   N7    T    
C34   C40   A    
C2    C28   A    
C3    C16   S    
O7    S3    D    
Cu2   O18   S    
