data_mof_unit_10037.cif
_audit_creation_date              2012-12-11T16:19:09-0500
_audit_creation_method            fapswitch 2.2
_symmetry_space_group_name_H-M    P1
_symmetry_Int_Tables_number       1
_space_group_crystal_system       triclinic
_cell_length_a                    6.914344
_cell_length_b                    31.097066
_cell_length_c                    35.163906
_cell_angle_alpha                 89.999763
_cell_angle_beta                  89.999058
_cell_angle_gamma                 89.998692
_cell_volume                      7560.79578859

loop_
_atom_site_label
_atom_site_type_symbol
_atom_type_description
_atom_site_fract_x
_atom_site_fract_y
_atom_site_fract_z
_atom_type_partial_charge
O1    O     O_R   0.417270 0.211480 0.210950 -0.535418
O2    O     O_R   0.582730 0.788520 0.789050 -0.538650
O3    O     O_R   0.582730 0.788520 0.710950 -0.535430
O4    O     O_R   0.417270 0.211480 0.289050 -0.538652
O5    O     O_R   0.917270 0.288520 0.289050 -0.535438
O6    O     O_R   0.082730 0.711480 0.710950 -0.538649
O7    O     O_R   0.082730 0.711480 0.789050 -0.535432
O8    O     O_R   0.917270 0.288520 0.210950 -0.538650
O9    O     O_R   0.746940 0.206370 0.288750 -0.539530
O10   O     O_R   0.253060 0.793630 0.711250 -0.542879
O11   O     O_R   0.253060 0.793630 0.788750 -0.539543
O12   O     O_R   0.746940 0.206370 0.211250 -0.542871
O13   O     O_R   0.246940 0.293630 0.211250 -0.539544
O14   O     O_R   0.753060 0.706370 0.788750 -0.542879
O15   O     O_R   0.753060 0.706370 0.711250 -0.539541
O16   O     O_R   0.246940 0.293630 0.288750 -0.542878
C1    C     C_R   0.578145 0.196176 0.302109 0.743100
C2    C     C_R   0.421944 0.803833 0.697963 0.740927
C3    C     C_R   0.421854 0.803825 0.802108 0.743103
C4    C     C_R   0.578058 0.196169 0.197962 0.740870
C5    C     C_R   0.078144 0.303826 0.197893 0.743088
C6    C     C_R   0.921945 0.696169 0.802037 0.740929
C7    C     C_R   0.921858 0.696174 0.697893 0.743097
C8    C     C_R   0.078053 0.303832 0.302037 0.740914
O17   O     O_3   0.583760 0.276950 0.250000 -0.367343
O18   O     O_3   0.416240 0.723050 0.750000 -0.367339
O19   O     O_3   0.083760 0.223050 0.250000 -0.367322
O20   O     O_3   0.916240 0.776950 0.750000 -0.367338
V1    V     V_3+5 0.858600 0.245000 0.250000 1.394358
V2    V     V_3+5 0.141400 0.755000 0.750000 1.394295
V3    V     V_3+5 0.358600 0.255000 0.250000 1.394309
V4    V     V_3+5 0.641400 0.745000 0.750000 1.394291
C9    C     C_R   0.975500 0.588935 0.535461 0.674837
C10   C     C_R   0.004477 0.411753 0.463181 0.669704
C11   C     C_R   0.024519 0.411069 0.035464 0.674832
C12   C     C_R   0.995543 0.588250 0.963182 0.669707
C13   C     C_R   0.475465 0.911029 0.964558 0.674844
C14   C     C_R   0.504391 0.088199 0.036861 0.669658
C15   C     C_R   0.524487 0.088964 0.464561 0.674842
C16   C     C_R   0.495574 0.911782 0.536841 0.669695
N1    N     N_R   0.981781 0.576351 0.572836 -0.534357
N2    N     N_R   0.033538 0.424604 0.426328 -0.535451
N3    N     N_R   0.018227 0.423652 0.072838 -0.534359
N4    N     N_R   0.966492 0.575398 0.926329 -0.535457
N5    N     N_R   0.481730 0.923618 0.927184 -0.534364
N6    N     N_R   0.533486 0.075342 0.073711 -0.535464
N7    N     N_R   0.518228 0.076381 0.427186 -0.534366
N8    N     N_R   0.466484 0.924632 0.573693 -0.535458
C17   C     C_R   0.016533 0.534101 0.581997 0.613378
C18   C     C_R   0.066858 0.467054 0.418001 0.616457
C19   C     C_R   0.983467 0.465902 0.082000 0.613390
C20   C     C_R   0.933184 0.532948 0.918002 0.616444
C21   C     C_R   0.516456 0.965871 0.918027 0.613387
C22   C     C_R   0.566794 0.032890 0.082032 0.616409
C23   C     C_R   0.483499 0.034130 0.418024 0.613389
C24   C     C_R   0.433152 0.967082 0.582021 0.616443
C25   C     C_R   0.040995 0.502591 0.553206 -0.162214
C26   C     C_R   0.073069 0.498473 0.447183 -0.167853
C27   C     C_R   0.959014 0.497412 0.053208 -0.162223
C28   C     C_R   0.926966 0.501529 0.947184 -0.167854
C29   C     C_R   0.540904 0.997376 0.946822 -0.162204
C30   C     C_R   0.573008 0.001476 0.052845 -0.167850
C31   C     C_R   0.459046 0.002619 0.446815 -0.162199
C32   C     C_R   0.426937 0.998500 0.552838 -0.167858
C33   C     C_R   0.041226 0.515887 0.514869 -0.125650
C34   C     C_R   0.051035 0.485023 0.485271 -0.125223
C35   C     C_R   0.958793 0.484116 0.014871 -0.125653
C36   C     C_R   0.948991 0.514980 0.985273 -0.125218
C37   C     C_R   0.541155 0.984074 0.985157 -0.125662
C38   C     C_R   0.550956 0.014933 0.014759 -0.125226
C39   C     C_R   0.458792 0.015915 0.485152 -0.125656
C40   C     C_R   0.448991 0.985051 0.514750 -0.125218
C41   C     C_R   0.026781 0.560002 0.506000 -0.113245
C42   C     C_R   0.032391 0.440827 0.493762 -0.113510
C43   C     C_R   0.973240 0.440001 0.006002 -0.113242
C44   C     C_R   0.967635 0.559176 0.993764 -0.113511
C45   C     C_R   0.526738 0.939957 0.994021 -0.113253
C46   C     C_R   0.532281 0.059130 0.006274 -0.113474
C47   C     C_R   0.473208 0.060031 0.494022 -0.113257
C48   C     C_R   0.467670 0.940855 0.506259 -0.113503
C49   C     C_R   0.066762 0.458197 0.561499 0.361188
C50   C     C_R   0.102914 0.542917 0.439569 0.355175
C51   C     C_R   0.933250 0.541806 0.061501 0.361188
C52   C     C_R   0.897121 0.457085 0.939572 0.355179
C53   C     C_R   0.566628 0.041772 0.938534 0.361202
C54   C     C_R   0.602882 0.957031 0.060452 0.355186
C55   C     C_R   0.433324 0.958224 0.438522 0.361199
C56   C     C_R   0.397065 0.042944 0.560451 0.355171
C57   C     C_R   0.044426 0.427324 0.532336 0.222638
C58   C     C_R   0.064998 0.573658 0.468189 0.228370
C59   C     C_R   0.955602 0.572679 0.032338 0.222630
C60   C     C_R   0.935027 0.426344 0.968192 0.228374
C61   C     C_R   0.544272 0.072639 0.967701 0.222612
C62   C     C_R   0.564975 0.926295 0.031829 0.228367
C63   C     C_R   0.455675 0.927352 0.467685 0.222621
C64   C     C_R   0.434970 0.073686 0.531832 0.228377
O21   O     O_2   0.913913 0.628889 0.526825 -0.507889
O22   O     O_2   0.944395 0.371252 0.469972 -0.510645
O23   O     O_2   0.086116 0.371115 0.026828 -0.507893
O24   O     O_2   0.055605 0.628753 0.969972 -0.510632
O25   O     O_2   0.413898 0.871071 0.973190 -0.507878
O26   O     O_2   0.444311 0.128702 0.030077 -0.510660
O27   O     O_2   0.586059 0.128919 0.473198 -0.507877
O28   O     O_2   0.555670 0.871281 0.530052 -0.510647
O29   O     O_2   0.022494 0.522498 0.618913 -0.520438
O30   O     O_2   0.089770 0.478851 0.381411 -0.513301
O31   O     O_2   0.977488 0.477505 0.118915 -0.520437
O32   O     O_2   0.910286 0.521150 0.881413 -0.513289
O33   O     O_2   0.522403 0.977479 0.881114 -0.520449
O34   O     O_2   0.589697 0.021084 0.118618 -0.513415
O35   O     O_2   0.477557 0.022527 0.381109 -0.520446
O36   O     O_2   0.410227 0.978878 0.618610 -0.513294
C65   C     C_R   0.908062 0.396226 0.364721 0.424102
C66   C     C_R   0.811588 0.602062 0.631240 0.438713
C67   C     C_R   0.091965 0.603779 0.864722 0.424104
C68   C     C_R   0.188407 0.397943 0.131243 0.438715
C69   C     C_R   0.408118 0.103735 0.135325 0.424140
C70   C     C_R   0.311544 0.897919 0.868778 0.438711
C71   C     C_R   0.591921 0.896243 0.635300 0.424098
C72   C     C_R   0.688452 0.102085 0.368785 0.438725
C73   C     C_R   0.927110 0.367450 0.333750 -0.319288
C74   C     C_R   0.804280 0.630867 0.662683 -0.338625
C75   C     C_R   0.072912 0.632555 0.833752 -0.319269
C76   C     C_R   0.195711 0.369136 0.162686 -0.338615
C77   C     C_R   0.427120 0.132539 0.166274 -0.318949
C78   C     C_R   0.304260 0.869124 0.837328 -0.338627
C79   C     C_R   0.572886 0.867456 0.666262 -0.319241
C80   C     C_R   0.695748 0.130881 0.337334 -0.338611
H1    H     H_    0.835876 0.370787 0.308943 0.138427
H2    H     H_    0.703567 0.626259 0.685805 0.137827
H3    H     H_    0.164160 0.629221 0.808946 0.138437
H4    H     H_    0.296409 0.373746 0.185810 0.137822
H5    H     H_    0.335857 0.129226 0.191079 0.138356
H6    H     H_    0.203562 0.873741 0.814204 0.137833
H7    H     H_    0.664131 0.870783 0.691068 0.138432
H8    H     H_    0.796462 0.126266 0.314213 0.137849
C81   C     C_R   0.066938 0.334868 0.333906 -0.125384
C82   C     C_R   0.932211 0.665697 0.665461 -0.122757
C83   C     C_R   0.933060 0.665132 0.833907 -0.125397
C84   C     C_R   0.067793 0.334304 0.165461 -0.122763
C85   C     C_R   0.566947 0.165119 0.166103 -0.125657
C86   C     C_R   0.432196 0.834295 0.834544 -0.122749
C87   C     C_R   0.433056 0.834876 0.666099 -0.125427
C88   C     C_R   0.567800 0.165707 0.334548 -0.122765
C89   C     C_R   0.189217 0.330631 0.365393 -0.290273
C90   C     C_R   0.067987 0.672337 0.636570 -0.280847
C91   C     C_R   0.810763 0.669365 0.865392 -0.290279
C92   C     C_R   0.932029 0.327662 0.136570 -0.280845
C93   C     C_R   0.689261 0.169330 0.134618 -0.290275
C94   C     C_R   0.567962 0.827646 0.863434 -0.280852
C95   C     C_R   0.310761 0.830652 0.634614 -0.290269
C96   C     C_R   0.432029 0.172357 0.363438 -0.280864
H9    H     H_    0.293403 0.304600 0.366196 0.132030
H10   H     H_    0.163430 0.699956 0.637908 0.135022
H11   H     H_    0.706560 0.695392 0.866194 0.132031
H12   H     H_    0.836594 0.300042 0.137907 0.135024
H13   H     H_    0.793464 0.195356 0.133806 0.132036
H14   H     H_    0.663407 0.800027 0.862091 0.135019
H15   H     H_    0.206568 0.804624 0.633808 0.132031
H16   H     H_    0.336584 0.199976 0.362095 0.135020
C97   C     C_R   0.175191 0.358815 0.396530 0.258946
C98   C     C_R   0.080982 0.644321 0.605421 0.256966
C99   C     C_R   0.824797 0.641181 0.896529 0.258952
C100  C     C_R   0.919033 0.355680 0.105423 0.256977
C101  C     C_R   0.675244 0.141125 0.103496 0.259120
C102  C     C_R   0.580945 0.855654 0.894588 0.256961
C103  C     C_R   0.324783 0.858846 0.603484 0.258984
C104  C     C_R   0.419044 0.144350 0.394594 0.256937
C105  C     C_R   0.038018 0.392882 0.395851 0.247329
C106  C     C_R   0.957101 0.607972 0.603141 0.255966
C107  C     C_R   0.961997 0.607119 0.895852 0.247331
C108  C     C_R   0.042905 0.392031 0.103143 0.255947
C109  C     C_R   0.538051 0.107063 0.104188 0.247302
C110  C     C_R   0.457055 0.892002 0.896876 0.255954
C111  C     C_R   0.461970 0.892909 0.604168 0.247327
C112  C     C_R   0.542926 0.108000 0.396881 0.255967
O37   O     O_3   0.103462 0.443791 0.598168 -0.559405
C113  C     C_3   0.293544 0.455430 0.609640 0.165805
H17   H     H_    0.288811 0.462055 0.640674 0.164789
H18   H     H_    0.349440 0.485207 0.595785 0.098455
C114  C     C_3   0.436345 0.418807 0.602578 -0.405733
H19   H     H_    0.378334 0.388516 0.614850 0.214210
H20   H     H_    0.456940 0.414721 0.571498 0.197974
C115  C     C_3   0.632468 0.428424 0.620557 -0.740974
H21   H     H_    0.692588 0.458864 0.608987 0.267430
H22   H     H_    0.734332 0.401831 0.614154 0.240365
H23   H     H_    0.618182 0.431178 0.651915 0.222397
O38   O     O_3   0.156218 0.557565 0.403769 -0.558991
C116  C     C_3   0.349811 0.545644 0.395235 0.175891
H24   H     H_    0.354204 0.536494 0.364688 0.172642
H25   H     H_    0.403987 0.517259 0.411512 0.091615
C117  C     C_3   0.487495 0.583400 0.401359 -0.410613
H26   H     H_    0.426143 0.612910 0.388229 0.216553
H27   H     H_    0.506559 0.588792 0.432333 0.200460
C118  C     C_3   0.684838 0.574225 0.383728 -0.726775
H28   H     H_    0.748120 0.544670 0.396343 0.258658
H29   H     H_    0.783257 0.601703 0.389151 0.237263
H30   H     H_    0.671243 0.569848 0.352491 0.227423
O39   O     O_3   0.896538 0.556213 0.098169 -0.559401
C119  C     C_3   0.706453 0.544574 0.109641 0.165819
H31   H     H_    0.711183 0.537942 0.140673 0.164798
H32   H     H_    0.650546 0.514800 0.095781 0.098446
C120  C     C_3   0.563663 0.581201 0.102585 -0.405730
H33   H     H_    0.621684 0.611488 0.114863 0.214209
H34   H     H_    0.543067 0.585294 0.071507 0.197966
C121  C     C_3   0.367538 0.571583 0.120565 -0.740967
H35   H     H_    0.307404 0.541147 0.108990 0.267433
H36   H     H_    0.265684 0.598180 0.114169 0.240349
H37   H     H_    0.381826 0.568820 0.151922 0.222396
O40   O     O_3   0.843831 0.442437 0.903771 -0.558995
C122  C     C_3   0.650242 0.454358 0.895235 0.175899
H38   H     H_    0.645854 0.463497 0.864686 0.172632
H39   H     H_    0.596079 0.482750 0.911504 0.091627
C123  C     C_3   0.512542 0.416607 0.901372 -0.410628
H40   H     H_    0.573881 0.387090 0.888250 0.216551
H41   H     H_    0.493476 0.411228 0.932348 0.200457
C124  C     C_3   0.315205 0.425779 0.883739 -0.726748
H42   H     H_    0.251942 0.455343 0.896342 0.258657
H43   H     H_    0.216769 0.398307 0.889175 0.237270
H44   H     H_    0.328802 0.430139 0.852499 0.227421
O41   O     O_3   0.603296 0.056186 0.901865 -0.559398
C125  C     C_3   0.793381 0.044554 0.890386 0.165817
H45   H     H_    0.788636 0.037936 0.859351 0.164806
H46   H     H_    0.849306 0.014775 0.904234 0.098458
C126  C     C_3   0.936158 0.081180 0.897451 -0.405714
H47   H     H_    0.878121 0.111472 0.885184 0.214206
H48   H     H_    0.956760 0.085260 0.928531 0.197959
C127  C     C_3   0.132283 0.071572 0.879466 -0.741043
H49   H     H_    0.192428 0.041130 0.891029 0.267436
H50   H     H_    0.234130 0.098166 0.885873 0.240355
H51   H     H_    0.117988 0.068827 0.848108 0.222390
O42   O     O_3   0.656209 0.942378 0.096250 -0.558995
C128  C     C_3   0.849795 0.954303 0.104783 0.175880
H52   H     H_    0.854189 0.963448 0.135331 0.172665
H53   H     H_    0.903945 0.982693 0.088508 0.091562
C129  C     C_3   0.987510 0.916552 0.098650 -0.410576
H54   H     H_    0.926179 0.887036 0.111774 0.216543
H55   H     H_    0.006583 0.911169 0.067674 0.200441
C130  C     C_3   0.184843 0.925728 0.116283 -0.726684
H56   H     H_    0.248098 0.955292 0.103678 0.258632
H57   H     H_    0.283292 0.898255 0.110850 0.237256
H58   H     H_    0.171241 0.930091 0.147523 0.227436
O43   O     O_3   0.396662 0.943817 0.401851 -0.559399
C131  C     C_3   0.206573 0.955447 0.390375 0.165811
H59   H     H_    0.211312 0.962069 0.359341 0.164778
H60   H     H_    0.150642 0.985225 0.404227 0.098460
C132  C     C_3   0.063807 0.918818 0.397439 -0.405686
H61   H     H_    0.121855 0.888528 0.385170 0.214202
H62   H     H_    0.043203 0.914736 0.428520 0.197958
C133  C     C_3   0.867681 0.928424 0.379455 -0.741016
H63   H     H_    0.807525 0.958865 0.391020 0.267433
H64   H     H_    0.765843 0.901828 0.385860 0.240342
H65   H     H_    0.881977 0.931173 0.348096 0.222394
O44   O     O_3   0.343749 0.057591 0.596251 -0.558993
C134  C     C_3   0.150159 0.045669 0.604784 0.175896
H66   H     H_    0.145762 0.036520 0.635330 0.172647
H67   H     H_    0.095999 0.017282 0.588507 0.091603
C135  C     C_3   0.012460 0.083423 0.598656 -0.410625
H68   H     H_    0.073798 0.112934 0.611785 0.216554
H69   H     H_    0.993399 0.088812 0.567682 0.200461
C136  C     C_3   0.815120 0.074247 0.616286 -0.726738
H70   H     H_    0.751855 0.044690 0.603674 0.258648
H71   H     H_    0.716688 0.101723 0.610859 0.237263
H72   H     H_    0.828711 0.069874 0.647524 0.227434
N9    N     N_2   0.038676 0.382784 0.542229 -0.471925
H73   H     H_    0.977645 0.375617 0.568219 0.271016
C137  C     C_3   0.209215 0.357480 0.533498 -0.433210
H74   H     H_    0.278008 0.345987 0.560133 0.155953
H75   H     H_    0.317095 0.376235 0.517008 0.181047
H76   H     H_    0.166614 0.328825 0.516684 0.235023
N10   N     N_2   0.074354 0.618325 0.458926 -0.470828
H77   H     H_    0.034722 0.626446 0.431596 0.272715
C138  C     C_3   0.242057 0.641609 0.472727 -0.441908
H78   H     H_    0.327560 0.654181 0.448427 0.160324
H79   H     H_    0.337518 0.620941 0.490418 0.181563
H80   H     H_    0.193752 0.669447 0.490007 0.236770
N11   N     N_2   0.961385 0.617219 0.042231 -0.471919
H81   H     H_    0.022446 0.624382 0.068218 0.271012
C139  C     C_3   0.790849 0.642527 0.033509 -0.433174
H82   H     H_    0.722089 0.654019 0.060149 0.155950
H83   H     H_    0.682946 0.623776 0.017024 0.181027
H84   H     H_    0.833445 0.671183 0.016695 0.235017
N12   N     N_2   0.925659 0.381677 0.958931 -0.470830
H85   H     H_    0.965282 0.373554 0.931601 0.272711
C140  C     C_3   0.757953 0.358396 0.972735 -0.441914
H86   H     H_    0.672439 0.345825 0.948437 0.160325
H87   H     H_    0.662503 0.379065 0.990429 0.181568
H88   H     H_    0.806257 0.330557 0.990015 0.236768
N13   N     N_2   0.538434 0.117180 0.957813 -0.471921
H89   H     H_    0.477336 0.124345 0.931829 0.271008
C141  C     C_3   0.708954 0.142494 0.966529 -0.433149
H90   H     H_    0.777678 0.153991 0.939888 0.155938
H91   H     H_    0.816890 0.123747 0.983010 0.181044
H92   H     H_    0.666346 0.171148 0.983346 0.235003
N14   N     N_2   0.574366 0.881626 0.041086 -0.470822
H93   H     H_    0.534743 0.873499 0.068415 0.272709
C142  C     C_3   0.742091 0.858350 0.027280 -0.441898
H94   H     H_    0.827599 0.845775 0.051578 0.160329
H95   H     H_    0.837540 0.879025 0.009593 0.181550
H96   H     H_    0.693809 0.830515 0.009995 0.236770
N15   N     N_2   0.461500 0.882813 0.457791 -0.471923
H97   H     H_    0.522577 0.875651 0.431804 0.271011
C143  C     C_3   0.290985 0.857498 0.466512 -0.433177
H98   H     H_    0.222245 0.846003 0.439873 0.155940
H99   H     H_    0.183058 0.876245 0.482997 0.181037
H100  H     H_    0.333603 0.828844 0.483327 0.235021
N16   N     N_2   0.425584 0.118353 0.541094 -0.470828
H101  H     H_    0.465196 0.126475 0.568425 0.272715
C144  C     C_3   0.257876 0.141634 0.527289 -0.441917
H102  H     H_    0.172352 0.154205 0.551587 0.160330
H103  H     H_    0.162435 0.120964 0.509595 0.181559
H104  H     H_    0.306177 0.169473 0.510009 0.236775
O45   O     O_3   0.777592 0.430447 0.364245 -0.550291
C145  C     C_3   0.592779 0.419460 0.349738 0.072388
H105  H     H_    0.483461 0.431449 0.370251 0.150143
H106  H     H_    0.566670 0.384230 0.346863 0.109224
C146  C     C_3   0.556461 0.442536 0.312061 -0.294516
H107  H     H_    0.565467 0.477862 0.316626 0.205109
H108  H     H_    0.668655 0.433304 0.291033 0.192176
C147  C     C_3   0.356935 0.431373 0.296281 -0.814717
H109  H     H_    0.349935 0.396715 0.288756 0.228261
H110  H     H_    0.328190 0.450711 0.270423 0.231981
H111  H     H_    0.242842 0.438739 0.317514 0.268706
O46   O     O_3   0.688175 0.566764 0.626451 -0.559183
C148  C     C_3   0.517265 0.566911 0.648602 0.076414
H112  H     H_    0.402754 0.551344 0.631338 0.149511
H113  H     H_    0.459932 0.599510 0.654934 0.108667
C149  C     C_3   0.544549 0.539887 0.684517 -0.294616
H114  H     H_    0.586623 0.506687 0.676336 0.208595
H115  H     H_    0.662434 0.553530 0.702176 0.193062
C150  C     C_3   0.358456 0.538124 0.707781 -0.840721
H116  H     H_    0.318356 0.570859 0.717673 0.233066
H117  H     H_    0.380030 0.517071 0.732911 0.234259
H118  H     H_    0.238399 0.524736 0.690460 0.260595
O47   O     O_3   0.222451 0.569562 0.864247 -0.550292
C151  C     C_3   0.407261 0.580553 0.849740 0.072386
H119  H     H_    0.516579 0.568561 0.870251 0.150153
H120  H     H_    0.433361 0.615783 0.846870 0.109246
C152  C     C_3   0.443595 0.557482 0.812061 -0.294634
H121  H     H_    0.434634 0.522160 0.816623 0.205145
H122  H     H_    0.331398 0.566709 0.791037 0.192215
C153  C     C_3   0.643088 0.568656 0.796277 -0.814778
H123  H     H_    0.650061 0.603318 0.788767 0.228293
H124  H     H_    0.671820 0.549333 0.770409 0.231989
H125  H     H_    0.757193 0.561280 0.817504 0.268708
O48   O     O_3   0.311800 0.433244 0.126460 -0.559164
C154  C     C_3   0.482743 0.433088 0.148603 0.076435
H126  H     H_    0.597253 0.448652 0.131334 0.149501
H127  H     H_    0.540060 0.400485 0.154930 0.108647
C155  C     C_3   0.455518 0.460110 0.184524 -0.294612
H128  H     H_    0.413440 0.493312 0.176350 0.208578
H129  H     H_    0.337658 0.446467 0.202189 0.193053
C156  C     C_3   0.641656 0.461867 0.207776 -0.840713
H130  H     H_    0.681759 0.429132 0.217663 0.233067
H131  H     H_    0.620142 0.482922 0.232907 0.234245
H132  H     H_    0.761682 0.475253 0.190448 0.260624
O49   O     O_3   0.277732 0.069501 0.135834 -0.550265
C157  C     C_3   0.092849 0.080497 0.150303 0.072527
H133  H     H_    0.983638 0.068437 0.129801 0.150236
H134  H     H_    0.066637 0.115731 0.153107 0.109112
C158  C     C_3   0.056498 0.057522 0.188029 -0.295043
H135  H     H_    0.066268 0.022194 0.183576 0.205367
H136  H     H_    0.168186 0.066942 0.209088 0.192037
C159  C     C_3   0.856568 0.068547 0.203673 -0.814661
H137  H     H_    0.848384 0.103282 0.210903 0.228432
H138  H     H_    0.828314 0.049441 0.229694 0.231893
H139  H     H_    0.742852 0.060763 0.182469 0.269022
O50   O     O_3   0.188112 0.933213 0.873576 -0.559179
C160  C     C_3   0.017203 0.933069 0.851425 0.076407
H140  H     H_    0.902672 0.948623 0.868695 0.149482
H141  H     H_    0.959903 0.900471 0.845081 0.108682
C161  C     C_3   0.044465 0.960112 0.815520 -0.294539
H142  H     H_    0.086410 0.993316 0.823716 0.208548
H143  H     H_    0.162437 0.946495 0.797867 0.193071
C162  C     C_3   0.858404 0.961854 0.792244 -0.840765
H144  H     H_    0.818542 0.929119 0.782312 0.233041
H145  H     H_    0.879909 0.982950 0.767141 0.234268
H146  H     H_    0.738210 0.975181 0.809570 0.260622
O51   O     O_3   0.722377 0.930465 0.635786 -0.550280
C163  C     C_3   0.907207 0.919469 0.650281 0.072411
H147  H     H_    0.016501 0.931478 0.629772 0.150155
H148  H     H_    0.933332 0.884237 0.653132 0.109231
C164  C     C_3   0.943551 0.942512 0.687973 -0.294704
H149  H     H_    0.934521 0.977836 0.683435 0.205177
H150  H     H_    0.831408 0.933260 0.708997 0.192198
C165  C     C_3   0.143076 0.931341 0.703738 -0.814732
H151  H     H_    0.150159 0.896665 0.711205 0.228301
H152  H     H_    0.171753 0.950628 0.729631 0.231991
H153  H     H_    0.257153 0.938766 0.682515 0.268727
O52   O     O_3   0.811878 0.066790 0.373583 -0.559178
C166  C     C_3   0.982827 0.066942 0.351441 0.076437
H154  H     H_    0.097342 0.051389 0.368716 0.149503
H155  H     H_    0.040118 0.099543 0.345103 0.108656
C167  C     C_3   0.955631 0.039905 0.315530 -0.294593
H156  H     H_    0.913569 0.006704 0.323714 0.208585
H157  H     H_    0.837763 0.053540 0.297864 0.192997
C168  C     C_3   0.141774 0.038141 0.292278 -0.840748
H158  H     H_    0.181900 0.070875 0.282390 0.233026
H159  H     H_    0.120256 0.017085 0.267149 0.234226
H160  H     H_    0.261779 0.024749 0.309607 0.260666
N17   N     N_2   0.287354 0.350326 0.429744 -0.493472
H161  H     H_    0.315873 0.318127 0.434090 0.261262
C169  C     C_3   0.457796 0.376570 0.434883 -0.527099
H162  H     H_    0.521840 0.369933 0.463197 0.218216
H163  H     H_    0.421199 0.411280 0.433607 0.187649
H164  H     H_    0.567904 0.368243 0.413205 0.197527
N18   N     N_2   0.209878 0.654719 0.575172 -0.492847
H165  H     H_    0.224108 0.687335 0.570540 0.260369
C170  C     C_3   0.395057 0.633388 0.576359 -0.530622
H166  H     H_    0.480073 0.642066 0.550721 0.215645
H167  H     H_    0.375853 0.597973 0.576556 0.202929
H168  H     H_    0.477302 0.644234 0.601674 0.191762
N19   N     N_2   0.712616 0.649667 0.929743 -0.493476
H169  H     H_    0.684030 0.681863 0.934085 0.261274
C171  C     C_3   0.542241 0.623405 0.934893 -0.527107
H170  H     H_    0.478273 0.630025 0.963215 0.218191
H171  H     H_    0.578887 0.588700 0.933603 0.187627
H172  H     H_    0.432059 0.631729 0.913231 0.197565
N20   N     N_2   0.790144 0.345283 0.075173 -0.492838
H173  H     H_    0.775935 0.312666 0.070538 0.260371
C172  C     C_3   0.604949 0.366607 0.076363 -0.530657
H174  H     H_    0.519936 0.357929 0.050725 0.215650
H175  H     H_    0.624131 0.402023 0.076561 0.202924
H176  H     H_    0.522713 0.355758 0.101679 0.191751
N21   N     N_2   0.787445 0.149588 0.070280 -0.493505
H177  H     H_    0.816090 0.181779 0.065927 0.261275
C173  C     C_3   0.957765 0.123305 0.065135 -0.527155
H178  H     H_    0.021692 0.129893 0.036803 0.218187
H179  H     H_    0.921065 0.088605 0.066453 0.187585
H180  H     H_    0.068004 0.131638 0.086781 0.197565
N22   N     N_2   0.709834 0.845248 0.924836 -0.492834
H181  H     H_    0.724064 0.812630 0.929461 0.260367
C174  C     C_3   0.895013 0.866577 0.923654 -0.530626
H182  H     H_    0.980023 0.857890 0.949290 0.215637
H183  H     H_    0.875809 0.901992 0.923466 0.202932
H184  H     H_    0.977263 0.855739 0.898337 0.191761
N23   N     N_2   0.212608 0.850369 0.570269 -0.493494
H185  H     H_    0.184006 0.818174 0.565923 0.261272
C175  C     C_3   0.042251 0.876638 0.565120 -0.527112
H186  H     H_    0.978303 0.870028 0.536794 0.218194
H187  H     H_    0.078915 0.911342 0.566418 0.187613
H188  H     H_    0.932044 0.868313 0.586777 0.197570
N24   N     N_2   0.290172 0.154760 0.424844 -0.492821
H189  H     H_    0.275981 0.187378 0.429472 0.260366
C176  C     C_3   0.104965 0.133442 0.423663 -0.530636
H190  H     H_    0.019959 0.142135 0.449299 0.215634
H191  H     H_    0.124129 0.098026 0.423477 0.202933
H192  H     H_    0.022730 0.144284 0.398344 0.191745

loop_
_geom_bond_atom_site_label_1
_geom_bond_atom_site_label_2
_ccdc_geom_bond_type
C166  C167  S    
C173  H178  S    
C134  H67   S    
O49   C157  S    
N21   H177  S    
C141  H90   S    
C10   N2    A    
C113  C114  S    
C115  H21   S    
O15   V4    S    
C143  H99   S    
C29   C37   A    
N23   H185  S    
O16   V3    S    
C120  H34   S    
C66   O46   S    
C69   O49   S    
C169  H163  S    
C60   N12   S    
C168  H159  S    
C69   C109  A    
N10   H77   S    
C138  H80   S    
C131  H59   S    
C30   C38   A    
C157  C158  S    
C157  H133  S    
C58   N10   S    
O46   C148  S    
C91   H11   S    
C72   O52   S    
N7    C112  S    
C160  C161  S    
C133  H65   S    
C87   C95   A    
O39   C119  S    
N19   C171  S    
N1    C17   A    
C127  H49   S    
C156  H131  S    
O13   V3    S    
C114  H20   S    
O17   V1    S    
C158  C159  S    
C102  C110  A    
C67   C75   A    
O19   V3    S    
C117  C118  S    
O20   V4    S    
C73   H1    S    
C153  H123  S    
C14   C46   A    
C145  H105  S    
N15   H97   S    
C6    C83   S    
C62   N14   S    
C146  C147  S    
C165  H152  S    
C176  H190  S    
C174  H182  S    
C90   C98   A    
O10   V2    S    
C113  H18   S    
C143  H98   S    
C90   H10   S    
C174  H184  S    
O12   C4    A    
C72   C80   A    
O13   C5    A    
C79   C87   A    
C80   C88   A    
C29   C53   A    
C104  C112  A    
C9    C41   A    
O6    V2    S    
C31   C39   A    
C12   N4    A    
C165  H153  S    
C13   N5    A    
C164  H149  S    
C15   N7    A    
C132  C133  S    
C21   O33   S    
C16   N8    A    
O1    C4    A    
C23   O35   S    
O2    C3    A    
C27   C51   A    
C151  H119  S    
C153  H125  S    
C162  H144  S    
C131  C132  S    
C67   O47   S    
O7    C6    A    
C51   C59   A    
C115  H22   S    
C161  C162  S    
C65   O45   S    
C26   C50   A    
C47   C64   A    
C140  H87   S    
C89   C97   A    
O10   C2    A    
C95   C103  A    
C9    O21   S    
C139  H83   S    
C37   C38   A    
N24   C176  S    
C167  H156  S    
O47   C151  S    
C78   H6    S    
C119  H32   S    
C148  H112  S    
C170  H166  S    
C133  H64   S    
C127  H51   S    
C95   H15   S    
C163  H147  S    
O17   V3    S    
O18   V4    S    
C172  H174  S    
O12   V1    S    
O19   V1    S    
C37   C45   A    
N20   H173  S    
C126  C127  S    
C39   C47   A    
N17   H161  S    
N22   C174  S    
C147  H110  S    
C161  H142  S    
C30   C54   A    
C1    C88   S    
O8    V1    S    
C2    C87   S    
C141  H91   S    
C41   C58   A    
C175  H187  S    
C136  H70   S    
C137  H76   S    
C123  H41   S    
C154  H127  S    
C34   C42   A    
C75   C83   A    
C45   C62   A    
O1    V3    S    
C17   C25   A    
C159  H137  S    
C22   O34   S    
O2    V4    S    
C73   C81   A    
C116  H25   S    
C20   C28   A    
C27   C35   A    
C53   C61   A    
C77   C85   A    
C23   C31   A    
C171  H171  S    
C11   N3    A    
C128  H52   S    
C97   C105  A    
N4    C20   A    
N5    C21   A    
N11   H81   S    
C142  H95   S    
C155  H128  S    
C97   N17   S    
C151  C152  S    
C126  H47   S    
C144  H103  S    
C92   C100  A    
C93   C101  A    
C125  C126  S    
C124  H42   S    
C118  H28   S    
C50   O38   S    
C170  H168  S    
C117  H27   S    
C176  H192  S    
C125  H46   S    
C98   N18   S    
O41   C125  S    
C128  H53   S    
N22   H181  S    
C25   C33   A    
N13   H89   S    
C63   N15   S    
C130  H57   S    
C48   C63   A    
C157  H134  S    
N9    C137  S    
N2    C18   A    
C163  C164  S    
C19   O31   S    
O18   V2    S    
C172  H176  S    
O14   C6    A    
C100  C108  A    
C35   C43   A    
N10   C138  S    
C103  C111  A    
C162  H146  S    
C166  H155  S    
C122  H39   S    
C4    C85   S    
C149  H114  S    
C136  H72   S    
C137  H74   S    
C8    C81   S    
C36   C44   A    
C159  H139  S    
C54   O42   S    
N8    C111  S    
C135  H68   S    
C164  C165  S    
C49   O37   S    
C39   C40   A    
C40   C48   A    
C91   C99   A    
C168  H158  S    
C154  C155  S    
C13   O25   S    
N14   C142  S    
C82   C90   A    
C126  H48   S    
C131  H60   S    
C57   N9    S    
N18   C170  S    
C101  N21   S    
C150  H118  S    
C14   N6    A    
C44   C59   A    
C152  C153  S    
C65   C73   A    
C70   C110  A    
N12   H85   S    
C52   C60   A    
C69   C77   A    
C118  H29   S    
C71   C79   A    
N15   C143  S    
C56   C64   A    
N19   H169  S    
C7    C82   S    
C130  H56   S    
C127  H50   S    
C156  H130  S    
O51   C163  S    
C114  H19   S    
C124  H44   S    
C158  H136  S    
O11   C3    A    
C81   C89   A    
N20   C172  S    
C79   H7    S    
C80   H8    S    
C64   N16   S    
C52   O40   S    
C38   C46   A    
C145  H106  S    
O43   C131  S    
C68   C108  A    
C66   C106  A    
C146  H108  S    
O50   C160  S    
C71   C111  A    
C72   C112  A    
O11   V2    S    
C174  H183  S    
C139  H82   S    
C99   N19   S    
C71   O51   S    
C99   C107  A    
C49   C57   A    
C145  C146  S    
C132  H62   S    
C134  C135  S    
O7    V2    S    
N21   C173  S    
C103  N23   S    
C149  C150  S    
C96   C104  A    
C113  H17   S    
C143  H100  S    
N23   C175  S    
C120  C121  S    
C68   O48   S    
C35   C36   A    
C18   C26   A    
C169  H164  S    
C74   C82   A    
C151  H120  S    
C168  H160  S    
N14   H93   S    
C56   O44   S    
C22   C30   A    
C155  C156  S    
C133  H63   S    
C13   C45   A    
C78   C86   A    
N16   H101  S    
C15   C47   A    
C150  H116  S    
C147  H111  S    
C140  H86   S    
N2    C105  S    
C173  H179  S    
C152  H121  S    
C98   C106  A    
N3    C108  S    
C83   C91   A    
N6    C22   A    
N6    C109  S    
C12   O24   S    
C155  H129  S    
C167  H157  S    
C10   C42   A    
C115  H23   S    
O4    C1    A    
C67   C107  A    
C3    C86   S    
C154  H126  S    
C156  H132  S    
C163  H148  S    
C114  C115  S    
C94   H14   S    
C75   H3    S    
C121  H35   S    
C76   C84   A    
O14   V4    S    
C167  C168  S    
C17   O29   S    
C129  C130  S    
C15   O27   S    
O52   C166  S    
N1    C106  S    
C50   C58   A    
C61   N13   S    
C9    N1    A    
C86   C94   A    
C165  H151  S    
N4    C107  S    
C104  N24   S    
N5    C110  S    
C117  H26   S    
C137  H75   S    
N3    C19   A    
O45   C145  S    
O42   C128  S    
C10   O22   S    
C159  H138  S    
C116  H24   S    
O4    V3    S    
C28   C36   A    
C88   C96   A    
O37   C113  S    
C18   O30   S    
C92   H12   S    
C5    C84   S    
C93   H13   S    
C32   C56   A    
C94   C102  A    
C100  N20   S    
C120  H33   S    
C96   H16   S    
N12   C140  S    
C142  H94   S    
C169  H162  S    
C175  H186  S    
C84   C92   A    
C85   C93   A    
C166  H154  S    
C144  H102  S    
C129  H54   S    
C11   C43   A    
O44   C134  S    
C42   C57   A    
C59   N11   S    
C140  H88   S    
C46   C61   A    
C101  C109  A    
C129  H55   S    
C33   C41   A    
O3    C2    A    
C148  H113  S    
C139  H84   S    
C176  H191  S    
C54   C62   A    
C138  H79   S    
C153  H124  S    
C26   C34   A    
C68   C76   A    
C122  H38   S    
C161  H143  S    
C119  H31   S    
N18   H165  S    
C16   C48   A    
C170  H167  S    
C12   C44   A    
N9    H73   S    
O9    V1    S    
C89   H9    S    
O15   C7    A    
O16   C8    A    
C146  H107  S    
C21   C29   A    
C11   O23   S    
N17   C169  S    
C76   H4    S    
O5    V1    S    
C162  H145  S    
C173  H180  S    
C141  H92   S    
C149  H115  S    
C175  H188  S    
C136  H71   S    
C123  H40   S    
C65   C105  A    
C148  C149  S    
C55   C63   A    
O38   C116  S    
N16   C144  S    
C116  C117  S    
C135  H69   S    
C164  H150  S    
C16   O28   S    
C128  C129  S    
C55   O43   S    
C171  H170  S    
C122  C123  S    
C24   C32   A    
C138  H78   S    
C171  H172  S    
O3    V4    S    
C150  H117  S    
C102  N22   S    
C43   C60   A    
O9    C1    A    
C152  H122  S    
C33   C34   A    
N11   C139  S    
C142  H96   S    
C25   C49   A    
C135  C136  S    
C19   C27   A    
C51   O39   S    
C134  H66   S    
N7    C23   A    
C160  H140  S    
C144  H104  S    
C77   H5    S    
N8    C24   A    
C31   C55   A    
C123  C124  S    
O8    C5    A    
C132  H61   S    
C124  H43   S    
C158  H135  S    
C147  H109  S    
O20   V2    S    
N24   H189  S    
C14   O26   S    
C28   C52   A    
C121  H37   S    
O48   C154  S    
O5    C8    A    
C53   O41   S    
C119  C120  S    
O6    C7    A    
N13   C141  S    
C74   H2    S    
C130  H58   S    
C32   C40   A    
C125  H45   S    
C66   C74   A    
C118  H30   S    
C20   O32   S    
C172  H175  S    
O40   C122  S    
C70   O50   S    
C70   C78   A    
C160  H141  S    
C121  H36   S    
C24   O36   S    
