data_mof_unit_43444.cif
_audit_creation_date              2012-12-11T15:54:44-0500
_audit_creation_method            fapswitch 2.2
_symmetry_space_group_name_H-M    P1
_symmetry_Int_Tables_number       1
_space_group_crystal_system       triclinic
_cell_length_a                    6.965719
_cell_length_b                    14.465408
_cell_length_c                    16.142651
_cell_angle_alpha                 89.948469
_cell_angle_beta                  90.108345
_cell_angle_gamma                 90.337482
_cell_volume                      1626.53350717

loop_
_atom_site_label
_atom_site_type_symbol
_atom_type_description
_atom_site_fract_x
_atom_site_fract_y
_atom_site_fract_z
_atom_type_partial_charge
O1    O     O_R   0.638180 0.333920 0.163320 -0.539403
O2    O     O_R   0.361820 0.666080 0.836680 -0.540724
O3    O     O_R   0.308470 0.344960 0.336080 -0.544646
O4    O     O_R   0.691530 0.655040 0.663920 -0.544872
O5    O     O_R   0.138140 0.166110 0.336680 -0.533722
O6    O     O_R   0.861860 0.833890 0.663320 -0.532365
C1    C     C_R   0.477744 0.367080 0.364970 0.692177
C2    C     C_R   0.522263 0.632980 0.634980 0.690525
O7    O     O_R   0.308460 0.344950 0.163930 -0.542386
O8    O     O_R   0.691540 0.655050 0.836070 -0.548256
O9    O     O_R   0.138140 0.166100 0.163310 -0.536926
O10   O     O_R   0.861860 0.833900 0.836690 -0.542824
C3    C     C_R   0.477605 0.367181 0.135118 0.686251
C4    C     C_R   0.522366 0.632678 0.864738 0.679511
O11   O     O_R   0.638180 0.333930 0.336700 -0.539030
O12   O     O_R   0.361820 0.666070 0.663300 -0.540434
O13   O     O_3   0.471670 0.191340 0.250000 -0.370802
O14   O     O_3   0.528330 0.808660 0.750000 -0.363224
V1    V     V_3+5 0.196830 0.260900 0.250000 1.395022
V2    V     V_3+5 0.803170 0.739100 0.750000 1.393824
O15   O     O_R   0.808420 0.155070 0.163920 -0.548743
O16   O     O_R   0.191580 0.844930 0.836080 -0.543508
C5    C     C_R   0.977574 0.130098 0.137077 0.675612
C6    C     C_R   0.023627 0.862122 0.868614 0.677507
O17   O     O_R   0.808420 0.155080 0.336070 -0.538590
O18   O     O_R   0.191580 0.844920 0.663930 -0.536376
C7    C     C_R   0.977006 0.132451 0.364132 0.691639
C8    C     C_R   0.022999 0.867650 0.636167 0.705971
V3    V     V_3+5 0.696830 0.239130 0.250000 1.389522
V4    V     V_3+5 0.303170 0.760870 0.750000 1.407951
O19   O     O_3   0.971850 0.308690 0.250010 -0.370476
O20   O     O_3   0.028150 0.691310 0.749990 -0.374990
H1    H     H_    0.812002 0.819365 0.266852 0.109450
H2    H     H_    0.203968 0.177986 0.733477 0.114774
C9    C     C_R   0.091105 0.188436 0.529208 -0.137031
C10   C     C_R   0.919655 0.810586 0.470954 -0.137244
C11   C     C_R   0.148231 0.217756 0.607702 -0.122830
C12   C     C_R   0.867976 0.780466 0.392172 -0.113612
C13   C     C_R   0.160553 0.154730 0.672495 -0.118092
C14   C     C_R   0.850547 0.843589 0.327882 -0.130350
C15   C     C_R   0.116084 0.061848 0.659300 -0.134592
C16   C     C_R   0.883334 0.937453 0.341813 -0.152431
C17   C     C_R   0.059498 0.029764 0.580097 0.066540
C18   C     C_R   0.940820 0.970039 0.420637 0.072919
C19   C     C_R   0.046547 0.094395 0.513588 0.071086
C20   C     C_R   0.957012 0.905281 0.486858 0.068660
C21   C     C_R   0.013670 0.935292 0.566807 -0.187174
C22   C     C_R   0.986525 0.064733 0.433754 -0.183702
H3    H     H_    0.081113 0.240555 0.481316 0.105463
H4    H     H_    0.932881 0.758459 0.518696 0.101680
H5    H     H_    0.182041 0.289932 0.618377 0.117952
H6    H     H_    0.841776 0.707688 0.380931 0.114863
H7    H     H_    0.125973 0.015768 0.711941 0.103975
H8    H     H_    0.864547 0.983780 0.289948 0.087941
C23   C     C_R   0.179206 0.963369 0.977642 -0.216744
C24   C     C_R   0.826177 0.011135 0.041907 -0.213892
H9    H     H_    0.316475 0.949122 0.950424 0.121524
H10   H     H_    0.689715 0.030245 0.066516 0.120275
C25   C     C_R   0.168782 0.013988 0.052218 0.099145
C26   C     C_R   0.842211 0.933126 0.989625 0.109867
C27   C     C_R   0.991241 0.054150 0.073975 -0.088071
C28   C     C_R   0.013407 0.922511 0.943894 -0.095199
C29   C     C_R   0.321205 0.471160 0.469814 -0.162840
C30   C     C_R   0.678809 0.529069 0.529999 -0.161376
H11   H     H_    0.180886 0.449693 0.447884 0.113755
H12   H     H_    0.819128 0.550549 0.551919 0.113527
C31   C     C_R   0.332078 0.534925 0.534919 -0.154157
C32   C     C_R   0.667935 0.465306 0.464892 -0.153738
H13   H     H_    0.199668 0.560801 0.560898 0.116385
H14   H     H_    0.800343 0.439448 0.438898 0.116692
C33   C     C_R   0.511036 0.564689 0.566034 -0.043188
C34   C     C_R   0.488976 0.435484 0.433823 -0.044189
C35   C     C_R   0.321850 0.476352 0.033920 -0.157342
C36   C     C_R   0.678076 0.523170 0.965576 -0.169460
H15   H     H_    0.182115 0.459456 0.059220 0.118157
H16   H     H_    0.817859 0.540326 0.940466 0.120445
C37   C     C_R   0.332793 0.539720 0.968463 -0.155117
C38   C     C_R   0.667134 0.459907 0.031119 -0.152100
H17   H     H_    0.201028 0.569973 0.945668 0.119573
H18   H     H_    0.798974 0.429957 0.054153 0.120971
C39   C     C_R   0.511044 0.563970 0.933318 -0.051984
C40   C     C_R   0.488847 0.435516 0.066166 -0.045651
C41   C     C_3   0.327729 0.002830 0.115670 -0.372457
C42   C     C_3   0.252363 0.961501 0.197644 -0.288698
C43   C     C_3   0.412488 0.941665 0.259379 -0.728302
H19   H     H_    0.512198 0.001548 0.264185 0.239461
H20   H     H_    0.349824 0.928060 0.321471 0.223874
H21   H     H_    0.491632 0.879239 0.240408 0.220115
H22   H     H_    0.154325 0.010291 0.228093 0.191277
H23   H     H_    0.171558 0.896422 0.185128 0.185486
H24   H     H_    0.432198 0.952926 0.091857 0.175790
H25   H     H_    0.403177 0.069408 0.126288 0.197833
C44   C     C_3   0.705630 0.851989 0.002165 -0.346712
C45   C     C_3   0.720454 0.814780 0.091025 -0.351033
C46   C     C_3   0.565096 0.742715 0.108926 -0.774201
H26   H     H_    0.420162 0.772884 0.100195 0.232896
H27   H     H_    0.581566 0.682571 0.067192 0.243195
H28   H     H_    0.578425 0.718316 0.173897 0.216069
H29   H     H_    0.863846 0.782930 0.100317 0.194336
H30   H     H_    0.707289 0.871987 0.136079 0.198191
H31   H     H_    0.558416 0.872552 0.987332 0.158981
H32   H     H_    0.738298 0.792341 0.962099 0.187173

loop_
_geom_bond_atom_site_label_1
_geom_bond_atom_site_label_2
_ccdc_geom_bond_type
C7    C22   S    
V4    O20   S    
C29   H11   S    
C8    C21   S    
C44   C45   S    
C23   C25   A    
O13   V3    S    
C46   H26   S    
O4    C2    A    
V1    O19   S    
C46   H28   S    
C13   C15   A    
C43   H19   S    
C41   H25   S    
O9    V1    S    
C36   H16   S    
C30   C32   A    
C9    C11   A    
C25   C41   S    
O3    C1    A    
C11   H5    S    
C38   H18   S    
C43   H21   S    
C12   H6    S    
O12   V4    S    
C23   C28   A    
C26   C28   A    
C30   C33   A    
O7    C3    A    
O5    C7    A    
O7    V1    S    
O6    C8    A    
O8    V2    S    
C9    H3    S    
O3    V1    S    
O14   V4    S    
C37   C39   A    
C31   C33   A    
C26   C44   S    
C14   C16   A    
C2    O12   A    
V3    O19   S    
C15   C17   A    
C42   H23   S    
C18   C20   A    
O11   V3    S    
C43   H20   S    
O17   V3    S    
C29   C31   A    
C25   C27   A    
H1    C14   S    
H2    C13   S    
C42   C43   S    
O8    C4    A    
C44   H31   S    
C1    C34   S    
C1    O11   A    
O15   V3    S    
C3    C40   S    
C24   C26   A    
C31   H13   S    
C30   H12   S    
C38   C40   A    
C41   C42   S    
C45   H30   S    
C32   C34   A    
O10   V2    S    
O1    V3    S    
C37   H17   S    
C10   C20   A    
C17   C19   A    
C15   H7    S    
O18   V4    S    
C23   H9    S    
O16   C6    A    
O1    C3    A    
C42   H22   S    
C35   H15   S    
C36   C39   A    
C10   C12   A    
C9    C19   A    
C35   C40   A    
C10   H4    S    
V2    O20   S    
C19   C22   A    
C20   C21   A    
C2    C33   S    
C6    C28   S    
O16   V4    S    
C44   H32   S    
C46   H27   S    
O5    V1    S    
O17   C7    A    
C41   H24   S    
O10   C6    A    
O18   C8    A    
O2    V4    S    
C45   H29   S    
O15   C5    A    
C16   C18   A    
C11   C13   A    
C16   H8    S    
C12   C14   A    
O6    V2    S    
O9    C5    A    
O13   V1    S    
C24   H10   S    
O14   V2    S    
C45   C46   S    
O2    C4    A    
O4    V2    S    
C5    C27   S    
C29   C34   A    
C32   H14   S    
C36   C38   A    
C35   C37   A    
C24   C27   A    
C4    C39   S    
C17   C21   A    
C18   C22   A    
