data_mof_unit_59711.cif
_audit_creation_date              2013-03-05T16:10:50-0500
_audit_creation_method            fapswitch 2.2
_symmetry_space_group_name_H-M    P1
_symmetry_Int_Tables_number       1
_space_group_crystal_system       triclinic
_cell_length_a                    11.136686
_cell_length_b                    9.962328
_cell_length_c                    15.767848
_cell_angle_alpha                 89.930402
_cell_angle_beta                  91.708739
_cell_angle_gamma                 87.230025
_cell_volume                      1746.57327012

loop_
_atom_site_label
_atom_site_type_symbol
_atom_site_description
_atom_site_fract_x
_atom_site_fract_y
_atom_site_fract_z
_atom_type_partial_charge
O1    O     O_R   0.317570 0.620260 0.500050 -0.503100
O2    O     O_R   0.317570 0.379740 0.500050 -0.611711
C1    C     C_R   0.261889 0.502674 0.495979 0.847680
O3    O     O_R   0.499890 0.620310 0.379470 -0.504306
O4    O     O_R   0.499890 0.379690 0.379470 -0.507003
C2    C     C_R   0.499788 0.500071 0.341676 0.890983
Cu1   Cu    Cu3+1 0.499860 0.642410 0.500040 1.061122
Cu2   Cu    Cu3+1 0.499860 0.357590 0.500040 1.022787
O5    O     O_R   0.682190 0.620260 0.500020 -0.563472
O6    O     O_R   0.682190 0.379740 0.500020 -0.545065
O7    O     O_R   0.499870 0.620210 0.620600 -0.602379
O8    O     O_R   0.499870 0.379790 0.620600 -0.609430
C3    C     C_R   0.739762 0.497379 0.501377 0.933039
C4    C     C_R   0.500477 0.499900 0.658344 0.811057
C5    C     C_3   0.476042 0.642738 0.048750 -0.356244
C6    C     C_3   0.410085 0.401929 0.048045 -0.372737
C7    C     C_3   0.412597 0.396884 0.949323 -0.061546
C8    C     C_3   0.457539 0.639204 0.950940 -0.068996
H1    H     H_    0.358351 0.645849 0.938533 0.168084
H2    H     H_    0.322039 0.435000 0.925326 0.162171
H3    H     H_    0.393116 0.687112 0.077544 0.200655
H4    H     H_    0.318821 0.437625 0.067747 0.180946
H5    H     H_    0.427358 0.300392 0.076664 0.222023
H6    H     H_    0.550667 0.708087 0.067275 0.218444
C9    C     C_1   0.501944 0.499614 0.748086 -0.132847
C10   C     C_3   0.504560 0.498336 0.083593 0.111288
C11   C     C_3   0.506738 0.498014 0.916682 0.274795
C12   C     C_3   0.638938 0.460393 0.955301 0.306302
C13   C     C_3   0.630284 0.447353 0.054106 -0.339064
C14   C     C_1   0.503826 0.499142 0.823887 -0.074494
C15   C     C_1   0.502803 0.499387 0.176035 0.015775
C16   C     C_1   0.501201 0.499991 0.251839 0.038854
H7    H     H_    0.701314 0.503557 0.087861 0.194992
H8    H     H_    0.646373 0.341035 0.075074 0.200864
C17   C     C_3   0.079789 0.486361 0.588480 -0.160817
C18   C     C_3   0.079310 0.377777 0.443240 -0.305121
H9    H     H_    0.102959 0.378596 0.600986 0.210511
H10   H     H_    0.121907 0.289824 0.478169 0.231232
C19   C     C_3   0.938287 0.505730 0.596382 0.538080
C20   C     C_3   0.937462 0.365631 0.446854 0.523593
H11   H     H_    0.883962 0.712929 0.473164 0.247202
H12   H     H_    0.881485 0.622053 0.385968 0.276187
C21   C     C_3   0.061427 0.634105 0.445552 0.557521
C22   C     C_3   0.124091 0.505969 0.493284 -0.175695
C23   C     C_3   0.880891 0.492961 0.500895 -0.368773
C24   C     C_3   0.922349 0.619322 0.449994 -0.471767
C25   C     C_3   0.570591 0.080490 0.578978 0.324443
C26   C     C_3   0.596524 0.918075 0.564450 0.279749
H13   H     H_    0.329102 0.138204 0.567574 0.194856
H14   H     H_    0.368935 0.898648 0.598777 0.179479
C27   C     C_3   0.378257 0.085902 0.516382 -0.306717
C28   C     C_3   0.385750 0.925716 0.532660 -0.284641
C29   C     C_3   0.536209 0.077457 0.414504 0.403667
C30   C     C_3   0.507658 0.915015 0.410326 0.428845
N1    N     N_3   0.500250 0.143650 0.501830 -0.234489
N2    N     N_3   0.500250 0.856350 0.501830 -0.232147
H15   H     H_    0.311538 0.105485 0.465131 0.230997
H16   H     H_    0.305150 0.888130 0.503583 0.275617
N3    N     N_R   0.906192 0.637794 0.637087 0.093820
O9    O     O_R   0.950097 0.748821 0.612832 -0.360784
O10   O     O_R   0.854533 0.641981 0.710180 -0.341648
N4    N     N_R   0.881583 0.364358 0.358554 0.153851
O11   O     O_R   0.790021 0.443700 0.335653 -0.370247
O12   O     O_R   0.910319 0.268804 0.305405 -0.248639
N5    N     N_R   0.091715 0.764483 0.483033 0.175473
O13   O     O_R   0.053033 0.875415 0.445472 -0.229224
O14   O     O_R   0.152047 0.773788 0.554152 -0.370678
N6    N     N_R   0.093389 0.641321 0.354849 0.115402
O15   O     O_R   0.202031 0.610325 0.331496 -0.364257
O16   O     O_R   0.024990 0.712995 0.301761 -0.257673
C31   C     C_3   0.503651 0.106345 0.668004 -0.774328
H17   H     H_    0.567033 0.113856 0.723521 0.212060
H18   H     H_    0.441505 0.194010 0.671402 0.251490
H19   H     H_    0.442316 0.029520 0.686555 0.189584
C32   C     C_3   0.603432 0.846587 0.654061 -0.656407
H20   H     H_    0.654535 0.748635 0.654411 0.277112
H21   H     H_    0.656503 0.904586 0.700722 0.205600
H22   H     H_    0.515948 0.830958 0.682568 0.205879
C33   C     C_3   0.687339 0.152198 0.596569 -0.591632
H23   H     H_    0.741183 0.153030 0.540427 0.274048
H24   H     H_    0.668212 0.252531 0.618301 0.300122
H25   H     H_    0.741616 0.108015 0.650813 0.210659
C34   C     C_3   0.729860 0.895129 0.539033 -0.653551
H26   H     H_    0.757251 0.933471 0.479135 0.280635
H27   H     H_    0.795085 0.934920 0.585338 0.245406
H28   H     H_    0.759267 0.794209 0.547790 0.272531
N7    N     N_R   0.469198 0.143553 0.341354 0.186155
O17   O     O_R   0.358536 0.188961 0.344539 -0.395462
O18   O     O_R   0.518563 0.146454 0.267360 -0.253920
N8    N     N_R   0.389871 0.896541 0.362604 0.115224
O19   O     O_R   0.327777 0.794651 0.380163 -0.266269
O20   O     O_R   0.369992 0.942625 0.285855 -0.226697
N9    N     N_R   0.663324 0.103123 0.395909 0.083868
O21   O     O_R   0.727542 0.025978 0.346525 -0.210690
O22   O     O_R   0.687243 0.227004 0.388129 -0.233055
N10   N     N_R   0.595992 0.840731 0.356411 0.178765
O23   O     O_R   0.584195 0.848059 0.273988 -0.255719
O24   O     O_R   0.691342 0.775886 0.385676 -0.340527
C35   C     C_3   0.420865 0.251234 0.915301 -0.839198
H29   H     H_    0.329193 0.212061 0.909836 0.247002
H30   H     H_    0.459509 0.245616 0.851334 0.240893
H31   H     H_    0.472767 0.181313 0.958853 0.244677
C36   C     C_3   0.496636 0.768459 0.907155 -0.845336
H32   H     H_    0.438812 0.855167 0.928611 0.245649
H33   H     H_    0.589950 0.794022 0.922188 0.250943
H34   H     H_    0.483825 0.762330 0.837285 0.238271
C37   C     C_3   0.729157 0.569745 0.935171 -0.726835
H35   H     H_    0.719839 0.656651 0.978453 0.213516
H36   H     H_    0.823942 0.531860 0.945632 0.240899
H37   H     H_    0.718885 0.603844 0.868163 0.268507
C38   C     C_3   0.695129 0.327275 0.918711 -0.753440
H38   H     H_    0.691768 0.327717 0.848273 0.263700
H39   H     H_    0.790996 0.312009 0.939647 0.242709
H40   H     H_    0.652737 0.237264 0.941700 0.219253
C39   C     C_3   0.153152 0.546120 0.664017 -0.645193
H41   H     H_    0.251142 0.530968 0.656114 0.179084
H42   H     H_    0.132574 0.653011 0.677320 0.307042
H43   H     H_    0.133749 0.493094 0.723635 0.235029
C40   C     C_3   0.131670 0.351604 0.354473 -0.546278
H44   H     H_    0.083134 0.409526 0.303065 0.269024
H45   H     H_    0.226691 0.376588 0.352835 0.260875
H46   H     H_    0.128036 0.243218 0.338520 0.286069
N11   N     N_R   0.892841 0.402960 0.653981 0.148908
O25   O     O_R   0.780286 0.412560 0.673474 -0.413064
O26   O     O_R   0.965543 0.336384 0.706921 -0.332593
N12   N     N_R   0.920594 0.232508 0.486218 0.092288
O27   O     O_R   0.960660 0.206326 0.562770 -0.373567
O28   O     O_R   0.912520 0.127979 0.437542 -0.216385

loop_
_geom_bond_atom_site_label_1
_geom_bond_atom_site_label_2
_geom_bond_distance
_ccdc_geom_bond_type
C5    C8    1.550520 S    
C2    C16   1.417084 S    
N7    O17   1.294542 A    
N9    O21   1.300015 A    
C38   H38   1.110177 S    
C25   C33   1.531837 S    
C21   C22   1.601016 S    
H13   C27   1.105675 S    
C19   N11   1.484742 S    
N11   O25   1.298580 A    
C23   C24   1.586772 S    
Cu1   O7    1.913523 S    
N12   O27   1.296141 A    
C12   C13   1.569387 S    
C17   H9    1.108035 S    
C30   N8    1.511817 S    
O4    C2    1.338470 A    
O7    C4    1.337182 A    
N11   O26   1.303345 A    
C12   C37   1.555958 S    
C39   H41   1.105185 S    
C13   H7    1.113990 S    
C7    H2    1.115501 S    
C20   N4    1.508321 S    
C33   H25   1.110501 S    
C26   N2    1.582615 S    
C8    H1    1.114834 S    
H12   C24   1.094706 S    
C18   C40   1.549822 S    
O5    C3    1.354039 A    
N4    O12   1.303625 A    
C36   H33   1.100924 S    
C35   H29   1.111460 S    
C6    C7    1.558541 S    
C39   H42   1.100142 S    
N10   O24   1.289032 A    
H14   C28   1.100223 S    
H11   C24   1.075859 S    
C17   C39   1.559240 S    
C27   H15   1.092245 S    
C36   H34   1.108812 S    
C30   N10   1.489687 S    
Cu2   O8    1.914058 S    
C19   C23   1.625611 S    
C40   H45   1.099789 S    
C20   N12   1.486082 S    
C10   C15   1.458360 S    
N9    O22   1.281590 A    
C11   C14   1.462579 S    
C37   H36   1.111262 S    
C26   C32   1.579681 S    
Cu1   N2    2.131774 S    
C29   N7    1.490032 S    
O3    Cu1   1.914108 S    
Cu2   N1    2.131286 S    
C32   H22   1.102774 S    
C29   N1    1.581387 S    
C12   C38   1.557683 S    
C6    C10   1.551589 S    
C20   C23   1.639978 S    
C30   N2    1.561999 S    
C1    C22   1.532695 S    
N3    O10   1.303221 A    
C29   N9    1.488261 S    
C27   C28   1.613810 S    
C7    C11   1.584964 S    
C25   C26   1.647295 S    
Cu1   Cu2   2.837469 S    
O3    C2    1.338593 A    
C31   H18   1.090189 S    
N6    O15   1.298290 A    
C5    C10   1.554270 S    
N5    O14   1.295727 A    
C29   C30   1.665256 S    
C13   H8    1.113795 S    
O1    C1    1.352371 A    
C17   C19   1.586973 S    
C32   H20   1.105582 S    
N3    O9    1.292735 A    
N4    O11   1.301687 A    
O4    Cu2   1.913580 S    
C7    C35   1.547138 S    
N8    O20   1.302750 A    
C34   H26   1.076357 S    
C18   C20   1.592861 S    
C21   N5    1.477303 S    
C39   H43   1.109688 S    
C19   N3    1.496982 S    
N10   O23   1.303951 A    
C35   H31   1.107777 S    
C38   H39   1.111354 S    
N12   O28   1.299412 A    
C17   C22   1.608564 S    
C32   H21   1.110229 S    
C25   C31   1.623994 S    
C28   H16   1.079116 S    
N6    O16   1.303360 A    
C5    H6    1.112712 S    
C35   H30   1.108770 S    
O8    C4    1.337270 A    
C6    H5    1.112993 S    
N7    O18   1.305399 A    
C37   H37   1.110398 S    
C18   C22   1.594645 S    
C37   H35   1.105939 S    
C11   C12   1.603593 S    
C25   N1    1.543701 S    
C40   H46   1.111348 S    
C9    C14   1.194786 T    
Cu1   O5    2.031887 S    
C6    H4    1.113631 S    
C34   H27   1.102178 S    
O1    Cu1   2.052644 S    
C15   C16   1.195960 T    
O2    Cu2   2.031441 S    
C8    C11   1.586034 S    
O6    C3    1.362685 A    
C31   H19   1.095361 S    
C40   H44   1.106707 S    
C21   N6    1.486565 S    
C33   H24   1.070750 S    
C26   C34   1.555882 S    
C18   H10   1.113188 S    
O2    C1    1.346324 A    
C31   H17   1.112909 S    
C3    C23   1.570436 S    
N8    O19   1.289881 A    
C38   H40   1.099421 S    
C27   N1    1.524208 S    
C8    C36   1.547348 S    
C4    C9    1.414640 S    
C21   C24   1.566555 S    
C33   H23   1.084167 S    
C5    H3    1.113769 S    
C34   H28   1.049902 S    
C10   C13   1.550882 S    
Cu2   O6    2.053090 S    
N5    O13   1.301871 A    
C36   H32   1.111420 S    
C28   N2    1.514089 S    
