data_mof_unit_29671.cif
_audit_creation_date              2012-12-11T15:53:56-0500
_audit_creation_method            fapswitch 2.2
_symmetry_space_group_name_H-M    P1
_symmetry_Int_Tables_number       1
_space_group_crystal_system       triclinic
_cell_length_a                    10.661291
_cell_length_b                    10.991448
_cell_length_c                    16.983762
_cell_angle_alpha                 81.358584
_cell_angle_beta                  98.963972
_cell_angle_gamma                 117.273276
_cell_volume                      1740.2928864

loop_
_atom_site_label
_atom_site_type_symbol
_atom_type_description
_atom_site_fract_x
_atom_site_fract_y
_atom_site_fract_z
_atom_type_partial_charge
C1    C     C_R   0.358886 0.223605 0.626064 0.558638
C2    C     C_R   0.472292 0.744204 0.714582 -0.158570
C3    C     C_R   0.463134 0.748058 0.794278 0.210026
C4    C     C_3   0.091334 0.476075 0.776556 0.538961
C5    C     C_3   0.092795 0.474156 0.686701 0.175174
C6    C     C_R   0.349449 0.674335 0.662615 -0.018566
C7    C     C_1   0.821715 0.655718 0.706060 -0.026671
C8    C     C_1   0.850657 0.685030 0.773815 -0.022354
C9    C     C_1   0.330770 0.154795 0.704797 -0.069996
C10   C     C_1   0.295340 0.107208 0.771148 -0.086744
C11   C     C_1   0.321534 0.685426 0.280709 -0.032885
C12   C     C_R   0.373549 0.651712 0.587220 0.564851
C13   C     C_1   0.301375 0.711539 0.210067 -0.037346
C14   C     C_R   0.933869 0.708139 0.178722 -0.048291
C15   C     C_R   0.979938 0.629188 0.237642 -0.023525
C16   C     C_R   0.951086 0.612877 0.317408 -0.107665
C17   C     C_R   0.851453 0.771828 0.283502 0.226176
C18   C     C_R   0.863382 0.774196 0.202136 -0.166690
C19   C     C_3   0.946247 0.479369 0.240412 0.540517
C20   C     C_3   0.942748 0.471046 0.330782 0.190134
C21   C     C_R   0.873244 0.675417 0.339220 0.034617
C22   C     C_R   0.267221 0.052872 0.181388 0.008199
C23   C     C_R   0.774541 0.616880 0.626856 0.537280
C24   C     C_R   0.154471 0.029797 0.223539 -0.017064
C25   C     C_R   0.182858 0.076251 0.298987 0.042653
C26   C     C_R   0.427086 0.127563 0.302321 -0.176013
C27   C     C_R   0.404650 0.096579 0.222183 0.202388
C28   C     C_3   0.049075 0.086384 0.199924 -0.264690
C29   C     C_3   0.086557 0.142213 0.281135 -0.234447
C30   C     C_R   0.318969 0.132453 0.337711 -0.033398
C31   C     C_R   0.893377 0.703033 0.856153 0.572944
C32   C     C_R   0.313265 0.711195 0.897327 0.585580
C33   C     C_R   0.253209 0.058141 0.850912 0.549185
C34   C     C_R   0.351552 0.223089 0.401081 0.549962
C35   C     C_R   0.953327 0.716450 0.094854 0.542711
C36   C     C_R   0.285448 0.738163 0.125195 0.518565
C37   C     C_R   0.246611 0.039067 0.095085 0.560453
C38   C     C_R   0.363771 0.655981 0.362047 0.532473
C39   C     C_R   0.781875 0.623933 0.405008 0.564946
C40   C     C_R   0.328848 0.683831 0.821702 0.019479
C41   C     C_R   0.206231 0.621923 0.769492 -0.018350
C42   C     C_R   0.216145 0.614930 0.690485 -0.095183
Cr1   Cr    Cr6+3 0.608440 0.389080 0.519680 0.982499
Cr2   Cr    Cr6+3 0.288640 0.400090 0.490760 1.006727
Cr3   Cr    Cr6+3 0.602940 0.710800 0.489510 0.981926
Cr4   Cr    Cr6+3 0.052530 0.947560 0.964210 0.951787
Cr5   Cr    Cr6+3 0.059970 0.626800 0.992920 0.998367
Cr6   Cr    Cr6+3 0.373320 0.938440 0.995370 0.966606
H1    H     H_    0.045417 0.479632 0.363174 0.118806
H2    H     H_    0.070240 0.152830 0.144312 0.141162
O1    O     O_R   0.754020 0.497590 0.609930 -0.541052
O2    O     O_R   0.295080 0.533620 0.397890 -0.505440
O3    O     O_R   0.485280 0.746620 0.388440 -0.553489
O4    O     O_R   0.720550 0.696220 0.420010 -0.471865
O5    O     O_3   0.500010 0.499990 0.499980 -0.256829
O6    O     O_R   0.163320 0.092900 0.874450 -0.525835
O7    O     O_R   0.934650 0.822080 0.882840 -0.519509
O8    O     O_R   0.915520 0.604140 0.893670 -0.472104
O9    O     O_R   0.191760 0.638110 0.923230 -0.474854
O10   O     O_R   0.406180 0.826930 0.920660 -0.488311
O11   O     O_R   0.358620 0.062870 0.901950 -0.506299
O12   O     O_R   0.481420 0.271390 0.600630 -0.517758
O13   O     O_R   0.163910 0.085460 0.050210 -0.545909
O14   O     O_R   0.935200 0.815170 0.045770 -0.535152
O15   O     O_R   0.916120 0.596690 0.069430 -0.502506
O16   O     O_R   0.192310 0.631200 0.086170 -0.509728
O17   O     O_R   0.406770 0.819480 0.096420 -0.552725
O18   O     O_R   0.359170 0.055960 0.064880 -0.462179
O19   O     O_3   0.161940 0.837600 0.984160 -0.336857
O20   O     O_R   0.263810 0.254550 0.589590 -0.492476
O21   O     O_R   0.300820 0.531200 0.560890 -0.461313
O22   O     O_R   0.491480 0.744020 0.564270 -0.540746
O23   O     O_R   0.726290 0.693800 0.583010 -0.510855
O24   O     O_R   0.747830 0.500190 0.434090 -0.488422
O25   O     O_R   0.475680 0.273800 0.437630 -0.506599
O26   O     O_R   0.257620 0.257160 0.413750 -0.532435
H3    H     H_    0.577643 0.783937 0.695893 0.146686
O27   O     O_3   0.814261 0.399493 0.195213 -0.557208
C43   C     C_3   0.697341 0.426850 0.202898 0.076414
H4    H     H_    0.717792 0.514922 0.233411 0.085931
H5    H     H_    0.628587 0.347807 0.244145 0.204934
C44   C     C_3   0.615926 0.439119 0.121721 -0.308629
H6    H     H_    0.619766 0.374519 0.078862 0.205713
H7    H     H_    0.503333 0.407095 0.129907 0.109326
H8    H     H_    0.660535 0.547099 0.095068 0.137479
O28   O     O_3   0.819679 0.362257 0.361788 -0.555044
C45   C     C_3   0.862796 0.301437 0.434065 -0.004956
H9    H     H_    0.927873 0.380706 0.476712 0.119915
H10   H     H_    0.927881 0.252550 0.421410 0.105284
C46   C     C_3   0.736615 0.192444 0.476390 -0.351779
H11   H     H_    0.651924 0.126403 0.434283 0.142792
H12   H     H_    0.770578 0.124549 0.519752 0.049816
H13   H     H_    0.693653 0.241211 0.509963 0.188404
H14   H     H_    0.534048 0.173977 0.329897 0.155131
O29   O     O_3   0.516926 0.160209 0.175352 -0.563036
C47   C     C_3   0.602627 0.093225 0.183235 0.023980
H15   H     H_    0.541755 0.981038 0.197923 0.135170
H16   H     H_    0.689821 0.142003 0.229291 0.177311
C48   C     C_3   0.671897 0.119594 0.105748 -0.324453
H17   H     H_    0.727900 0.231024 0.087640 0.157504
H18   H     H_    0.750853 0.078408 0.113967 0.036112
H19   H     H_    0.593105 0.069929 0.055881 0.194689
H20   H     H_    0.938128 0.018717 0.191861 0.156140
H21   H     H_    0.142875 0.254601 0.282023 0.178082
H22   H     H_    0.004689 0.100472 0.322567 0.200840
O30   O     O_3   0.582486 0.792295 0.849453 -0.547176
C49   C     C_3   0.686375 0.924564 0.825457 0.004318
H23   H     H_    0.640648 0.990470 0.788631 0.111361
H24   H     H_    0.760150 0.913961 0.790693 0.134440
C50   C     C_3   0.769783 0.995965 0.900056 -0.323201
H25   H     H_    0.873528 0.080778 0.885055 0.095811
H26   H     H_    0.708953 0.037619 0.925388 0.108449
H27   H     H_    0.789830 0.922479 0.946229 0.210971
O31   O     O_3   0.962297 0.470744 0.792924 -0.542698
C51   C     C_3   0.862557 0.333746 0.813237 0.033902
H28   H     H_    0.888912 0.302618 0.876534 0.161095
H29   H     H_    0.860810 0.261248 0.773555 0.117364
C52   C     C_3   0.713156 0.321834 0.805660 -0.390304
H30   H     H_    0.682061 0.351891 0.743342 0.184688
H31   H     H_    0.637049 0.213677 0.821616 0.101252
H32   H     H_    0.705871 0.387318 0.846662 0.169573
O32   O     O_3   0.133692 0.386144 0.832118 -0.563862
C53   C     C_3   0.264808 0.388669 0.822126 0.024783
H33   H     H_    0.333763 0.472797 0.781773 0.129244
H34   H     H_    0.241234 0.297993 0.792791 0.210434
C54   C     C_3   0.349914 0.389771 0.903302 -0.344695
H35   H     H_    0.282148 0.311044 0.947243 0.214788
H36   H     H_    0.392738 0.491504 0.926867 0.142708
H37   H     H_    0.440144 0.368720 0.897042 0.114961
O33   O     O_3   0.123861 0.370314 0.668063 -0.545910
C55   C     C_3   0.998633 0.259443 0.637610 0.009686
H38   H     H_    0.012819 0.249258 0.576107 0.153696
H39   H     H_    0.899445 0.271352 0.634081 0.080919
C56   C     C_3   0.974071 0.124899 0.687693 -0.372378
H40   H     H_    0.982406 0.136961 0.752177 0.175714
H41   H     H_    0.866650 0.044276 0.669642 0.073330
H42   H     H_    0.051676 0.089918 0.677403 0.166791
H43   H     H_    0.003464 0.486079 0.648300 0.109702
O34   O     O_3   0.847659 0.878380 0.313663 -0.578877
C57   C     C_3   0.722308 0.888819 0.288048 0.000385
H44   H     H_    0.628531 0.786817 0.287175 0.172937
H45   H     H_    0.726925 0.937413 0.226695 0.090607
C58   C     C_3   0.713199 0.978339 0.345355 -0.323884
H46   H     H_    0.796850 0.084651 0.336717 0.112165
H47   H     H_    0.608968 0.980108 0.335467 0.106420
H48   H     H_    0.729997 0.940445 0.408561 0.202222
H49   H     H_    0.815807 0.824933 0.156913 0.119643
O35   O     O_3   0.065473 0.461585 0.226361 -0.593597
C59   C     C_3   0.044553 0.382864 0.162720 0.046229
H50   H     H_    0.992203 0.415423 0.107983 0.199023
H51   H     H_    0.969739 0.275174 0.178216 0.121192
C60   C     C_3   0.191775 0.400100 0.142823 -0.338909
H52   H     H_    0.281929 0.496695 0.159711 0.184905
H53   H     H_    0.236355 0.333333 0.176256 0.096685
H54   H     H_    0.187575 0.390905 0.078082 0.126452

loop_
_geom_bond_atom_site_label_1
_geom_bond_atom_site_label_2
_ccdc_geom_bond_type
C26   H14   S    
C58   H48   S    
C45   H9    S    
C37   O18   A    
C16   C21   A    
C11   C38   S    
C53   H33   S    
C41   C42   A    
C14   C18   A    
C27   O29   S    
O29   C47   S    
C28   H20   S    
C57   C58   S    
Cr6   O19   S    
C5    C42   S    
C55   C56   S    
C1    O12   A    
C56   H42   S    
O31   C51   S    
Cr6   O11   S    
C36   O17   A    
C5    H43   S    
C19   O35   S    
C15   C19   S    
C26   C27   A    
C54   H35   S    
C31   O8    A    
C4    O31   S    
C28   C29   S    
C57   H45   S    
C59   H51   S    
C6    C12   S    
C36   O16   A    
C53   H34   S    
C39   O4    A    
C38   O2    A    
C4    C41   S    
C35   O15   A    
C58   H46   S    
C47   C48   S    
Cr2   O21   S    
Cr3   O23   S    
C39   O24   A    
Cr2   O26   S    
C50   H25   S    
Cr5   O19   S    
Cr4   O19   S    
C52   H30   S    
C28   H2    S    
C19   C20   S    
C51   H29   S    
C20   O28   S    
C49   H23   S    
Cr2   O20   S    
C35   O14   A    
C9    C10   T    
Cr5   O16   S    
C7    C23   S    
C34   O25   A    
Cr2   O2    S    
Cr1   O24   S    
C12   O22   A    
Cr3   O3    S    
Cr3   O22   S    
C25   C29   S    
C49   H24   S    
C29   H22   S    
C2    C6    A    
C23   O23   A    
C37   O13   A    
Cr6   O10   S    
C52   H31   S    
C3    O30   S    
Cr1   O25   S    
C46   H12   S    
C30   C34   S    
C7    C8    T    
C1    C9    S    
O35   C59   S    
C13   C36   S    
C18   H49   S    
C59   C60   S    
C14   C35   S    
C43   H5    S    
O28   C45   S    
C53   C54   S    
C56   H41   S    
C54   H37   S    
C22   C37   S    
Cr6   O18   S    
C29   H21   S    
C47   H16   S    
C52   H32   S    
C19   O27   S    
C20   H1    S    
C23   O1    A    
C48   H17   S    
C21   C39   S    
C60   H54   S    
C16   C20   S    
C51   C52   S    
C47   H15   S    
C17   C18   A    
C4    O32   S    
C17   O34   S    
C24   C25   A    
C50   H27   S    
Cr1   O5    S    
C40   C41   A    
C48   H18   S    
C12   O21   A    
C60   H53   S    
Cr3   O4    S    
C26   C30   A    
C44   H7    S    
C22   C27   A    
C45   H10   S    
Cr4   O7    S    
C6    C42   A    
C49   C50   S    
C22   C24   A    
C32   O10   A    
Cr4   O6    S    
C55   H38   S    
C46   H13   S    
C25   C30   A    
C58   H47   S    
C5    O33   S    
C54   H36   S    
O27   C43   S    
C8    C31   S    
C24   C28   S    
C4    C5    S    
C55   H39   S    
C3    C40   A    
C43   C44   S    
O34   C57   S    
C56   H40   S    
C44   H8    S    
C1    O20   A    
Cr4   O13   S    
C31   O7    A    
C2    C3    A    
C2    H3    S    
C59   H50   S    
Cr5   O8    S    
C11   C13   T    
Cr2   O5    S    
Cr1   O1    S    
C46   H11   S    
C38   O3    A    
C33   O6    A    
C57   H44   S    
O33   C55   S    
C10   C33   S    
C32   C40   S    
Cr6   O17   S    
C50   H26   S    
Cr5   O9    S    
C43   H4    S    
C48   H19   S    
C60   H52   S    
Cr3   O5    S    
C33   O11   A    
C44   H6    S    
O30   C49   S    
C45   C46   S    
Cr4   O14   S    
C14   C15   A    
C32   O9    A    
C51   H28   S    
O32   C53   S    
Cr5   O15   S    
C15   C16   A    
Cr1   O12   S    
C34   O26   A    
C17   C21   A    
