data_mof_unit_51925.cif
_audit_creation_date              2012-12-10T18:16:18-0500
_audit_creation_method            fapswitch 2.2
_symmetry_space_group_name_H-M    P1
_symmetry_Int_Tables_number       1
_space_group_crystal_system       triclinic
_cell_length_a                    12.58747
_cell_length_b                    13.096206
_cell_length_c                    27.741062
_cell_angle_alpha                 90.800275
_cell_angle_beta                  103.035004
_cell_angle_gamma                 82.160898
_cell_volume                      4412.9222948

loop_
_atom_site_label
_atom_site_type_symbol
_atom_type_description
_atom_site_fract_x
_atom_site_fract_y
_atom_site_fract_z
_atom_type_partial_charge
C1    C     C_R   0.438543 0.691325 0.492249 0.858023
C2    C     C_R   0.600681 0.522949 0.731444 -0.099512
C3    C     C_R   0.508979 0.501060 0.747853 0.319588
C4    C     C_R   0.508042 0.501173 0.899036 -0.051648
C5    C     C_R   0.503613 0.594531 0.873608 -0.021245
C6    C     C_R   0.496077 0.687528 0.898523 -0.136940
C7    C     C_R   0.515265 0.407629 0.873553 -0.022311
C8    C     C_R   0.503831 0.500910 0.646870 -0.045489
C9    C     C_R   0.496547 0.499458 0.353205 -0.040615
C10   C     C_R   0.502779 0.595565 0.026557 0.045461
C11   C     C_R   0.495651 0.407825 0.024253 0.045495
C12   C     C_R   0.501136 0.500355 0.593890 0.875737
C13   C     C_R   0.497427 0.501765 0.050437 0.071123
C14   C     C_R   0.510612 0.685767 0.055099 -0.213374
C15   C     C_R   0.508830 0.684588 0.104864 -0.136658
C16   C     C_R   0.499824 0.593522 0.128170 -0.022132
C17   C     C_R   0.494074 0.501843 0.101158 -0.051754
C18   C     C_R   0.485344 0.410163 0.125032 -0.020720
C19   C     C_R   0.483676 0.411667 0.175292 0.502737
C20   C     C_R   0.497659 0.591639 0.178339 0.503985
C21   C     C_R   0.397649 0.485854 0.268281 -0.099621
C22   C     C_R   0.399688 0.485177 0.318577 -0.213380
C23   C     C_R   0.561222 0.308453 0.504879 0.867308
C24   C     C_R   0.591319 0.513932 0.336843 -0.219586
C25   C     C_R   0.589021 0.514405 0.286577 -0.103020
C26   C     C_R   0.492227 0.500609 0.252298 0.316270
C27   C     C_R   0.500959 0.596118 0.975291 0.045476
C28   C     C_R   0.504831 0.501376 0.949772 0.071209
C29   C     C_R   0.505227 0.406842 0.974330 0.045358
C30   C     C_R   0.494491 0.688571 0.948331 -0.213488
C31   C     C_R   0.520760 0.314748 0.898561 -0.136324
C32   C     C_R   0.483308 0.317907 0.048991 -0.213819
C33   C     C_R   0.478647 0.319210 0.098445 -0.136934
C34   C     C_R   0.498907 0.499709 0.406126 0.854514
C35   C     C_R   0.516195 0.314103 0.948009 -0.213601
C36   C     C_R   0.702967 0.063443 0.464389 -0.193106
C37   C     C_R   0.596608 0.199417 0.499814 -0.050439
C38   C     C_R   0.298411 0.839774 0.497291 -0.184044
C39   C     C_R   0.268606 0.945368 0.499754 -0.139342
C40   C     C_R   0.341926 0.012248 0.494004 -0.169880
C41   C     C_R   0.444961 0.973941 0.483273 0.083375
C42   C     C_R   0.465910 0.869103 0.472591 0.028759
C43   C     C_R   0.528225 0.036005 0.483303 0.046453
C44   C     C_R   0.621236 0.999126 0.463600 0.090288
C45   C     C_R   0.505107 0.592688 0.823328 0.503296
C46   C     C_R   0.629817 0.898942 0.444236 0.178278
C47   C     C_R   0.553311 0.834817 0.449651 -0.211503
C48   C     C_R   0.522494 0.133082 0.504240 -0.227079
C49   C     C_R   0.689234 0.164046 0.481337 -0.195226
C50   C     C_R   0.398581 0.801070 0.485289 -0.094923
C51   C     C_R   0.089944 0.341292 0.432297 0.108882
C52   C     C_R   0.800100 0.631011 0.558171 0.008819
C53   C     C_R   0.904605 0.660437 0.569552 -0.254496
C54   C     C_R   0.985585 0.611036 0.547175 -0.197569
C55   C     C_R   0.962334 0.530942 0.513251 0.036135
C56   C     C_R   0.517075 0.409268 0.823345 0.504289
C57   C     C_R   0.854431 0.503972 0.503050 0.231716
C58   C     C_R   0.041379 0.476719 0.489277 -0.052076
C59   C     C_R   0.011424 0.396257 0.455807 0.170181
C60   C     C_R   0.903995 0.372213 0.446745 -0.289691
C61   C     C_R   0.827524 0.425152 0.469951 -0.227931
C62   C     C_R   0.149922 0.498790 0.497476 -0.075955
C63   C     C_R   0.195856 0.368132 0.442537 -0.009764
C64   C     C_R   0.414664 0.479373 0.714019 -0.104947
C65   C     C_R   0.411905 0.479339 0.663694 -0.216858
C66   C     C_R   0.598288 0.522840 0.681111 -0.212467
H1    H     H_    0.670184 0.539873 0.669103 0.164097
H2    H     H_    0.343592 0.462757 0.726835 0.140167
H3    H     H_    0.528462 0.241704 0.879964 0.190940
H4    H     H_    0.474721 0.245166 0.030994 0.142843
H5    H     H_    0.667172 0.524822 0.362756 0.170734
H6    H     H_    0.469844 0.248165 0.115788 0.190462
H7    H     H_    0.662364 0.525368 0.274149 0.141989
H8    H     H_    0.523743 0.239003 0.964731 0.142990
H9    H     H_    0.748263 0.214933 0.478098 0.148226
H10   H     H_    0.776551 0.037964 0.451205 0.139940
H11   H     H_    0.673675 0.539690 0.757746 0.141662
H12   H     H_    0.458149 0.160700 0.523072 0.149522
H13   H     H_    0.244572 0.788403 0.506039 0.149541
H14   H     H_    0.314900 0.093496 0.496850 0.134865
H15   H     H_    0.190524 0.975326 0.508252 0.142466
H16   H     H_    0.561082 0.758421 0.434291 0.182615
H17   H     H_    0.258598 0.327813 0.425547 0.143598
H18   H     H_    0.877500 0.311925 0.421658 0.170452
H19   H     H_    0.180243 0.557721 0.522142 0.134411
H20   H     H_    0.736563 0.669517 0.575171 0.146440
H21   H     H_    0.490883 0.760415 0.879544 0.190570
H22   H     H_    0.064984 0.637240 0.557261 0.137658
H23   H     H_    0.922727 0.721656 0.595476 0.158265
H24   H     H_    0.747544 0.402059 0.461325 0.212941
H25   H     H_    0.325550 0.473884 0.330249 0.165428
H26   H     H_    0.322693 0.475288 0.241676 0.143816
H27   H     H_    0.515049 0.755721 0.125087 0.190862
H28   H     H_    0.520717 0.758640 0.040489 0.142731
H29   H     H_    0.485572 0.763817 0.964238 0.142687
H30   H     H_    0.338021 0.462310 0.638102 0.164806
N1    N     N_R   0.511280 0.500966 0.799431 -0.357131
N2    N     N_R   0.490326 0.501458 0.200731 -0.356536
N3    N     N_R   0.222180 0.444690 0.474320 -0.121304
N4    N     N_R   0.776980 0.554780 0.525420 -0.135381
O1    O     O_R   0.366730 0.627160 0.487740 -0.612761
O2    O     O_2   0.502509 0.679115 0.204606 -0.556753
O3    O     O_2   0.524568 0.320145 0.798507 -0.556470
O4    O     O_2   0.476905 0.324015 0.198794 -0.560499
O5    O     O_R   0.544830 0.662520 0.504140 -0.619235
O6    O     O_R   0.410970 0.482310 0.563040 -0.619615
O7    O     O_R   0.589070 0.517670 0.579450 -0.617269
O8    O     O_R   0.455170 0.337480 0.495860 -0.615396
O9    O     O_R   0.633270 0.372840 0.512260 -0.630864
O10   O     O_R   0.410930 0.482330 0.420550 -0.615857
O11   O     O_R   0.589030 0.517690 0.436960 -0.647335
O12   O     O_2   0.499282 0.681700 0.798301 -0.558967
Zn1   Zn    Zn3+2 0.381080 0.476390 0.489050 0.942609
Zn2   Zn    Zn3+2 0.618920 0.523610 0.510950 0.929031
N5    N     N_2   0.712792 0.861150 0.418491 -0.305542
H31   H     H_    0.738366 0.914951 0.398500 0.226626
C67   C     C_3   0.801358 0.788306 0.446279 -0.757856
H32   H     H_    0.846253 0.825383 0.479573 0.237159
H33   H     H_    0.859866 0.761095 0.422781 0.238197
H34   H     H_    0.768470 0.720291 0.457635 0.259552
C68   C     C_3   0.063802 0.254559 0.397104 -0.944159
H35   H     H_    0.037679 0.191965 0.416436 0.245725
H36   H     H_    0.997038 0.283628 0.364903 0.252869
H37   H     H_    0.136402 0.220983 0.382817 0.246148

loop_
_geom_bond_atom_site_label_1
_geom_bond_atom_site_label_2
_ccdc_geom_bond_type
C10   C27   A    
C58   C62   A    
C12   O6    A    
C21   C26   A    
C35   H8    S    
C8    C66   A    
O1    Zn1   S    
C41   C42   A    
C45   O12   S    
C53   C54   A    
C52   C53   A    
C46   N5    S    
C64   H2    S    
C28   C29   A    
C67   H33   S    
C5    C6    A    
C60   H18   S    
C9    C22   A    
C20   O2    S    
C38   H13   S    
C15   C16   A    
C18   C19   A    
C47   H16   S    
C48   H12   S    
C68   H37   S    
C63   N3    A    
C36   H10   S    
C33   H6    S    
C54   C55   A    
C65   H30   S    
C16   C17   A    
N5    C67   S    
C22   H25   S    
C40   H14   S    
C43   C48   A    
C16   C20   A    
C66   H1    S    
C59   C60   A    
C21   C22   A    
C27   C30   A    
C34   O11   A    
C41   C43   A    
C56   N1    A    
C4    C7    A    
C4    C28   A    
C19   N2    A    
C44   C46   A    
C23   O9    A    
C62   H19   S    
C7    C31   A    
O6    Zn1   S    
O5    Zn2   S    
C51   C63   A    
C24   C25   A    
C39   H15   S    
C10   C14   A    
C67   H34   S    
C39   C40   A    
C32   H4    S    
C58   C59   A    
C23   C37   S    
C57   N4    A    
C5    C45   A    
C52   N4    A    
C6    H21   S    
C63   H17   S    
C60   C61   A    
O8    Zn1   S    
C43   C44   A    
O7    Zn2   S    
C15   H27   S    
C30   H29   S    
C37   C49   A    
C19   O4    S    
C3    N1    S    
C31   H3    S    
C8    C12   S    
C49   H9    S    
C17   C18   A    
N4    Zn2   S    
C37   C48   A    
O10   Zn1   S    
C68   H35   S    
O9    Zn2   S    
C26   N2    S    
C40   C41   A    
C6    C30   A    
C42   C50   A    
C11   C32   A    
C55   C57   A    
C53   H23   S    
C9    C34   S    
C51   C68   S    
C31   C35   A    
C36   C44   A    
C51   C59   A    
C1    O1    A    
C61   H24   S    
C1    C50   S    
C46   C47   A    
C56   O3    S    
C4    C5    A    
C2    C66   A    
C10   C13   A    
N3    Zn1   S    
C12   O7    A    
C9    C24   A    
C57   C61   A    
C38   C50   A    
C29   C35   A    
C7    C56   A    
C13   C17   A    
C64   C65   A    
C52   H20   S    
C2    C3    A    
C25   C26   A    
C2    H11   S    
C45   N1    A    
C67   H32   S    
C32   C33   A    
C54   H22   S    
C11   C13   A    
C38   C39   A    
C34   O10   A    
C23   O8    A    
O11   Zn2   S    
C25   H7    S    
C42   C47   A    
C3    C64   A    
C18   C33   A    
C68   H36   S    
C62   N3    A    
C8    C65   A    
C20   N2    A    
C11   C29   A    
C55   C58   A    
C27   C28   A    
C14   C15   A    
C14   H28   S    
C36   C49   A    
N5    H31   S    
C24   H5    S    
C1    O5    A    
C21   H26   S    
