data_mof_unit_32827.cif
_audit_creation_date              2012-12-11T17:10:34-0500
_audit_creation_method            fapswitch 2.2
_symmetry_space_group_name_H-M    P1
_symmetry_Int_Tables_number       1
_space_group_crystal_system       triclinic
_cell_length_a                    15.171868
_cell_length_b                    14.965108
_cell_length_c                    15.114492
_cell_angle_alpha                 109.561566
_cell_angle_beta                  110.512258
_cell_angle_gamma                 109.156947
_cell_volume                      2614.47516388

loop_
_atom_site_label
_atom_site_type_symbol
_atom_type_description
_atom_site_fract_x
_atom_site_fract_y
_atom_site_fract_z
_atom_type_partial_charge
C1    C     C_R   0.188055 0.277978 0.256489 -0.128487
C2    C     C_R   0.449801 0.538937 0.224341 -0.132574
C3    C     C_R   0.558848 0.815314 0.590416 0.499975
C4    C     C_R   0.598366 0.506584 0.803739 0.425680
C5    C     C_R   0.726190 0.458429 0.413275 -0.151638
C6    C     C_R   0.540137 0.827262 0.498942 -0.061362
C7    C     C_R   0.827049 0.533511 0.508541 0.094489
C8    C     C_R   0.516759 0.513377 0.190950 0.074414
C9    C     C_R   0.802525 0.801277 0.869262 0.077622
C10   C     C_R   0.206204 0.766441 0.368893 -0.116762
C11   C     C_R   0.177570 0.721049 0.428483 -0.129159
C12   C     C_R   0.563966 0.560219 0.864917 -0.189676
C13   C     C_R   0.074337 0.628625 0.377129 0.153096
C14   C     C_R   0.000234 0.582622 0.265287 -0.172384
C15   C     C_R   0.029540 0.627841 0.205730 -0.098715
C16   C     C_R   0.502579 0.200421 0.407376 -0.160106
C17   C     C_R   0.132415 0.719724 0.257487 -0.107680
C18   C     C_R   0.950494 0.576961 0.444725 -0.248503
C19   C     C_R   0.928052 0.550354 0.517210 0.032351
C20   C     C_R   0.995943 0.528779 0.588259 -0.157996
C21   C     C_R   0.078386 0.519622 0.574072 0.468019
C22   C     C_R   0.103757 0.552118 0.504996 -0.053315
C23   C     C_R   0.560821 0.195806 0.496899 0.082852
C24   C     C_R   0.042325 0.583899 0.441929 -0.041299
C25   C     C_R   0.067290 0.621926 0.789054 -0.120255
C26   C     C_R   0.063590 0.624671 0.880952 -0.142880
C27   C     C_R   0.984968 0.533179 0.869298 -0.090961
C28   C     C_R   0.290931 0.588853 0.591708 0.029634
C29   C     C_R   0.910509 0.438703 0.765911 -0.111340
C30   C     C_R   0.913536 0.435332 0.673398 -0.160597
C31   C     C_R   0.991351 0.527832 0.684486 0.116074
C32   C     C_R   0.615088 0.505560 0.000316 0.261843
C33   C     C_R   0.595925 0.581460 0.974987 0.088755
C34   C     C_R   0.194661 0.549477 0.500625 0.059885
C35   C     C_R   0.588587 0.661483 0.048983 -0.243100
C36   C     C_R   0.567683 0.643851 0.126448 -0.209387
C37   C     C_R   0.560065 0.549609 0.131099 0.053935
C38   C     C_R   0.597947 0.490358 0.078150 0.091305
C39   C     C_3   0.550700 0.368713 0.014533 -0.578966
C40   C     C_R   0.590778 0.288051 0.589545 -0.133360
C41   C     C_3   0.568792 0.384898 0.927929 -0.412336
C42   C     C_R   0.542734 0.926024 0.394323 0.169785
C43   C     C_R   0.584645 0.927335 0.494053 0.049031
C44   C     C_R   0.660381 0.030715 0.590229 -0.167187
C45   C     C_R   0.465222 0.723218 0.408664 -0.225885
C46   C     C_R   0.664587 0.124835 0.589975 -0.221680
C47   C     C_R   0.596344 0.116213 0.492878 0.026780
C48   C     C_R   0.549342 0.019943 0.393944 0.162873
C49   C     C_3   0.440819 0.957652 0.290530 -0.529638
C50   C     C_3   0.433224 0.854752 0.290351 -0.529675
C51   C     C_R   0.972171 0.070637 0.130605 0.106857
C52   C     C_R   0.196436 0.495430 0.408541 -0.151997
C53   C     C_R   0.071656 0.072344 0.171202 0.085846
C54   C     C_R   0.067615 0.970385 0.137076 -0.204932
C55   C     C_R   0.972908 0.875283 0.044215 -0.178898
C56   C     C_R   0.813414 0.563541 0.596219 -0.114620
C57   C     C_R   0.882347 0.882262 0.985614 0.073818
C58   C     C_R   0.879838 0.977610 0.037602 0.042494
C59   C     C_3   0.840914 0.043127 0.995700 0.360217
C60   C     C_3   0.940120 0.144810 0.098568 -0.642091
C61   C     C_R   0.499296 0.587928 0.800974 0.448042
C62   C     C_R   0.277000 0.184952 0.250450 -0.124727
C63   C     C_R   0.175438 0.174396 0.226720 0.071118
C64   C     C_R   0.542816 0.449903 0.230107 -0.130410
C65   C     C_R   0.707647 0.796338 0.806798 -0.016114
C66   C     C_R   0.800966 0.709693 0.804242 -0.159950
H1    H     H_    0.128467 0.301352 0.256342 0.115985
H2    H     H_    0.972203 0.592069 0.119625 0.116742
H3    H     H_    0.898242 0.596110 0.393453 0.145154
H4    H     H_    0.128248 0.693599 0.798910 0.116998
H5    H     H_    0.121457 0.697766 0.961103 0.113232
H6    H     H_    0.981905 0.535320 0.940403 0.107287
H7    H     H_    0.850596 0.368472 0.758061 0.102731
H8    H     H_    0.854863 0.361945 0.593539 0.124473
H9    H     H_    0.587197 0.729784 0.039959 0.161780
H10   H     H_    0.483710 0.153849 0.324652 0.104084
H11   H     H_    0.603304 0.340998 0.055565 0.196911
H12   H     H_    0.585807 0.408949 0.212166 0.102192
H13   H     H_    0.463060 0.321249 0.986695 0.215476
H14   H     H_    0.631130 0.365650 0.919170 0.216526
H15   H     H_    0.491398 0.346568 0.849651 0.182945
H16   H     H_    0.706627 0.040783 0.668681 0.160376
H17   H     H_    0.709331 0.199420 0.668073 0.124417
H18   H     H_    0.378219 0.973996 0.302499 0.196523
H19   H     H_    0.447759 0.962766 0.221346 0.194353
H20   H     H_    0.319478 0.644929 0.675688 0.165699
H21   H     H_    0.435526 0.800472 0.220887 0.191140
H22   H     H_    0.140308 0.965578 0.172065 0.120612
H23   H     H_    0.672300 0.841259 0.838173 0.148422
H24   H     H_    0.976365 0.800985 0.012101 0.126415
H25   H     H_    0.995782 0.194758 0.080252 0.224913
H26   H     H_    0.919655 0.191484 0.154789 0.168769
H27   H     H_    0.137857 0.465570 0.324559 0.109861
H28   H     H_    0.297736 0.121167 0.239166 0.093854
H29   H     H_    0.427342 0.701356 0.324981 0.136567
H30   H     H_    0.874747 0.619466 0.681787 0.119996
H31   H     H_    0.699148 0.917484 0.710426 0.325088
H32   H     H_    0.716358 0.490774 0.795549 0.308204
H33   H     H_    0.920034 0.511803 0.224323 0.112625
H34   H     H_    0.852985 0.678045 0.831746 0.113352
H35   H     H_    0.094763 0.437260 0.650393 0.326028
H36   H     H_    0.549365 0.697947 0.175536 0.133825
H37   H     H_    0.365590 0.813517 0.301119 0.198387
H38   H     H_    0.828102 0.086107 0.887307 0.322632
H39   H     H_    0.761647 0.031555 0.987789 0.061433
H40   H     H_    0.648030 0.316733 0.673209 0.103527
H41   H     H_    0.432941 0.634692 0.879452 0.320159
H42   H     H_    0.403259 0.573496 0.193064 0.091659
H43   H     H_    0.711368 0.410140 0.332922 0.095972
H44   H     H_    0.154656 0.755081 0.211443 0.103266
H45   H     H_    0.285291 0.838540 0.409629 0.120112
H46   H     H_    0.235173 0.759004 0.515039 0.111352
N1    N     N_R   0.291070 0.347930 0.293870 -0.042633
N2    N     N_R   0.497240 0.291100 0.443210 -0.038078
N3    N     N_R   0.347890 0.554050 0.556810 -0.053000
N4    N     N_R   0.554050 0.347900 0.556830 -0.046828
N5    N     N_R   0.291070 0.497250 0.443190 -0.049980
N6    N     N_R   0.497240 0.554030 0.706140 -0.094342
N7    N     N_R   0.347890 0.291110 0.293870 -0.041832
N8    N     N_R   0.445950 0.652100 0.443170 -0.063965
N9    N     N_R   0.708930 0.502750 0.556810 -0.046541
N10   N     N_R   0.502760 0.445970 0.293860 -0.040773
N11   N     N_R   0.652110 0.708890 0.706130 -0.060810
N12   N     N_R   0.708930 0.652070 0.706130 -0.057618
N13   N     N_R   0.445950 0.502780 0.293850 -0.036713
N14   N     N_R   0.502760 0.708900 0.556790 -0.081286
N15   N     N_R   0.652110 0.445950 0.443190 -0.040184
N16   N     N_R   0.554050 0.497220 0.706150 -0.127688
Ni1   Ni    Ni4+2 0.369690 0.500010 0.369700 0.210304
Ni2   Ni    Ni4+2 0.630310 0.499990 0.630300 0.197410
Ni3   Ni    Ni4+2 0.500000 0.369720 0.369720 0.207090
Ni4   Ni    Ni4+2 0.500000 0.630280 0.630280 0.253989
O1    O     O_3   0.624915 0.896128 0.697756 -0.786117
O2    O     O_3   0.691297 0.501212 0.848542 -0.783683
O3    O     O_3   0.136231 0.479753 0.626561 -0.763266
O4    O     O_3   0.847447 0.033738 0.903151 -0.740929
O5    O     O_3   0.456220 0.652049 0.830979 -0.780732

loop_
_geom_bond_atom_site_label_1
_geom_bond_atom_site_label_2
_ccdc_geom_bond_type
C25   C31   A    
C6    C45   A    
N11   Ni4   S    
C27   C29   A    
C53   C63   S    
N2    Ni3   S    
C54   C55   A    
C35   C36   A    
H31   O1    S    
N9    Ni2   S    
C3    C6    A    
C17   H44   S    
C41   H14   S    
C3    N14   A    
C14   H33   S    
C39   C41   S    
C40   N4    A    
C53   C54   A    
C65   H23   S    
C35   H9    S    
C26   C27   A    
C29   C30   A    
N1    Ni1   S    
C18   C24   A    
C39   H11   S    
C49   H18   S    
C4    O2    S    
C36   C37   A    
C37   C38   A    
N9    N15   A    
C55   H24   S    
C44   H16   S    
C30   C31   A    
C30   H8    S    
N8    N14   A    
C29   H7    S    
C10   C17   A    
C23   C40   A    
C59   O4    S    
C36   H36   S    
C18   C19   A    
C66   H34   S    
C9    C66   A    
C1    H1    S    
N1    N7    A    
N6    N16   A    
C19   C20   A    
N3    N5    A    
N7    Ni3   S    
C32   C41   S    
C32   C38   A    
C4    C12   A    
N5    Ni1   S    
C9    C57   S    
C52   N5    A    
C18   H3    S    
C60   H26   S    
C61   N6    A    
C28   C34   A    
C59   C60   S    
C13   C14   A    
C26   H5    S    
C1    N1    A    
C7    C56   A    
C1    C63   A    
C44   C46   A    
N15   Ni3   S    
N3    Ni4   S    
H35   O3    S    
C22   C34   S    
C23   C47   S    
C4    N16   A    
N8    Ni1   S    
C49   H19   S    
N11   N12   A    
C5    C7    A    
C25   C26   A    
C13   C24   S    
C16   N2    A    
C3    O1    S    
C39   H13   S    
H41   O5    S    
C43   C44   A    
C62   C63   A    
C28   N3    A    
C47   C48   A    
N14   Ni4   S    
C41   H15   S    
C5    N15   A    
N12   Ni2   S    
C52   H27   S    
C59   H39   S    
C51   C58   A    
C42   C48   A    
C62   N7    A    
C50   H21   S    
C42   C50   S    
C45   N8    A    
C48   C49   S    
C8    C64   A    
C16   C23   A    
C7    C19   S    
C6    C43   S    
C62   H28   S    
C28   H20   S    
C66   N12   A    
C8    C37   S    
C45   H29   S    
N10   Ni3   S    
C40   H40   S    
C60   H25   S    
C15   C17   A    
C46   C47   A    
H38   O4    S    
C11   H46   S    
C16   H10   S    
C64   H12   S    
C2    C8    A    
N16   Ni2   S    
N2    N4    A    
C10   H45   S    
C51   C60   S    
H32   O2    S    
C34   C52   A    
C56   N9    A    
N10   N13   A    
C55   C57   A    
C58   C59   S    
C32   C33   A    
C54   H22   S    
C12   C61   A    
C11   C13   A    
C61   O5    S    
C57   C58   A    
C38   C39   S    
C5    H43   S    
C64   N10   A    
C15   H2    S    
C2    H42   S    
C33   C35   A    
C22   C24   A    
C65   N11   A    
C56   H30   S    
C9    C65   A    
N6    Ni4   S    
C10   C11   A    
C46   H17   S    
C2    N13   A    
N13   Ni1   S    
C50   H37   S    
N4    Ni2   S    
C20   C21   A    
C49   C50   S    
C42   C43   A    
C14   C15   A    
C25   H4    S    
C51   C53   A    
C12   C33   S    
C21   C22   A    
C21   O3    S    
C27   H6    S    
C20   C31   S    
