data_mof_unit_46158.cif
_audit_creation_date              2012-12-11T15:22:22-0500
_audit_creation_method            fapswitch 2.2
_symmetry_space_group_name_H-M    P1
_symmetry_Int_Tables_number       1
_space_group_crystal_system       triclinic
_cell_length_a                    22.442119
_cell_length_b                    12.977502
_cell_length_c                    26.955841
_cell_angle_alpha                 89.912819
_cell_angle_beta                  90.717739
_cell_angle_gamma                 89.777629
_cell_volume                      7850.0056373

loop_
_atom_site_label
_atom_site_type_symbol
_atom_type_description
_atom_site_fract_x
_atom_site_fract_y
_atom_site_fract_z
_atom_type_partial_charge
C1    C     C_R   0.720627 0.344696 0.178109 0.543030
C2    C     C_R   0.279682 0.344072 0.822106 0.535599
C3    C     C_R   0.220630 0.844702 0.178112 0.541610
C4    C     C_R   0.779680 0.844075 0.822105 0.534259
C5    C     C_R   0.431565 0.158679 0.881205 -0.006735
C6    C     C_R   0.517578 0.163230 0.131447 -0.006610
C7    C     C_R   0.931561 0.658679 0.881206 -0.006175
C8    C     C_R   0.017576 0.663232 0.131448 -0.006461
C9    C     C_R   0.507997 0.257381 0.106624 -0.136450
C10   C     C_R   0.437454 0.253668 0.905962 -0.132022
C11   C     C_R   0.008002 0.757382 0.106623 -0.136308
C12   C     C_R   0.937459 0.753669 0.905961 -0.131798
C13   C     C_R   0.485141 0.258250 0.057881 0.015169
C14   C     C_R   0.450582 0.256210 0.956947 0.014779
C15   C     C_R   0.985145 0.758252 0.057880 0.015170
C16   C     C_R   0.950585 0.756212 0.956946 0.014809
C17   C     C_R   0.472382 0.163917 0.034017 0.064027
C18   C     C_R   0.455959 0.162804 0.983505 0.063545
C19   C     C_R   0.972376 0.663920 0.034019 0.064051
C20   C     C_R   0.955952 0.662807 0.983507 0.063533
C21   C     C_R   0.477711 0.351027 0.031630 -0.140082
C22   C     C_R   0.460095 0.350046 0.981617 -0.137511
C23   C     C_R   0.977724 0.851029 0.031627 -0.140032
C24   C     C_R   0.960107 0.850048 0.981614 -0.137406
C25   C     C_R   0.740679 0.953314 0.131060 0.022417
C26   C     C_R   0.258422 0.953241 0.868929 0.023911
C27   C     C_R   0.240680 0.453310 0.131061 0.022464
C28   C     C_R   0.758411 0.453202 0.868918 0.024856
C29   C     C_R   0.796209 0.959774 0.107933 -0.131335
C30   C     C_R   0.205402 0.973621 0.894273 -0.126499
C31   C     C_R   0.296212 0.459762 0.107935 -0.131401
C32   C     C_R   0.705385 0.473560 0.894256 -0.126533
C33   C     C_R   0.801086 0.937575 0.057601 -0.120109
C34   C     C_R   0.201830 0.953940 0.944867 -0.120836
C35   C     C_R   0.301091 0.437556 0.057605 -0.120113
C36   C     C_R   0.701806 0.453861 0.944848 -0.120995
C37   C     C_R   0.750353 0.909940 0.029659 0.036392
C38   C     C_R   0.251396 0.914561 0.971072 0.040095
C39   C     C_R   0.250358 0.409922 0.029662 0.036401
C40   C     C_R   0.751369 0.414482 0.971056 0.040086
C41   C     C_R   0.695833 0.896489 0.053671 -0.122079
C42   C     C_R   0.302442 0.885721 0.944751 -0.116435
C43   C     C_R   0.195837 0.396477 0.053672 -0.122054
C44   C     C_R   0.802420 0.385651 0.944737 -0.116572
C45   C     C_R   0.552779 0.157378 0.177906 0.548996
C46   C     C_R   0.418896 0.153806 0.827510 0.566288
C47   C     C_R   0.052779 0.657378 0.177906 0.548563
C48   C     C_R   0.918894 0.653806 0.827510 0.566223
C49   C     C_R   0.691162 0.917048 0.104019 -0.127357
C50   C     C_R   0.305619 0.903744 0.893971 -0.132344
C51   C     C_R   0.191163 0.417044 0.104019 -0.127316
C52   C     C_R   0.805604 0.403694 0.893959 -0.132390
C53   C     C_R   0.720770 0.822927 0.950765 -0.118872
C54   C     C_R   0.279019 0.822606 0.049491 -0.119060
C55   C     C_R   0.220776 0.322911 0.950767 -0.118860
C56   C     C_R   0.778995 0.322546 0.049481 -0.119058
C57   C     C_R   0.725114 0.811269 0.899718 -0.124620
C58   C     C_R   0.273922 0.809225 0.100351 -0.125107
C59   C     C_R   0.225118 0.311258 0.899720 -0.124736
C60   C     C_R   0.773906 0.309185 0.100343 -0.125231
C61   C     C_R   0.793844 0.954780 0.896557 -0.128538
C62   C     C_R   0.211926 0.962163 0.105127 -0.125854
C63   C     C_R   0.293851 0.454766 0.896561 -0.128118
C64   C     C_R   0.711907 0.462120 0.105111 -0.125860
C65   C     C_R   0.788713 0.967528 0.947610 -0.117160
C66   C     C_R   0.218399 0.977216 0.054267 -0.114545
C67   C     C_R   0.288721 0.467508 0.947614 -0.117054
C68   C     C_R   0.718372 0.477153 0.054248 -0.114491
C69   C     C_R   0.753474 0.899764 0.975331 0.039599
C70   C     C_R   0.249988 0.905129 0.025649 0.039793
C71   C     C_R   0.253481 0.399744 0.975334 0.039591
C72   C     C_R   0.749959 0.405058 0.025634 0.039805
C73   C     C_R   0.763200 0.874919 0.872412 0.024599
C74   C     C_R   0.238328 0.876416 0.128239 0.024755
C75   C     C_R   0.263204 0.374910 0.872415 0.024637
C76   C     C_R   0.738316 0.376387 0.128230 0.024383
C77   C     C_R   0.529574 0.168715 0.371758 0.021251
C78   C     C_R   0.473151 0.170818 0.629609 0.021494
C79   C     C_R   0.026310 0.669328 0.370314 0.022886
C80   C     C_R   0.970448 0.669194 0.628368 0.021216
C81   C     C_R   0.536512 0.261493 0.398060 -0.129374
C82   C     C_R   0.459091 0.258396 0.600938 -0.125929
C83   C     C_R   0.034609 0.760466 0.397580 -0.126149
C84   C     C_R   0.958753 0.759221 0.600774 -0.129130
C85   C     C_R   0.526608 0.264769 0.448922 -0.123512
C86   C     C_R   0.472573 0.261342 0.550771 -0.120746
C87   C     C_R   0.022037 0.763115 0.447963 -0.120773
C88   C     C_R   0.969193 0.761679 0.550038 -0.123410
C89   C     C_R   0.731430 0.001304 0.179609 0.542189
C90   C     C_R   0.268430 0.000908 0.820337 0.545515
C91   C     C_R   0.231430 0.501304 0.179608 0.541889
C92   C     C_R   0.768428 0.500900 0.820335 0.536024
C93   C     C_R   0.509023 0.175652 0.474272 0.034107
C94   C     C_R   0.501050 0.177371 0.528476 0.034971
C95   C     C_R   0.000227 0.675131 0.471840 0.035017
C96   C     C_R   0.992443 0.674790 0.526086 0.034164
C97   C     C_R   0.498565 0.084735 0.447467 -0.122896
C98   C     C_R   0.519306 0.093221 0.557951 -0.125530
C99   C     C_R   0.987551 0.586563 0.443767 -0.125162
C100  C     C_R   0.007833 0.587200 0.554238 -0.120567
C101  C     C_R   0.508848 0.081122 0.396669 -0.126673
C102  C     C_R   0.505160 0.089745 0.608204 -0.139675
C103  C     C_R   0.000678 0.583567 0.393382 -0.134893
C104  C     C_R   0.996480 0.584064 0.604935 -0.126492
C105  C     C_R   0.744211 0.950712 0.370370 0.004120
C106  C     C_R   0.272472 0.000862 0.620209 0.001840
C107  C     C_R   0.241797 0.454067 0.371276 0.003805
C108  C     C_R   0.755903 0.450672 0.629697 0.003815
C109  C     C_R   0.703918 0.878886 0.389476 -0.111255
C110  C     C_R   0.322476 0.957660 0.597205 -0.110940
C111  C     C_R   0.193893 0.406005 0.394824 -0.110916
C112  C     C_R   0.796643 0.379437 0.610372 -0.111087
C113  C     C_R   0.708390 0.846444 0.439240 0.008932
C114  C     C_R   0.320799 0.931469 0.546882 0.007070
C115  C     C_R   0.195747 0.386530 0.445921 0.004988
C116  C     C_R   0.791973 0.347089 0.560648 0.009103
C117  C     C_R   0.753368 0.891640 0.469433 0.028935
C118  C     C_R   0.268003 0.954555 0.519855 0.029811
C119  C     C_R   0.248387 0.413392 0.472317 0.028875
C120  C     C_R   0.746261 0.391639 0.530704 0.028834
C121  C     C_R   0.796031 0.956653 0.448995 -0.140512
C122  C     C_R   0.218102 0.996587 0.542957 -0.143392
C123  C     C_R   0.297805 0.453348 0.447897 -0.139624
C124  C     C_R   0.703227 0.455996 0.551402 -0.139499
C125  C     C_R   0.791996 0.985041 0.399748 -0.139406
C126  C     C_R   0.219950 0.018324 0.593015 -0.148787
C127  C     C_R   0.294629 0.473578 0.397602 -0.141840
C128  C     C_R   0.707525 0.484386 0.600599 -0.137701
C129  C     C_R   0.746650 0.965372 0.553796 -0.124089
C130  C     C_R   0.253154 0.008493 0.432731 -0.123683
C131  C     C_R   0.261818 0.485584 0.556898 -0.123776
C132  C     C_R   0.751438 0.465939 0.446213 -0.123990
C133  C     C_R   0.720700 0.345680 0.322280 0.532421
C134  C     C_R   0.278843 0.347150 0.678343 0.533462
C135  C     C_R   0.221548 0.847984 0.320949 0.537906
C136  C     C_R   0.779300 0.845677 0.677744 0.533953
C137  C     C_R   0.753806 0.956295 0.605045 -0.142600
C138  C     C_R   0.240950 0.983044 0.383575 -0.135811
C139  C     C_R   0.268498 0.470714 0.607920 -0.134620
C140  C     C_R   0.744554 0.456760 0.394952 -0.142526
C141  C     C_R   0.776954 0.774441 0.594633 -0.111241
C142  C     C_R   0.248026 0.801109 0.405218 -0.120697
C143  C     C_R   0.256237 0.286770 0.595520 -0.121632
C144  C     C_R   0.724288 0.274163 0.405497 -0.109895
C145  C     C_R   0.771321 0.784051 0.543684 -0.133094
C146  C     C_R   0.258063 0.826355 0.454190 -0.132758
C147  C     C_R   0.251668 0.300831 0.545032 -0.131712
C148  C     C_R   0.729528 0.283870 0.456462 -0.132236
C149  C     C_R   0.755290 0.879027 0.523159 0.018470
C150  C     C_R   0.261772 0.929760 0.467810 0.022643
C151  C     C_R   0.253219 0.400171 0.525663 0.020453
C152  C     C_R   0.744060 0.379275 0.476943 0.018586
C153  C     C_R   0.768390 0.860363 0.625311 0.038892
C154  C     C_R   0.238930 0.879247 0.370045 0.036730
C155  C     C_R   0.264794 0.370885 0.627150 0.032951
C156  C     C_R   0.731645 0.360387 0.374719 0.039805
C157  C     C_R   0.554779 0.158916 0.321896 0.540106
C158  C     C_R   0.445784 0.159111 0.678481 0.543773
C159  C     C_R   0.054123 0.659004 0.321502 0.541889
C160  C     C_R   0.945261 0.658896 0.678160 0.550901
C161  C     C_R   0.732105 0.001811 0.322918 0.534995
C162  C     C_R   0.277918 0.036999 0.671180 0.546730
C163  C     C_R   0.231948 0.501798 0.322872 0.538733
C164  C     C_R   0.767946 0.501749 0.677080 0.538022
C165  C     C_R   0.499767 0.070712 0.108711 -0.132633
C166  C     C_R   0.435332 0.066529 0.908362 -0.128932
C167  C     C_R   0.999756 0.570716 0.108715 -0.132606
C168  C     C_R   0.935314 0.566531 0.908366 -0.128539
C169  C     C_R   0.478644 0.070098 0.059990 0.012048
C170  C     C_R   0.447176 0.067816 0.959176 0.015502
C171  C     C_R   0.978630 0.570103 0.059994 0.012060
C172  C     C_R   0.947158 0.567820 0.959180 0.015493
C173  C     C_R   0.452081 0.975265 0.985735 -0.132596
C174  C     C_R   0.467125 0.976431 0.035984 -0.133492
C175  C     C_R   0.952052 0.475271 0.985742 -0.132517
C176  C     C_R   0.967099 0.476437 0.035991 -0.133440
Cr1   Cr    Cr6+3 0.756570 0.170940 0.251190 1.011356
Cr2   Cr    Cr6+3 0.243430 0.170940 0.748810 1.006635
Cr3   Cr    Cr6+3 0.256570 0.670940 0.251190 1.011189
Cr4   Cr    Cr6+3 0.743430 0.670940 0.748810 1.009329
Cr5   Cr    Cr6+3 0.623740 0.299110 0.249580 1.012261
Cr6   Cr    Cr6+3 0.376260 0.299110 0.750420 1.009265
Cr7   Cr    Cr6+3 0.123740 0.799110 0.249580 1.013671
Cr8   Cr    Cr6+3 0.876260 0.799110 0.750420 1.012161
Cr9   Cr    Cr6+3 0.625990 0.036240 0.250480 1.005715
Cr10  Cr    Cr6+3 0.374010 0.036240 0.749520 1.004335
Cr11  Cr    Cr6+3 0.125990 0.536240 0.250480 1.005631
Cr12  Cr    Cr6+3 0.874010 0.536240 0.749520 1.004180
H1    H     H_    0.429882 0.993184 0.889786 0.122826
H2    H     H_    0.506088 0.997694 0.127705 0.128398
H3    H     H_    0.929856 0.493187 0.889791 0.122829
H4    H     H_    0.006071 0.497699 0.127711 0.128408
H5    H     H_    0.823630 0.004597 0.876337 0.122388
H6    H     H_    0.184460 0.015068 0.125962 0.120541
H7    H     H_    0.323637 0.504583 0.876341 0.123042
H8    H     H_    0.684442 0.515033 0.125944 0.120603
H9    H     H_    0.655907 0.875795 0.033100 0.104178
H10   H     H_    0.341108 0.853865 0.963615 0.095672
H11   H     H_    0.155911 0.375784 0.033101 0.104224
H12   H     H_    0.841084 0.353794 0.963604 0.095600
H13   H     H_    0.647650 0.911779 0.120770 0.130461
H14   H     H_    0.346521 0.885126 0.875069 0.114808
H15   H     H_    0.147650 0.411781 0.120768 0.130514
H16   H     H_    0.846510 0.385088 0.875060 0.114351
H17   H     H_    0.553150 0.330085 0.380049 0.134860
H18   H     H_    0.433933 0.321899 0.616342 0.138948
H19   H     H_    0.054680 0.827700 0.380900 0.135721
H20   H     H_    0.937836 0.825659 0.617627 0.137944
H21   H     H_    0.542729 0.028601 0.541769 0.108341
H22   H     H_    0.483415 0.015929 0.465965 0.098619
H23   H     H_    0.027656 0.520481 0.536865 0.100790
H24   H     H_    0.969067 0.518636 0.461066 0.106950
H25   H     H_    0.516813 0.021870 0.629710 0.121436
H26   H     H_    0.503143 0.008594 0.377385 0.124726
H27   H     H_    0.005902 0.513809 0.625364 0.124456
H28   H     H_    0.993463 0.512634 0.373090 0.121865
H29   H     H_    0.535098 0.335892 0.468710 0.102872
H30   H     H_    0.457791 0.326955 0.528934 0.103314
H31   H     H_    0.032348 0.832347 0.468682 0.103312
H32   H     H_    0.956626 0.830036 0.529252 0.103613
H33   H     H_    0.667905 0.852602 0.365792 0.120159
H34   H     H_    0.362928 0.946974 0.618737 0.137297
H35   H     H_    0.153958 0.390168 0.373486 0.129386
H36   H     H_    0.833099 0.353520 0.633843 0.121048
H37   H     H_    0.735570 0.039790 0.537821 0.107867
H38   H     H_    0.254390 0.088735 0.443756 0.110393
H39   H     H_    0.264177 0.562740 0.541654 0.109481
H40   H     H_    0.761415 0.540629 0.462115 0.107671
H41   H     H_    0.748248 0.023134 0.628576 0.107270
H42   H     H_    0.232671 0.043283 0.356465 0.110673
H43   H     H_    0.276983 0.535830 0.632042 0.115613
H44   H     H_    0.749058 0.523870 0.371378 0.105797
H45   H     H_    0.445656 0.901870 0.967383 0.095041
H46   H     H_    0.471864 0.903871 0.055624 0.101106
H47   H     H_    0.945619 0.401876 0.967392 0.094960
H48   H     H_    0.971832 0.403878 0.055632 0.101125
H49   H     H_    0.780965 0.718349 0.520351 0.106234
H50   H     H_    0.261709 0.765459 0.481643 0.106908
H51   H     H_    0.248005 0.234183 0.521035 0.109293
H52   H     H_    0.720802 0.217808 0.479830 0.105745
H53   H     H_    0.789987 0.700492 0.610190 0.124979
H54   H     H_    0.244519 0.720469 0.395129 0.131752
H55   H     H_    0.256441 0.209414 0.609878 0.121162
H56   H     H_    0.712399 0.199859 0.390012 0.126099
H57   H     H_    0.831211 0.989108 0.471941 0.106466
H58   H     H_    0.177464 0.012111 0.522037 0.111849
H59   H     H_    0.338319 0.471845 0.468266 0.109378
H60   H     H_    0.667499 0.487948 0.528697 0.106990
H61   H     H_    0.824005 0.039872 0.385819 0.137762
H62   H     H_    0.181055 0.052431 0.609921 0.136603
H63   H     H_    0.332253 0.510008 0.380028 0.132872
H64   H     H_    0.675144 0.538696 0.614709 0.138739
H65   H     H_    0.433139 0.325339 0.885503 0.132944
H66   H     H_    0.521072 0.329096 0.124134 0.122938
H67   H     H_    0.933153 0.825340 0.885501 0.132945
H68   H     H_    0.021084 0.829096 0.124131 0.123052
H69   H     H_    0.455582 0.422506 0.961875 0.101467
H70   H     H_    0.486736 0.424181 0.049465 0.100640
H71   H     H_    0.955603 0.922507 0.961871 0.101452
H72   H     H_    0.986757 0.924183 0.049460 0.100676
H73   H     H_    0.835147 0.986833 0.128090 0.122595
H74   H     H_    0.167820 0.010215 0.875698 0.127171
H75   H     H_    0.335149 0.486821 0.128093 0.122396
H76   H     H_    0.667804 0.510157 0.875680 0.126821
H77   H     H_    0.693670 0.769032 0.971186 0.098760
H78   H     H_    0.303171 0.765057 0.028698 0.098485
H79   H     H_    0.193675 0.269016 0.971188 0.098733
H80   H     H_    0.803146 0.264991 0.028691 0.098411
H81   H     H_    0.701694 0.747811 0.882285 0.133627
H82   H     H_    0.294251 0.741503 0.117058 0.135771
H83   H     H_    0.201697 0.247803 0.882286 0.133400
H84   H     H_    0.794238 0.241471 0.117055 0.135718
H85   H     H_    0.844086 0.945331 0.040219 0.108770
H86   H     H_    0.160824 0.972512 0.963667 0.102638
H87   H     H_    0.344092 0.445308 0.040224 0.108754
H88   H     H_    0.660796 0.472424 0.963645 0.102554
H89   H     H_    0.813083 0.029345 0.965480 0.097630
H90   H     H_    0.197296 0.043766 0.037195 0.100227
H91   H     H_    0.313092 0.529323 0.965485 0.097738
H92   H     H_    0.697264 0.543694 0.037173 0.100266
O1    O     O_R   0.769900 0.064540 0.196060 -0.523221
O2    O     O_R   0.230100 0.064540 0.803940 -0.517725
O3    O     O_R   0.269900 0.564540 0.196060 -0.523803
O4    O     O_R   0.730100 0.564540 0.803940 -0.521889
O5    O     O_R   0.574760 0.239320 0.300850 -0.506571
O6    O     O_R   0.425240 0.239320 0.699150 -0.498684
O7    O     O_R   0.074760 0.739320 0.300850 -0.504759
O8    O     O_R   0.925240 0.739320 0.699150 -0.499402
O9    O     O_R   0.566290 0.069580 0.305400 -0.520258
O10   O     O_R   0.433710 0.069580 0.694600 -0.525726
O11   O     O_R   0.066290 0.569580 0.305400 -0.522340
O12   O     O_R   0.933710 0.569580 0.694600 -0.514282
O13   O     O_R   0.680760 0.993330 0.302620 -0.505314
O14   O     O_R   0.319240 0.993330 0.697380 -0.501618
O15   O     O_R   0.180760 0.493330 0.302620 -0.507300
O16   O     O_R   0.819240 0.493330 0.697380 -0.504894
O17   O     O_3   0.668770 0.168760 0.250420 -0.239088
O18   O     O_3   0.331230 0.168760 0.749580 -0.275211
O19   O     O_3   0.168770 0.668760 0.250420 -0.237248
O20   O     O_3   0.831230 0.668760 0.749580 -0.261894
O21   O     O_R   0.750800 0.274080 0.199250 -0.505295
O22   O     O_R   0.249200 0.274080 0.800750 -0.504922
O23   O     O_R   0.250800 0.774080 0.199250 -0.506205
O24   O     O_R   0.749200 0.774080 0.800750 -0.505275
O25   O     O_R   0.669990 0.371670 0.194150 -0.517870
O26   O     O_R   0.330010 0.371670 0.805850 -0.528670
O27   O     O_R   0.169990 0.871670 0.194150 -0.518874
O28   O     O_R   0.830010 0.871670 0.805850 -0.529833
O29   O     O_R   0.574600 0.238480 0.197800 -0.498909
O30   O     O_R   0.425400 0.238480 0.802200 -0.497090
O31   O     O_R   0.074600 0.738480 0.197800 -0.499184
O32   O     O_R   0.925400 0.738480 0.802200 -0.497948
O33   O     O_R   0.566130 0.068680 0.194240 -0.524728
O34   O     O_R   0.433870 0.068680 0.805760 -0.514300
O35   O     O_R   0.066130 0.568680 0.194240 -0.525060
O36   O     O_R   0.933870 0.568680 0.805760 -0.514860
O37   O     O_R   0.680610 0.992490 0.199570 -0.504671
O38   O     O_R   0.319390 0.992490 0.800430 -0.515854
O39   O     O_R   0.180610 0.492490 0.199570 -0.504580
O40   O     O_R   0.819390 0.492490 0.800430 -0.521751
O41   O     O_R   0.770060 0.065440 0.307230 -0.522459
O42   O     O_R   0.229940 0.065440 0.692770 -0.514494
O43   O     O_R   0.270060 0.565440 0.307230 -0.522074
O44   O     O_R   0.729940 0.565440 0.692770 -0.519364
O45   O     O_R   0.750960 0.274920 0.302300 -0.501538
O46   O     O_R   0.249040 0.274920 0.697700 -0.513042
O47   O     O_R   0.250960 0.774920 0.302300 -0.503232
O48   O     O_R   0.749040 0.774920 0.697700 -0.498207
O49   O     O_R   0.670160 0.372580 0.305320 -0.517509
O50   O     O_R   0.329840 0.372580 0.694680 -0.515468
O51   O     O_R   0.170160 0.872580 0.305320 -0.518834
O52   O     O_R   0.829840 0.872580 0.694680 -0.516259
C177  C     C_3   0.665353 0.768420 0.461267 -0.253637
C178  C     C_3   0.619478 0.721982 0.424885 -0.307494
C179  C     C_3   0.584585 0.635016 0.449115 -0.457316
H93   H     H_    0.614637 0.568932 0.457551 0.152845
H94   H     H_    0.563897 0.661889 0.483959 0.148618
H95   H     H_    0.548894 0.608312 0.423351 0.142845
H96   H     H_    0.587681 0.782901 0.412391 0.157427
H97   H     H_    0.642520 0.689361 0.392145 0.163511
H98   H     H_    0.691935 0.703492 0.476821 0.141264
H99   H     H_    0.641105 0.805704 0.492215 0.148383
C180  C     C_3   0.374344 0.883004 0.521124 -0.252628
C181  C     C_3   0.426502 0.850592 0.555271 -0.312152
C182  C     C_3   0.475025 0.794652 0.526548 -0.462654
H100  H     H_    0.457099 0.722725 0.509907 0.149371
H101  H     H_    0.492587 0.844495 0.496668 0.146552
H102  H     H_    0.512351 0.774172 0.552184 0.141273
H103  H     H_    0.446356 0.919554 0.572881 0.166933
H104  H     H_    0.410211 0.797964 0.584687 0.163672
H105  H     H_    0.359624 0.812306 0.501631 0.147158
H106  H     H_    0.390615 0.938088 0.492822 0.149129
C183  C     C_3   0.142093 0.342930 0.473250 -0.252885
C184  C     C_3   0.084147 0.333506 0.442624 -0.311028
C185  C     C_3   0.033307 0.293187 0.474210 -0.461771
H107  H     H_    0.044284 0.215010 0.488560 0.150307
H108  H     H_    0.025003 0.345433 0.505951 0.146016
H109  H     H_    0.991975 0.288615 0.451248 0.138873
H110  H     H_    0.071315 0.410191 0.427546 0.170862
H111  H     H_    0.090724 0.278819 0.411451 0.156995
H112  H     H_    0.153752 0.264996 0.487404 0.138582
H113  H     H_    0.132851 0.393497 0.505561 0.156899
C186  C     C_3   0.835491 0.269770 0.538370 -0.253577
C187  C     C_3   0.882796 0.225033 0.574202 -0.306908
C188  C     C_3   0.918682 0.139555 0.549504 -0.456917
H114  H     H_    0.889566 0.072566 0.541240 0.151144
H115  H     H_    0.938385 0.167622 0.514479 0.148031
H116  H     H_    0.955179 0.113780 0.574855 0.144946
H117  H     H_    0.913767 0.287089 0.586239 0.159313
H118  H     H_    0.860939 0.191440 0.607263 0.164141
H119  H     H_    0.809399 0.203939 0.523585 0.141070
H120  H     H_    0.858556 0.307170 0.506858 0.149055

loop_
_geom_bond_atom_site_label_1
_geom_bond_atom_site_label_2
_ccdc_geom_bond_type
C99   C103  A    
C7    C168  A    
C164  O44   A    
C55   C59   A    
C90   O2    A    
C142  C146  A    
C77   C101  A    
C19   C20   A    
Cr12  O40   S    
C53   C69   A    
C38   C70   S    
C177  C178  S    
C108  C164  S    
C124  H60   S    
Cr10  O18   S    
C37   C69   S    
C26   C50   A    
C95   C99   A    
C29   C33   A    
C100  C104  A    
C31   H75   S    
C32   H76   S    
C3    C74   S    
C9    C13   A    
C146  C150  A    
C131  C151  A    
C178  H96   S    
C12   C16   A    
C56   C72   A    
C169  C174  A    
C172  C175  A    
C141  C145  A    
C122  H58   S    
C108  C112  A    
C138  C154  A    
C6    C165  A    
C35   H87   S    
C21   C22   A    
C135  O47   A    
C112  H36   S    
C174  H46   S    
C41   C49   A    
Cr12  O12   S    
C50   H14   S    
C22   H69   S    
C25   C29   A    
C27   C31   A    
C28   C32   A    
Cr9   O9    S    
C179  H94   S    
C62   C66   A    
C167  C171  A    
C98   C102  A    
C47   O35   A    
C60   C76   A    
Cr6   O26   S    
C30   H74   S    
C157  O9    A    
C78   C82   A    
C102  H25   S    
C134  C155  S    
C54   C70   A    
C57   H81   S    
C16   C20   A    
Cr7   O51   S    
C180  H106  S    
C117  C149  S    
C11   H68   S    
C137  C153  A    
Cr1   O45   S    
C2    O22   A    
C182  H102  S    
C186  H119  S    
Cr3   O47   S    
C140  C156  A    
C20   C172  A    
C175  H47   S    
C132  C152  A    
C158  O10   A    
C130  C138  A    
C109  H33   S    
C58   H82   S    
C181  H103  S    
C148  H52   S    
C89   O1    A    
C84   C88   A    
C113  C177  S    
C68   H92   S    
Cr5   O17   S    
C26   C90   S    
C5    C46   S    
Cr4   O24   S    
C105  C125  A    
Cr2   O22   S    
C7    C48   S    
Cr3   O19   S    
C8    C47   S    
C107  C127  A    
C188  H114  S    
C136  C153  S    
C66   C70   A    
Cr2   O2    S    
C53   H77   S    
C144  H56   S    
C31   C35   A    
C125  H61   S    
C179  H93   S    
C61   C65   A    
C129  C137  A    
C130  H38   S    
C39   C71   S    
C139  H43   S    
C103  H28   S    
C36   H88   S    
C55   C71   A    
C2    C75   S    
Cr9   O37   S    
Cr10  O34   S    
C10   H65   S    
Cr11  O39   S    
C119  C123  A    
C46   O30   A    
C6    C9    A    
Cr2   O46   S    
C129  C149  A    
C64   C68   A    
C133  O49   A    
C184  H111  S    
C187  C188  S    
C48   O32   A    
C86   H30   S    
C57   C73   A    
C83   H19   S    
C123  C127  A    
C78   C158  S    
C146  H50   S    
C87   C95   A    
C130  C150  A    
C23   C24   A    
C27   C91   S    
C110  C114  A    
Cr9   O17   S    
C183  H112  S    
C162  O42   A    
C79   C103  A    
C11   C15   A    
Cr11  O19   S    
C160  O12   A    
C27   C51   A    
C159  O11   A    
C7    C12   A    
C98   H21   S    
C49   H13   S    
C30   C34   A    
C3    O27   A    
C138  H42   S    
C41   H9    S    
C10   C14   A    
C188  H116  S    
C178  C179  S    
C133  O45   A    
C142  H54   S    
C1    O25   A    
C108  C128  A    
C116  C120  A    
C187  H117  S    
C144  C156  A    
C147  C151  A    
C121  C125  A    
C84   H20   S    
C143  C155  A    
C139  C155  A    
C54   C58   A    
C17   C18   A    
C5    C166  A    
C142  C154  A    
C45   O33   A    
C4    C73   S    
Cr12  O16   S    
C42   C50   A    
C113  C117  A    
C185  H108  S    
C4    O28   A    
C23   H72   S    
C26   C30   A    
C115  C119  A    
C143  H55   S    
Cr9   O13   S    
C67   H91   S    
Cr10  O10   S    
C93   C97   A    
C82   H18   S    
Cr11  O15   S    
C58   C74   A    
C185  H107  S    
C105  C109  A    
C40   C72   S    
C1    C76   S    
C107  C111  A    
C148  C152  A    
C107  C163  S    
C177  H99   S    
C163  O15   A    
C44   H12   S    
C147  H51   S    
C171  C176  A    
C100  H23   S    
C13   C17   A    
C166  H1    S    
C14   C22   A    
C92   O4    A    
Cr3   O43   S    
Cr8   O20   S    
C141  C153  A    
C63   C75   A    
C64   H8    S    
C121  H57   S    
C48   O36   A    
C105  C161  S    
C37   C41   A    
C56   H80   S    
Cr5   O49   S    
C131  C139  A    
Cr12  O20   S    
C178  H97   S    
C40   C44   A    
C56   C60   A    
C181  C182  S    
C184  C185  S    
C18   C170  A    
C129  H37   S    
C114  C180  S    
C81   C85   A    
C83   C87   A    
C88   C96   A    
C6    C45   S    
C61   H5    S    
C78   C102  A    
C133  C156  S    
Cr6   O18   S    
Cr2   O18   S    
C112  C116  A    
C80   C84   A    
C183  C184  S    
C15   C19   A    
Cr3   O3    S    
C135  C154  S    
C80   C104  A    
C132  H40   S    
C79   C159  S    
C80   C160  S    
C94   C98   A    
C47   O31   A    
C4    O24   A    
C118  C150  S    
C89   O37   A    
C91   O39   A    
Cr1   O17   S    
C95   C96   S    
C173  H45   S    
C180  H105  S    
Cr10  O38   S    
C186  C187  S    
Cr11  O35   S    
Cr4   O4    S    
Cr5   O5    S    
C124  C128  A    
Cr7   O7    S    
C12   H67   S    
C165  C169  A    
Cr7   O27   S    
Cr7   O19   S    
C51   H15   S    
C181  H104  S    
C137  H41   S    
C53   C57   A    
C157  O5    A    
C61   C73   A    
C82   C86   A    
C141  H53   S    
C88   H32   S    
C52   H16   S    
C35   C39   A    
C8    C167  A    
Cr4   O44   S    
C42   H10   S    
C101  H26   S    
C111  H35   S    
C116  C186  S    
C140  H44   S    
C65   H89   S    
C63   H7    S    
C136  O48   A    
C110  H34   S    
C32   C36   A    
C164  O16   A    
C33   C37   A    
C2    O26   A    
C161  O13   A    
C104  H27   S    
C179  H95   S    
C132  C140  A    
C106  C126  A    
C25   C89   S    
C126  H62   S    
C45   O29   A    
Cr12  O36   S    
C79   C83   A    
C43   C51   A    
C65   C69   A    
C115  C183  S    
C67   C71   A    
C106  C162  S    
Cr10  O14   S    
C25   C49   A    
C186  H120  S    
Cr11  O11   S    
C131  H39   S    
C168  C172  A    
C134  O46   A    
Cr7   O31   S    
C62   C74   A    
C145  C149  A    
C170  C173  A    
C180  C181  S    
C93   C94   S    
C28   C52   A    
C14   C18   A    
C9    H66   S    
C144  C148  A    
C173  C174  A    
C143  C147  A    
C167  H4    S    
C34   H86   S    
C24   H71   S    
C128  H64   S    
C168  H3    S    
C33   H85   S    
C19   C171  A    
C38   C42   A    
C163  O43   A    
C188  H115  S    
Cr8   O28   S    
C17   C169  A    
C21   H70   S    
C184  H110  S    
C96   C100  A    
C187  H118  S    
C117  C121  A    
C85   H29   S    
C86   C94   A    
C175  C176  A    
Cr5   O25   S    
C29   H73   S    
Cr6   O30   S    
Cr8   O52   S    
C77   C81   A    
C68   C72   A    
C15   C23   A    
C161  O41   A    
C16   C24   A    
C1    O21   A    
Cr1   O41   S    
C54   H78   S    
C3    O23   A    
C165  H2    S    
C99   H24   S    
C119  C151  S    
C63   C67   A    
C120  C152  S    
C97   H22   S    
C13   C21   A    
C92   O40   A    
C36   C40   A    
C55   H79   S    
C90   O38   A    
C39   C43   A    
Cr6   O50   S    
C159  O7    A    
C145  H49   S    
C160  O8    A    
C122  C126  A    
C118  C122  A    
Cr6   O6    S    
C85   C93   A    
Cr4   O20   S    
Cr1   O21   S    
C64   C76   A    
C59   H83   S    
C28   C92   S    
C60   H84   S    
Cr3   O23   S    
C114  C118  A    
C183  H113  S    
Cr1   O1    S    
C87   H31   S    
C59   C75   A    
C81   H17   S    
C106  C110  A    
C158  O6    A    
C135  O51   A    
Cr5   O29   S    
C34   C38   A    
C43   H11   S    
C134  O50   A    
Cr4   O48   S    
C136  O52   A    
C109  C113  A    
Cr9   O33   S    
C5    C10   A    
C46   O34   A    
C123  H59   S    
C91   O3    A    
Cr2   O42   S    
C44   C52   A    
C182  H101  S    
C176  H48   S    
C8    C11   A    
C166  C170  A    
C66   H90   S    
C127  H63   S    
C177  H98   S    
C185  H109  S    
Cr8   O8    S    
C62   H6    S    
C111  C115  A    
Cr8   O32   S    
C182  H100  S    
C162  O14   A    
C97   C101  A    
C120  C124  A    
C77   C157  S    
