data_mof_unit_67215.cif
_audit_creation_date              2013-03-05T16:01:24-0500
_audit_creation_method            fapswitch 2.2
_symmetry_space_group_name_H-M    P1
_symmetry_Int_Tables_number       1
_space_group_crystal_system       triclinic
_cell_length_a                    20.810019
_cell_length_b                    20.897748
_cell_length_c                    8.962057
_cell_angle_alpha                 89.686012
_cell_angle_beta                  93.101059
_cell_angle_gamma                 90.516267
_cell_volume                      3891.52827678

loop_
_atom_site_label
_atom_site_type_symbol
_atom_site_description
_atom_site_fract_x
_atom_site_fract_y
_atom_site_fract_z
_atom_type_partial_charge
P1    P     P_3+3 0.136530 0.426510 0.931350 0.491499
P2    P     P_3+3 0.136530 0.573490 0.431350 0.480856
P3    P     P_3+3 0.636530 0.926510 0.931350 0.490755
P4    P     P_3+3 0.636530 0.073490 0.431350 0.444818
O1    O     O_2   0.130070 0.404060 0.104920 -0.312698
O2    O     O_2   0.130070 0.595940 0.604920 -0.369287
O3    O     O_2   0.630070 0.904060 0.104920 -0.317116
O4    O     O_2   0.630070 0.095940 0.604920 -0.340631
O5    O     O_3   0.075780 0.466370 0.861070 -0.450590
O6    O     O_3   0.075780 0.533630 0.361070 -0.439494
O7    O     O_3   0.575780 0.966370 0.861070 -0.431974
O8    O     O_3   0.575780 0.033630 0.361070 -0.458191
O9    O     O_3   0.022320 0.344950 0.359800 -0.428886
O10   O     O_3   0.022320 0.655050 0.859800 -0.429151
O11   O     O_3   0.522320 0.844950 0.359800 -0.427148
O12   O     O_3   0.522320 0.155050 0.859800 -0.425556
O13   O     O_2   0.130483 0.301034 0.286818 -0.396267
O14   O     O_2   0.123865 0.711302 0.779837 -0.394878
O15   O     O_2   0.632237 0.799206 0.294564 -0.400570
O16   O     O_2   0.624302 0.217823 0.797142 -0.397733
O17   O     O_3   0.207149 0.473046 0.948575 -0.536261
O18   O     O_3   0.206194 0.527967 0.427383 -0.561366
O19   O     O_3   0.705643 0.970185 0.982963 -0.506267
O20   O     O_3   0.706469 0.031861 0.462208 -0.576911
O21   O     O_3   0.049546 0.212509 0.352586 -0.572815
O22   O     O_3   0.044462 0.788822 0.891385 -0.564218
O23   O     O_3   0.547727 0.711044 0.348861 -0.567738
O24   O     O_3   0.538953 0.290301 0.895757 -0.567762
C1    C     C_3   0.976369 0.127684 0.419609 -0.997202
C2    C     C_3   0.963284 0.863001 0.938302 -1.003398
C3    C     C_3   0.475073 0.625030 0.416863 -1.020536
C4    C     C_3   0.455084 0.361838 0.945520 -1.004334
H1    H     H_    0.949880 0.105979 0.323156 0.246562
H2    H     H_    0.966281 0.889296 0.831074 0.256805
H3    H     H_    0.447423 0.603107 0.322166 0.245421
H4    H     H_    0.449231 0.385424 0.834989 0.247809
H5    H     H_    0.022383 0.101426 0.431217 0.250504
H6    H     H_    0.998170 0.886298 0.016612 0.265237
H7    H     H_    0.521263 0.598852 0.425456 0.261234
H8    H     H_    0.492979 0.390416 0.003695 0.268255
P5    P     P_3+3 0.863410 0.426100 0.379280 0.474480
P6    P     P_3+3 0.863410 0.573900 0.879280 0.485376
P7    P     P_3+3 0.363410 0.926100 0.379280 0.465598
P8    P     P_3+3 0.363410 0.073900 0.879280 0.492678
P9    P     P_3+3 0.917913 0.287097 0.916007 0.369295
P10   P     P_3+3 0.925589 0.719120 0.396728 0.361981
P11   P     P_3+3 0.417036 0.786973 0.916784 0.365791
P12   P     P_3+3 0.417588 0.214155 0.410630 0.365542
O25   O     O_2   0.869860 0.403670 0.205810 -0.277275
O26   O     O_2   0.869860 0.596330 0.705810 -0.283118
O27   O     O_2   0.369860 0.903670 0.205810 -0.270203
O28   O     O_2   0.369860 0.096330 0.705810 -0.283454
O29   O     O_3   0.977590 0.344880 0.951200 -0.399011
O30   O     O_3   0.977590 0.655120 0.451200 -0.396023
O31   O     O_3   0.477590 0.844880 0.951200 -0.401473
O32   O     O_3   0.477590 0.155120 0.451200 -0.399056
O33   O     O_2   0.869939 0.307726 0.031662 -0.326991
O34   O     O_2   0.870862 0.699987 0.498581 -0.353882
O35   O     O_2   0.371829 0.808057 0.037386 -0.326476
O36   O     O_2   0.367314 0.190448 0.518910 -0.366759
O37   O     O_3   0.804739 0.484880 0.347068 -0.560867
O38   O     O_3   0.801823 0.517112 0.850501 -0.554167
O39   O     O_3   0.304690 0.985032 0.349131 -0.598126
O40   O     O_3   0.302830 0.016207 0.848556 -0.538883
O41   O     O_3   0.943666 0.212398 0.993249 -0.602119
O42   O     O_3   0.947262 0.796874 0.469850 -0.588484
O43   O     O_3   0.441072 0.711211 0.989905 -0.600346
O44   O     O_3   0.436079 0.292168 0.483119 -0.591618
C5    C     C_3   0.001772 0.183885 0.948229 0.826574
C6    C     C_3   0.008227 0.828840 0.448007 0.799084
C7    C     C_3   0.500174 0.683667 0.948747 0.828495
C8    C     C_3   0.494036 0.326879 0.452242 0.794856
C9    C     C_3   0.996150 0.113183 0.998603 -0.912276
C10   C     C_3   0.994856 0.902107 0.462048 -0.961799
C11   C     C_3   0.497441 0.614403 0.009800 -0.921890
C12   C     C_3   0.477065 0.398911 0.470556 -0.976634
H9    H     H_    0.993377 0.110719 0.119873 0.245993
H10   H     H_    0.962929 0.911197 0.554833 0.228688
H11   H     H_    0.499096 0.615578 0.131598 0.255008
H12   H     H_    0.450160 0.406142 0.572399 0.230054
H13   H     H_    0.951785 0.090694 0.946871 0.227710
H14   H     H_    0.971969 0.922892 0.358973 0.240578
H15   H     H_    0.452122 0.590081 0.969168 0.231567
H16   H     H_    0.446850 0.417208 0.374342 0.241877
C13   C     C_3   0.765774 0.513368 0.977943 0.299165
C14   C     C_3   0.765312 0.487790 0.468875 0.279658
C15   C     C_3   0.265923 0.011693 0.974544 0.297478
C16   C     C_3   0.260112 0.980692 0.460901 0.292359
H17   H     H_    0.795186 0.491666 0.071087 0.153670
H18   H     H_    0.793538 0.504837 0.569376 0.147164
H19   H     H_    0.295104 0.990664 0.069066 0.147493
H20   H     H_    0.283994 0.991499 0.571622 0.126024
H21   H     H_    0.748766 0.561260 0.011225 -0.035395
H22   H     H_    0.743080 0.440450 0.491901 -0.012502
H23   H     H_    0.247543 0.059171 0.006791 -0.025837
H24   H     H_    0.237196 0.932495 0.462965 0.072520
C17   C     C_3   0.706546 0.471275 0.943605 0.020485
C18   C     C_3   0.710777 0.534585 0.431774 0.025033
C19   C     C_3   0.207779 0.968406 0.937986 0.013866
C20   C     C_3   0.207098 0.029226 0.427513 -0.043417
H25   H     H_    0.676263 0.492445 0.849862 0.089182
H26   H     H_    0.681654 0.518136 0.330954 0.077684
H27   H     H_    0.177051 0.989620 0.845127 0.153815
H28   H     H_    0.228143 0.078427 0.430279 0.151070
H29   H     H_    0.677140 0.469432 0.043320 0.100005
H30   H     H_    0.678452 0.535576 0.526313 0.097234
H31   H     H_    0.178287 0.964931 0.037367 0.091773
H32   H     H_    0.184448 0.020064 0.314060 0.107671
Ba1   Ba    Ba6+2 0.999980 0.452130 0.155200 1.493250
Ba2   Ba    Ba6+2 0.999980 0.547870 0.655200 1.495126
Ba3   Ba    Ba6+2 0.499980 0.952130 0.155200 1.497191
Ba4   Ba    Ba6+2 0.499980 0.047870 0.655200 1.494233
C21   C     C_3   0.199489 0.530804 0.023378 0.634795
C22   C     C_3   0.212982 0.480571 0.537072 0.660200
C23   C     C_3   0.731553 0.004665 0.868406 0.791070
C24   C     C_3   0.706414 0.970647 0.406173 0.624985
H33   H     H_    0.168405 0.525280 0.119789 0.105421
H34   H     H_    0.183733 0.488846 0.635067 0.106291
H35   H     H_    0.701983 0.001623 0.764035 0.046267
H36   H     H_    0.660328 0.954619 0.349838 0.142216
C25   C     C_3   0.171665 0.578189 0.910977 -0.894810
C26   C     C_3   0.192280 0.418571 0.459831 -0.909681
C27   C     C_3   0.802204 0.984448 0.855340 -1.143584
C28   C     C_3   0.760380 0.970902 0.300381 -0.900008
H37   H     H_    0.180310 0.626281 0.952593 0.204189
H38   H     H_    0.207545 0.417792 0.343915 0.281378
H39   H     H_    0.829117 0.987526 0.965726 0.274783
H40   H     H_    0.807843 0.972367 0.362792 0.235716
H41   H     H_    0.119374 0.571325 0.888888 0.296903
H42   H     H_    0.212385 0.376186 0.519211 0.224107
H43   H     H_    0.826535 0.016158 0.775396 0.244828
H44   H     H_    0.753765 0.929117 0.229646 0.314335
H45   H     H_    0.198482 0.574167 0.808443 0.264028
H46   H     H_    0.139135 0.416813 0.448432 0.258452
H47   H     H_    0.805554 0.934664 0.815910 0.260849
H48   H     H_    0.759189 0.013947 0.228194 0.242842
O45   O     O_3   0.924190 0.533610 0.949240 -0.429795
O46   O     O_3   0.924190 0.466390 0.449240 -0.449302
O47   O     O_3   0.424190 0.033610 0.949240 -0.424789
O48   O     O_3   0.424190 0.966390 0.449240 -0.442211
P13   P     P_3+3 0.078818 0.713105 0.911186 0.353121
P14   P     P_3+3 0.081269 0.288099 0.405880 0.345028
P15   P     P_3+3 0.575446 0.215921 0.920798 0.352775
P16   P     P_3+3 0.579814 0.786181 0.407097 0.362415
C29   C     C_3   0.987985 0.201166 0.407381 0.655333
C30   C     C_3   0.978275 0.791363 0.919099 0.630134
C31   C     C_3   0.486439 0.698612 0.404914 0.658517
C32   C     C_3   0.473626 0.290668 0.929727 0.633757
H49   H     H_    0.987104 0.220661 0.519350 0.019871
H50   H     H_    0.968628 0.764746 0.021586 0.005822
H51   H     H_    0.485738 0.717581 0.517331 0.016703
H52   H     H_    0.467389 0.264606 0.035229 0.005915
H53   H     H_    0.947190 0.116139 0.516082 0.237749
H54   H     H_    0.915355 0.870418 0.981348 0.228289
H55   H     H_    0.446851 0.613421 0.514883 0.230673
H56   H     H_    0.410793 0.366847 0.007732 0.215853
H57   H     H_    0.037874 0.083571 0.971607 0.238090
H58   H     H_    0.039124 0.930934 0.485333 0.261929
H59   H     H_    0.538554 0.584399 0.980846 0.234911
H60   H     H_    0.520177 0.430353 0.480614 0.241896
C33   C     C_R   0.238147 0.299485 0.002497 0.485748
C34   C     C_R   0.245512 0.693260 0.488313 0.514921
C35   C     C_R   0.743250 0.800991 0.986458 0.454495
C36   C     C_R   0.746829 0.195043 0.488160 0.489662
C37   C     C_R   0.151904 0.347488 0.828341 0.338919
C38   C     C_R   0.151319 0.650912 0.326825 0.374403
C39   C     C_R   0.650139 0.845179 0.830217 0.293122
C40   C     C_R   0.648549 0.154707 0.336430 0.344632
C41   C     C_R   0.118366 0.341598 0.689625 -0.538477
C42   C     C_R   0.115611 0.656921 0.190922 -0.568918
C43   C     C_R   0.614667 0.837896 0.693376 -0.497315
C44   C     C_R   0.606835 0.165348 0.210967 -0.509367
C45   C     C_R   0.125164 0.289724 0.594783 0.287850
C46   C     C_R   0.124836 0.708174 0.095001 0.269014
C47   C     C_R   0.620444 0.785398 0.599802 0.275925
C48   C     C_R   0.617800 0.214760 0.109705 0.262562
C49   C     C_R   0.168349 0.241190 0.638663 -0.264437
C50   C     C_R   0.169257 0.756312 0.137192 -0.249169
C51   C     C_R   0.662980 0.736160 0.644298 -0.228795
C52   C     C_R   0.665070 0.261027 0.146368 -0.227197
C53   C     C_R   0.202319 0.241320 0.780529 -0.125017
C54   C     C_R   0.205519 0.755032 0.275576 -0.164092
C55   C     C_R   0.699948 0.737933 0.782267 -0.147202
C56   C     C_R   0.702646 0.258868 0.282807 -0.150879
C57   C     C_R   0.196577 0.296217 0.873626 -0.135796
C58   C     C_R   0.199333 0.700080 0.368192 -0.127238
C59   C     C_R   0.695689 0.793884 0.872203 -0.103395
C60   C     C_R   0.698129 0.202982 0.373396 -0.189467
H61   H     H_    0.091332 0.381602 0.647521 0.154827
H62   H     H_    0.083372 0.618785 0.153976 0.159079
H63   H     H_    0.588576 0.878067 0.648373 0.147878
H64   H     H_    0.573815 0.127711 0.176371 0.159321
C61   C     C_R   0.792154 0.694820 0.946477 -0.170527
C62   C     C_R   0.790430 0.304551 0.453567 -0.195070
C63   C     C_R   0.287739 0.193749 0.955011 -0.143362
C64   C     C_R   0.290843 0.802345 0.451540 -0.161110
C65   C     C_R   0.787254 0.751025 0.034045 -0.200786
C66   C     C_R   0.787163 0.247221 0.541818 -0.090443
C67   C     C_R   0.278983 0.247186 0.051450 -0.222092
C68   C     C_R   0.285369 0.745927 0.543120 -0.175898
C69   C     C_R   0.844816 0.650316 0.985192 0.197197
C70   C     C_R   0.836603 0.354284 0.500076 0.185280
C71   C     C_R   0.340657 0.149363 0.991526 0.193959
C72   C     C_R   0.336312 0.852896 0.499253 0.166160
C73   C     C_R   0.888683 0.665520 0.108391 -0.203157
C74   C     C_R   0.865574 0.349865 0.647337 -0.243139
C75   C     C_R   0.382265 0.164462 0.118062 -0.214504
C76   C     C_R   0.363830 0.848864 0.648020 -0.240995
C77   C     C_R   0.877908 0.715464 0.206188 0.190350
C78   C     C_R   0.867642 0.292318 0.728756 0.177753
C79   C     C_R   0.367617 0.210517 0.224309 0.201837
C80   C     C_R   0.363712 0.792111 0.733407 0.205917
C81   C     C_R   0.828079 0.758549 0.166522 0.070968
C82   C     C_R   0.827485 0.241638 0.677291 0.083058
C83   C     C_R   0.313440 0.249547 0.194067 0.054177
C84   C     C_R   0.321409 0.741952 0.685256 0.075160
C85   C     C_R   0.746057 0.687982 0.822270 0.486946
C86   C     C_R   0.747758 0.309483 0.323531 0.478294
C87   C     C_R   0.245457 0.189601 0.824197 0.455234
C88   C     C_R   0.250493 0.805782 0.317255 0.465088
H65   H     H_    0.175736 0.203889 0.558392 0.151760
H66   H     H_    0.176275 0.793699 0.056059 0.190616
H67   H     H_    0.669631 0.698413 0.564746 0.195375
H68   H     H_    0.673299 0.297621 0.063707 0.196382
C89   C     C_3   0.934496 0.238152 0.318817 -0.146225
C90   C     C_3   0.874629 0.199252 0.271889 -0.940690
H69   H     H_    0.883020 0.164557 0.182462 0.289799
H70   H     H_    0.859155 0.172700 0.369576 0.248768
H71   H     H_    0.835988 0.231620 0.231940 0.281336
H72   H     H_    0.918796 0.277494 0.389904 0.119088
H73   H     H_    0.953954 0.262801 0.222891 0.266839
C91   C     C_3   0.934509 0.759985 0.794110 -0.163265
C92   C     C_3   0.874840 0.798318 0.741224 -0.892542
H74   H     H_    0.849424 0.815063 0.836245 0.219280
H75   H     H_    0.887922 0.840530 0.674052 0.278145
H76   H     H_    0.839205 0.768686 0.677466 0.299654
H77   H     H_    0.962714 0.746597 0.700467 0.243049
H78   H     H_    0.917809 0.713363 0.833333 0.165107
C93   C     C_3   0.432476 0.735289 0.317738 -0.173410
C94   C     C_3   0.373365 0.695968 0.265326 -0.890716
H79   H     H_    0.383043 0.661764 0.175924 0.292336
H80   H     H_    0.355364 0.668404 0.358648 0.233402
H81   H     H_    0.335542 0.728560 0.223180 0.282603
H82   H     H_    0.415898 0.773556 0.390591 0.119045
H83   H     H_    0.452200 0.761288 0.223909 0.265828
C95   C     C_3   0.430300 0.255862 0.809797 -0.174888
C96   C     C_3   0.367968 0.290137 0.760651 -0.900258
H84   H     H_    0.344149 0.309484 0.856598 0.232261
H85   H     H_    0.378682 0.329845 0.685801 0.281919
H86   H     H_    0.333345 0.258345 0.700611 0.297255
H87   H     H_    0.457845 0.244109 0.713591 0.245787
H88   H     H_    0.417934 0.208495 0.851325 0.165600
O49   O     O_3   0.724780 0.408847 0.908913 -0.701665
H89   H     H_    0.735939 0.409314 0.802578 0.327031
O50   O     O_3   0.735293 0.596471 0.409527 -0.674715
H90   H     H_    0.749259 0.598386 0.305377 0.325356
O51   O     O_3   0.227598 0.906823 0.900463 -0.709427
H91   H     H_    0.238613 0.908493 0.794084 0.335346
O52   O     O_3   0.160680 0.023396 0.534224 -0.771046
H92   H     H_    0.126940 0.055007 0.505216 0.326097
C97   C     C_3   0.266247 0.557847 0.078621 -0.420891
C98   C     C_3   0.308960 0.510514 0.163720 -0.839554
H93   H     H_    0.281795 0.489867 0.253455 0.277360
H94   H     H_    0.325137 0.472656 0.088844 0.260499
H95   H     H_    0.352145 0.535507 0.213830 0.237122
H96   H     H_    0.293460 0.575282 0.982823 0.198202
H97   H     H_    0.258737 0.598911 0.153814 0.189144
C99   C     C_3   0.285320 0.480597 0.587062 -0.353581
C100  C     C_3   0.304509 0.439687 0.722322 -1.018488
H98   H     H_    0.276556 0.394479 0.726533 0.284515
H99   H     H_    0.356389 0.429722 0.719243 0.254487
H100  H     H_    0.300613 0.467429 0.825228 0.310222
H101  H     H_    0.314494 0.466915 0.492972 0.198190
H102  H     H_    0.300817 0.529587 0.617301 0.215365
C101  C     C_3   0.731230 0.073897 0.910377 -0.462142
C102  C     C_3   0.681046 0.090591 0.017099 -0.800037
H103  H     H_    0.633607 0.095063 0.955874 0.286313
H104  H     H_    0.675644 0.057314 0.111648 0.254687
H105  H     H_    0.699328 0.134942 0.068365 0.218678
H106  H     H_    0.778818 0.088492 0.962746 0.200914
H107  H     H_    0.718940 0.101032 0.806941 0.237668
C103  C     C_3   0.721754 0.931523 0.545355 -0.351813
C104  C     C_3   0.747670 0.865629 0.538044 -1.055295
H108  H     H_    0.718162 0.835523 0.461568 0.312351
H109  H     H_    0.798286 0.869890 0.514810 0.283849
H110  H     H_    0.749265 0.844287 0.650121 0.275841
H111  H     H_    0.760993 0.957896 0.603699 0.230598
H112  H     H_    0.678240 0.931001 0.608369 0.159363
C105  C     C_3   0.816416 0.810259 0.274609 -0.219542
C106  C     C_3   0.865603 0.864758 0.264872 -0.911038
H113  H     H_    0.874081 0.886712 0.375214 0.273784
H114  H     H_    0.910791 0.846814 0.226815 0.266488
H115  H     H_    0.852585 0.903909 0.187296 0.250635
H116  H     H_    0.766764 0.826991 0.262317 0.233262
H117  H     H_    0.818418 0.788949 0.386823 0.227824
C107  C     C_3   0.817521 0.190601 0.791578 -0.336532
C108  C     C_3   0.774170 0.215976 0.909600 -0.757872
H118  H     H_    0.788807 0.196456 0.020588 0.235260
H119  H     H_    0.772191 0.268872 0.914904 0.291312
H120  H     H_    0.725291 0.201050 0.880900 0.276926
H121  H     H_    0.801502 0.145399 0.746560 0.226099
H122  H     H_    0.862944 0.173544 0.842642 0.199199
C109  C     C_3   0.289984 0.290455 0.318758 -0.226036
C110  C     C_3   0.329969 0.351052 0.340631 -0.859389
H123  H     H_    0.340307 0.360061 0.460595 0.285431
H124  H     H_    0.374108 0.349112 0.278465 0.253921
H125  H     H_    0.303908 0.392310 0.296052 0.249035
H126  H     H_    0.239835 0.303852 0.296336 0.246292
H127  H     H_    0.288424 0.263116 0.424381 0.201765
C111  C     C_3   0.307880 0.691282 0.802056 -0.393721
C112  C     C_3   0.270669 0.720277 0.924559 -0.746782
H128  H     H_    0.278465 0.693305 0.029587 0.225276
H129  H     H_    0.277130 0.772126 0.939514 0.301730
H130  H     H_    0.220580 0.717265 0.890084 0.263295
H131  H     H_    0.278394 0.650195 0.765720 0.223130
H132  H     H_    0.352865 0.669228 0.846507 0.207927
C113  C     C_3   0.945486 0.625346 0.151383 -0.395771
C114  C     C_3   0.923512 0.571750 0.253475 -0.431160
H133  H     H_    0.890858 0.588901 0.338311 0.238573
H134  H     H_    0.895947 0.534187 0.192381 0.222444
H135  H     H_    0.966154 0.551682 0.312166 0.279946
H136  H     H_    0.973826 0.610527 0.060194 0.233680
H137  H     H_    0.984636 0.654913 0.201697 0.158839
C115  C     C_3   0.904216 0.403877 0.711991 -0.183023
C116  C     C_3   0.972283 0.390854 0.668153 -0.669012
H138  H     H_    0.992638 0.345342 0.708830 0.183659
H139  H     H_    0.973430 0.382817 0.550047 0.248911
H140  H     H_    0.002712 0.431033 0.695105 0.275919
H141  H     H_    0.885430 0.450899 0.675975 0.191365
H142  H     H_    0.899666 0.408700 0.833599 0.238248
C117  C     C_3   0.441222 0.127374 0.153754 -0.428129
C118  C     C_3   0.423499 0.071386 0.253905 -0.407010
H143  H     H_    0.391804 0.085592 0.343404 0.229967
H144  H     H_    0.396213 0.033778 0.192283 0.221782
H145  H     H_    0.467646 0.052205 0.307248 0.278125
H146  H     H_    0.468348 0.115076 0.058499 0.233757
H147  H     H_    0.478207 0.159564 0.202266 0.162139
C119  C     C_3   0.402494 0.903023 0.711868 -0.192350
C120  C     C_3   0.470542 0.889970 0.668673 -0.669453
H148  H     H_    0.489802 0.843653 0.707249 0.181032
H149  H     H_    0.472602 0.882909 0.550305 0.250765
H150  H     H_    0.501118 0.929697 0.700033 0.276964
H151  H     H_    0.383771 0.950000 0.675157 0.197012
H152  H     H_    0.398075 0.908058 0.833529 0.238293
O53   O     O_3   0.249012 0.358894 0.061751 -0.717096
H153  H     H_    0.295299 0.367875 0.050395 0.306443
O54   O     O_3   0.261445 0.631595 0.524974 -0.765636
H154  H     H_    0.308622 0.629784 0.545960 0.279659
O55   O     O_3   0.757031 0.862398 0.023813 -0.743143
H155  H     H_    0.802207 0.868892 0.000756 0.314709
O56   O     O_3   0.767713 0.134260 0.517013 -0.763582
H156  H     H_    0.775809 0.115176 0.418719 0.326184
O57   O     O_3   0.746603 0.632579 0.740388 -0.681747
H157  H     H_    0.701617 0.620504 0.711557 0.302314
O58   O     O_3   0.749381 0.364921 0.240186 -0.686522
H158  H     H_    0.705259 0.375801 0.203625 0.313286
O59   O     O_3   0.248038 0.135576 0.737803 -0.709024
H159  H     H_    0.203827 0.124296 0.700809 0.318884
O60   O     O_3   0.255546 0.859274 0.228533 -0.690155
H160  H     H_    0.212862 0.870814 0.184664 0.322847
C121  C     C_3   0.062289 0.218217 0.023251 -0.153162
C122  C     C_3   0.116418 0.175409 0.093955 -0.877367
H161  H     H_    0.098766 0.142383 0.179911 0.278950
H162  H     H_    0.140284 0.146219 0.011666 0.209702
H163  H     H_    0.154838 0.205508 0.147932 0.275700
H164  H     H_    0.084516 0.250013 0.941892 0.130523
H165  H     H_    0.046310 0.252171 0.106063 0.245809
C123  C     C_3   0.054894 0.811110 0.579295 -0.266290
C124  C     C_3   0.124829 0.834923 0.582883 -0.885365
H166  H     H_    0.151612 0.808637 0.501119 0.244618
H167  H     H_    0.129080 0.887132 0.564486 0.267095
H168  H     H_    0.148374 0.825027 0.694514 0.304875
H169  H     H_    0.034282 0.834454 0.673729 0.239497
H170  H     H_    0.054909 0.758353 0.589901 0.228702
C125  C     C_3   0.559751 0.721513 0.018140 -0.177775
C126  C     C_3   0.617719 0.682027 0.082320 -0.837534
H171  H     H_    0.604563 0.649025 0.172882 0.285737
H172  H     H_    0.640703 0.653445 0.997992 0.200534
H173  H     H_    0.656015 0.714375 0.128219 0.277855
H174  H     H_    0.577921 0.754902 0.934758 0.133313
H175  H     H_    0.543784 0.753889 0.104388 0.246571
C127  C     C_3   0.545563 0.309176 0.574512 -0.228127
C128  C     C_3   0.613518 0.337924 0.576377 -0.915461
H176  H     H_    0.642798 0.311576 0.499273 0.254786
H177  H     H_    0.614017 0.389933 0.552319 0.234649
H178  H     H_    0.637243 0.331814 0.689395 0.304965
H179  H     H_    0.525475 0.329433 0.672925 0.234753
H180  H     H_    0.549199 0.256333 0.583218 0.223885
C129  C     C_3   0.006212 0.184808 0.778521 -0.348107
C130  C     C_3   0.057698 0.140046 0.721023 -0.970815
H181  H     H_    0.101788 0.139818 0.793075 0.261534
H182  H     H_    0.038884 0.090308 0.710096 0.277577
H183  H     H_    0.073350 0.156371 0.612098 0.273717
H184  H     H_    0.958603 0.171160 0.726969 0.165969
H185  H     H_    0.017410 0.234556 0.744500 0.133815
C131  C     C_3   0.038500 0.813823 0.299015 -0.260237
C132  C     C_3   0.081166 0.867618 0.236859 -0.962517
H186  H     H_    0.056095 0.913828 0.222536 0.257097
H187  H     H_    0.124653 0.876411 0.309162 0.266031
H188  H     H_    0.095514 0.855145 0.124112 0.279378
H189  H     H_    0.065990 0.768931 0.311144 0.163183
H190  H     H_    0.000138 0.804324 0.216857 0.150290
C133  C     C_3   0.503094 0.680784 0.778738 -0.311433
C134  C     C_3   0.552458 0.633403 0.721961 -0.994176
H191  H     H_    0.596215 0.630129 0.794379 0.253163
H192  H     H_    0.530926 0.584748 0.710362 0.271266
H193  H     H_    0.569534 0.649220 0.613887 0.278968
H194  H     H_    0.454573 0.667838 0.730426 0.158994
H195  H     H_    0.515014 0.729615 0.739934 0.123671
C135  C     C_3   0.516125 0.316075 0.294355 -0.247515
C136  C     C_3   0.564274 0.365925 0.237263 -0.983908
H196  H     H_    0.543191 0.414443 0.229269 0.259167
H197  H     H_    0.609190 0.369034 0.305829 0.263468
H198  H     H_    0.578306 0.352808 0.124686 0.286072
H199  H     H_    0.535438 0.267289 0.285820 0.157570
H200  H     H_    0.472054 0.320097 0.223197 0.158733

loop_
_geom_bond_atom_site_label_1
_geom_bond_atom_site_label_2
_geom_bond_distance
_ccdc_geom_bond_type
C19   H27   1.114225 S    
O59   H159  0.987891 S    
C15   H19   1.106600 S    
C136  H197  1.092106 S    
C106  H115  1.097051 S    
P5    O37   1.751549 S    
Ba3   O47   2.914260 S    
C74   C115  1.482181 S    
P8    O40   1.748538 S    
P9    O33   1.543202 D    
C103  C104  1.486460 S    
O15   P16   1.546608 D    
C26   H42   1.104629 S    
C132  H187  1.098838 S    
C63   C71   1.468414 A    
C34   C68   1.444300 A    
O26   Ba2   2.958179 S    
C61   C69   1.469690 A    
C2    H6    1.094925 S    
C5    C121  1.565311 S    
C30   H50   1.098037 S    
C110  H125  1.085521 S    
C72   C76   1.424655 A    
C115  C116  1.517613 S    
P2    O18   1.743213 S    
P8    C71   1.950768 S    
C134  H193  1.097846 S    
P12   O36   1.541718 D    
P4    O8    1.609167 S    
C51   C55   1.420977 A    
C126  H173  1.104162 S    
C124  H168  1.109166 S    
C73   C113  1.488502 S    
C56   C86   1.443127 A    
C129  H184  1.105993 S    
P6    O45   1.621552 S    
P5    O25   1.639012 D    
C123  C124  1.532572 S    
C37   C41   1.397857 A    
C23   C27   1.544092 S    
P7    O39   1.752316 S    
Ba2   O46   2.909472 S    
C14   H18   1.107098 S    
C131  H190  1.074237 S    
C130  H182  1.110359 S    
C18   H26   1.114582 S    
C29   C89   1.542592 S    
C77   C81   1.409182 A    
P4    C40   1.914789 S    
O13   P14   1.539673 D    
C135  H200  1.091956 S    
C22   C99   1.547180 S    
C81   C105  1.485464 S    
C84   C111  1.520054 S    
C109  C110  1.516752 S    
O44   C8    1.440677 S    
C64   C68   1.440044 A    
O9    P14   1.747271 S    
C118  H143  1.109017 S    
P5    O46   1.613264 S    
C50   C54   1.416688 A    
P8    Ba4   3.614317 S    
C107  C108  1.527021 S    
P8    O47   1.621552 S    
C100  H99   1.103202 S    
C129  C130  1.539996 S    
C54   C88   1.445291 A    
C128  H176  1.098971 S    
C66   C82   1.442843 A    
C76   C119  1.482112 S    
C42   C46   1.388203 A    
C96   H86   1.096998 S    
O29   Ba1   2.918376 S    
O5    Ba2   2.914129 S    
C114  H135  1.092606 S    
O31   Ba3   2.918376 S    
O7    Ba4   2.914129 S    
C38   C58   1.461901 A    
C36   C60   1.414508 A    
C98   H94   1.106621 S    
C125  C126  1.550675 S    
O18   C22   1.394325 S    
C89   H72   1.105296 S    
C18   H30   1.110368 S    
C39   C43   1.405044 A    
C101  H106  1.113489 S    
C97   H96   1.111767 S    
C123  H170  1.106068 S    
O42   C6    1.450611 S    
C71   C75   1.424099 A    
C52   H68   1.080792 S    
C13   C17   1.526435 S    
P11   O35   1.539506 D    
C2    H54   1.101245 S    
C99   H102  1.101470 S    
O60   H160  0.983251 S    
C9    H9    1.092373 S    
C45   C49   1.401714 A    
C11   H11   1.090650 S    
C52   C56   1.416075 A    
C8    C127  1.537201 S    
C121  H164  1.101249 S    
O55   H155  0.981496 S    
C1    H1    1.097753 S    
Ba4   O48   2.909472 S    
Ba3   Ba4   4.917405 S    
C20   H28   1.113804 S    
C11   H15   1.112022 S    
C63   C87   1.429782 A    
P3    C39   1.960556 S    
C125  H174  1.099243 S    
C44   H64   1.075554 S    
C61   C85   1.436484 A    
C36   O56   1.365064 S    
C105  H117  1.096504 S    
C122  H162  1.101207 S    
C67   C83   1.432185 A    
C4    H4    1.105312 S    
O49   H89   0.992972 S    
C119  H152  1.104826 S    
C122  H161  1.106756 S    
O28   Ba4   2.958179 S    
C119  H151  1.101490 S    
C9    H57   1.108808 S    
C28   H44   1.085258 S    
O6    Ba1   2.909332 S    
O51   H91   0.992891 S    
C116  H139  1.074201 S    
C26   H46   1.105436 S    
C114  H134  1.098923 S    
C4    H56   1.108757 S    
C13   H21   1.112212 S    
C113  H136  1.081584 S    
C15   H23   1.111820 S    
C73   C77   1.394023 A    
C92   H74   1.087537 S    
P6    O38   1.748596 S    
O40   C15   1.401799 S    
C109  H127  1.104789 S    
P8    O28   1.633437 D    
C110  H124  1.100920 S    
C20   O52   1.399679 S    
P9    O29   1.742020 S    
C103  H111  1.092153 S    
C55   C85   1.454517 A    
P5    Ba1   3.603280 S    
P10   O34   1.546086 D    
C104  H110  1.095748 S    
C75   C79   1.404499 A    
C108  H119  1.107932 S    
P7    Ba3   3.603280 S    
C14   C18   1.526569 S    
C18   O50   1.403163 S    
C126  H172  1.098138 S    
P14   C45   1.880010 S    
C63   C67   1.434755 A    
C95   H87   1.091163 S    
C20   H32   1.114147 S    
C2    H2    1.108794 S    
P3    O7    1.617369 S    
C134  H191  1.091674 S    
O17   C21   1.398427 S    
C80   C84   1.416752 A    
C34   O54   1.367404 S    
C117  H147  1.091597 S    
C115  H141  1.101082 S    
C24   H36   1.109299 S    
C27   H47   1.104585 S    
Ba1   O46   3.160284 S    
C31   H51   1.085569 S    
C25   H37   1.084016 S    
C74   C78   1.403007 A    
C27   H39   1.112029 S    
C105  C106  1.529702 S    
P7    O48   1.613264 S    
C10   H58   1.107101 S    
C135  C136  1.543332 S    
C87   O59   1.375576 S    
C21   H33   1.111902 S    
P6    O26   1.633437 D    
O20   C24   1.376815 S    
C23   H35   1.093296 S    
C112  H129  1.098676 S    
P9    O41   1.779428 S    
C91   H77   1.088998 S    
C64   C72   1.461960 A    
C17   O49   1.403132 S    
O10   Ba2   2.920474 S    
P2    C38   1.896207 S    
C95   C96   1.530061 S    
O14   P13   1.544793 D    
C32   H52   1.101743 S    
C38   C42   1.397662 A    
C109  H126  1.090787 S    
C33   O53   1.365163 S    
C83   C109  1.514886 S    
C90   H70   1.095441 S    
C133  H194  1.108716 S    
P6    Ba2   3.614317 S    
C128  H178  1.109774 S    
C17   H29   1.110383 S    
C132  H186  1.105319 S    
C6    C131  1.541910 S    
P13   C46   1.862983 S    
C127  H179  1.085834 S    
C49   C53   1.420911 A    
C94   H79   1.104430 S    
C68   C84   1.445212 A    
C101  H107  1.103402 S    
C92   H76   1.099830 S    
C127  H180  1.109592 S    
C86   O58   1.376153 S    
C48   C52   1.400627 A    
C120  H150  1.070890 S    
C21   C25   1.505620 S    
C102  H103  1.107652 S    
C35   C65   1.442508 A    
C90   H69   1.105589 S    
C104  H108  1.093108 S    
C41   C45   1.394104 A    
C49   H65   1.081223 S    
C44   C48   1.396353 A    
C124  H167  1.106019 S    
C16   H24   1.110997 S    
C127  C128  1.530761 S    
C40   C60   1.462870 A    
O39   C16   1.403645 S    
C24   C103  1.508876 S    
C93   C94   1.527252 S    
C118  H145  1.090978 S    
C12   H16   1.107767 S    
C98   H95   1.110198 S    
O57   H157  0.988499 S    
P1    O17   1.755161 S    
C6    C123  1.530648 S    
P1    O1    1.634436 D    
C1    H53   1.107396 S    
P10   O42   1.799890 S    
P3    O3    1.634436 D    
O4    Ba4   2.935813 S    
C1    C29   1.556552 S    
P4    O20   1.711204 S    
C19   O51   1.403107 S    
C62   C70   1.456215 A    
C106  H113  1.097341 S    
C54   C58   1.422229 A    
C9    H13   1.111971 S    
C33   C57   1.406627 A    
P1    Ba1   3.611376 S    
O21   P14   1.764825 S    
P3    Ba3   3.611376 S    
C53   C87   1.449826 A    
O27   Ba3   2.939710 S    
C5    C9    1.547850 S    
C41   H61   1.067613 S    
O22   P13   1.746418 S    
C46   C50   1.399666 A    
C8    C12   1.560828 S    
C28   H40   1.108694 S    
O25   Ba1   2.939710 S    
C100  H98   1.106541 S    
C136  H198  1.102124 S    
O16   P15   1.544056 D    
P15   C48   1.866064 S    
C10   H14   1.104792 S    
C36   C66   1.438855 A    
Ba3   O48   3.160284 S    
C111  H131  1.091677 S    
C96   H85   1.093167 S    
O24   C32   1.409206 S    
C28   H48   1.104812 S    
C12   H12   1.108021 S    
O12   P15   1.748175 S    
P1    O5    1.617369 S    
C131  C132  1.546320 S    
C132  H188  1.102276 S    
O54   H154  0.990584 S    
C13   H17   1.105756 S    
C95   H88   1.089185 S    
C3    C31   1.557662 S    
C94   H81   1.095802 S    
C107  H122  1.089707 S    
C117  C118  1.525488 S    
C55   C59   1.429890 A    
C120  H148  1.097877 S    
P12   C79   1.920290 S    
P10   O30   1.777622 S    
C32   C95   1.545671 S    
O23   P16   1.770925 S    
C43   H63   1.069114 S    
O24   P15   1.744190 S    
C16   H20   1.108935 S    
P12   O44   1.789201 S    
C16   C20   1.521984 S    
C129  H185  1.108114 S    
C31   C93   1.540435 S    
C35   O55   1.352330 S    
C111  H132  1.101312 S    
C3    H3    1.099049 S    
C65   C81   1.430592 A    
O12   Ba4   2.920474 S    
C111  C112  1.509915 S    
P2    Ba2   3.600505 S    
C24   C28   1.508375 S    
C27   H43   1.112132 S    
Ba2   O45   3.154876 S    
C25   H41   1.103659 S    
C131  H189  1.105002 S    
C3    H55   1.107421 S    
C130  H181  1.093053 S    
C4    C32   1.549029 S    
P10   C77   1.929531 S    
C19   H31   1.110338 S    
C105  H116  1.093544 S    
C93   H83   1.095032 S    
C135  H199  1.103793 S    
Ba1   Ba2   4.917405 S    
P7    O27   1.639012 D    
C97   C98   1.511415 S    
O1    Ba1   2.954139 S    
O41   C5    1.431202 S    
C91   C92   1.535682 S    
O3    Ba3   2.954139 S    
O43   C7    1.429785 S    
C116  H138  1.097111 S    
C133  H195  1.106651 S    
C8    C135  1.529785 S    
O37   C14   1.402532 S    
C40   C44   1.400860 A    
C99   C100  1.517318 S    
C10   H10   1.110302 S    
C100  H100  1.099095 S    
C1    H5    1.107652 S    
C136  H196  1.108814 S    
C29   H49   1.086226 S    
C122  H163  1.105125 S    
C79   C83   1.410991 A    
C112  H128  1.099688 S    
C103  H112  1.092754 S    
C104  H109  1.087484 S    
C108  H118  1.101633 S    
P3    O19   1.739118 S    
C133  C134  1.541097 S    
P4    O4    1.640015 D    
C130  H183  1.097356 S    
C62   C86   1.430266 A    
C30   C91   1.549564 S    
O30   Ba2   2.909421 S    
C89   H73   1.094272 S    
C35   C59   1.392654 A    
C134  H192  1.110555 S    
C97   H97   1.111357 S    
C123  H169  1.088951 S    
C115  H142  1.104284 S    
O50   H90   0.992999 S    
O22   C30   1.414253 S    
C62   C66   1.435099 A    
C6    C10   1.565620 S    
C14   H22   1.111387 S    
O58   H158  0.986158 S    
C99   H101  1.105686 S    
C5    C129  1.528730 S    
C102  H105  1.092830 S    
C93   H82   1.104490 S    
C98   H93   1.092470 S    
C76   C80   1.407977 A    
C121  H165  1.096177 S    
O10   P13   1.728627 S    
O9    Ba1   2.911473 S    
P11   C80   1.935642 S    
C91   H78   1.094062 S    
O2    Ba2   2.935813 S    
Ba4   O47   3.154876 S    
P2    O2    1.640015 D    
P11   O43   1.775882 S    
C64   C88   1.431568 A    
C2    C30   1.544398 S    
C15   C19   1.526529 S    
C107  H121  1.072450 S    
O38   C13   1.401448 S    
C33   C67   1.442312 A    
O11   Ba3   2.911473 S    
C85   O57   1.374624 S    
C34   C58   1.411233 A    
C53   C57   1.431885 A    
C47   C51   1.405355 A    
C88   O60   1.374797 S    
C78   C82   1.407290 A    
C43   C47   1.394523 A    
C37   C57   1.466065 A    
C56   C60   1.424003 A    
C51   H67   1.080988 S    
C26   H38   1.102877 S    
C116  H140  1.067929 S    
C7    C133  1.529664 S    
C128  H177  1.106956 S    
C114  H133  1.109769 S    
C113  H137  1.096864 S    
P1    C37   1.933861 S    
C39   C59   1.471213 A    
C94   H80   1.093783 S    
C89   C90   1.522701 S    
C21   C97   1.552086 S    
C92   H75   1.105567 S    
C22   H34   1.110447 S    
C110  H123  1.101852 S    
C120  H149  1.075036 S    
C101  C102  1.498465 S    
C102  H104  1.103025 S    
C75   C117  1.476583 S    
C108  H120  1.079323 S    
O52   H92   0.991807 S    
P2    O6    1.609167 S    
C125  H175  1.096907 S    
P7    C72   1.961209 S    
C126  H171  1.106268 S    
P11   O31   1.755563 S    
C124  H166  1.097034 S    
C117  H146  1.081955 S    
C11   H59   1.108133 S    
P12   O32   1.785234 S    
C12   H60   1.107252 S    
C69   C73   1.429319 A    
C96   H84   1.096392 S    
C7    C125  1.566418 S    
C90   H71   1.099235 S    
C121  C122  1.550919 S    
C42   H62   1.078933 S    
P9    C78   1.931996 S    
Ba1   O45   2.914260 S    
C7    C11   1.546273 S    
O56   H156  0.992253 S    
C61   C65   1.423665 A    
P16   C47   1.881424 S    
C3    H7    1.109110 S    
C106  H114  1.087971 S    
C4    H8    1.095813 S    
P4    Ba4   3.600505 S    
C113  C114  1.524967 S    
P5    C70   1.941134 S    
O19   C23   1.381580 S    
O11   P16   1.756526 S    
C22   C26   1.520214 S    
C23   C101  1.497042 S    
C118  H144  1.099038 S    
C82   C107  1.495541 S    
O23   C31   1.417204 S    
C119  C120  1.515586 S    
C70   C74   1.423854 A    
C112  H130  1.072431 S    
C50   H66   1.078735 S    
P6    C69   1.915294 S    
O21   C29   1.414162 S    
C25   H45   1.104570 S    
O53   H153  0.990226 S    
O32   Ba4   2.909421 S    
O8    Ba3   2.909332 S    
C17   H25   1.114607 S    
