data_mof_unit_30462.cif
_audit_creation_date              2013-03-05T16:32:18-0500
_audit_creation_method            fapswitch 2.2
_symmetry_space_group_name_H-M    P1
_symmetry_Int_Tables_number       1
_space_group_crystal_system       triclinic
_cell_length_a                    15.889745
_cell_length_b                    10.824927
_cell_length_c                    9.607584
_cell_angle_alpha                 89.54858
_cell_angle_beta                  89.091638
_cell_angle_gamma                 90.817294
_cell_volume                      1652.12558288

loop_
_atom_site_label
_atom_site_type_symbol
_atom_site_description
_atom_site_fract_x
_atom_site_fract_y
_atom_site_fract_z
_atom_type_partial_charge
O1    O     O_R   0.500000 0.319640 0.618810 -0.546749
O2    O     O_R   0.500010 0.319680 0.381230 -0.591713
C1    C     C_R   0.501127 0.262327 0.500278 0.814545
O3    O     O_R   0.379430 0.499990 0.618840 -0.521826
O4    O     O_R   0.379440 0.500030 0.381260 -0.568710
C2    C     C_R   0.340431 0.500421 0.500945 0.832951
Cu1   Cu    Cu3+1 0.500000 0.499980 0.640670 1.019540
Cu2   Cu    Cu3+1 0.500000 0.500020 0.359330 0.991810
O5    O     O_R   0.499990 0.680320 0.618770 -0.581777
O6    O     O_R   0.500000 0.680360 0.381190 -0.574882
O7    O     O_R   0.620560 0.499970 0.618740 -0.593114
O8    O     O_R   0.620570 0.500010 0.381160 -0.571413
C3    C     C_R   0.502574 0.737392 0.499426 0.812114
C4    C     C_R   0.659524 0.500343 0.498912 0.810369
C5    C     C_3   0.044732 0.494452 0.643787 0.176331
C6    C     C_3   0.048093 0.404107 0.408822 0.086361
C7    C     C_3   0.952563 0.420659 0.383651 0.109025
H1    H     H_    0.921417 0.406222 0.679761 0.237893
H2    H     H_    0.060448 0.397726 0.672002 0.147564
H3    H     H_    0.052028 0.322221 0.478343 0.178452
H4    H     H_    0.944060 0.457015 0.276876 0.216875
C8    C     C_1   0.748924 0.505401 0.495829 -0.086948
C9    C     C_3   0.083893 0.519907 0.492920 -0.269812
C10   C     C_3   0.947291 0.495360 0.638314 -0.499598
C11   C     C_3   0.916582 0.518941 0.486997 -0.172074
C12   C     C_3   0.951112 0.650914 0.442635 0.099502
C13   C     C_3   0.051681 0.649929 0.426733 0.531594
C14   C     C_1   0.824298 0.511986 0.491456 0.170531
C15   C     C_1   0.175771 0.512129 0.499281 0.224946
C16   C     C_1   0.251047 0.505641 0.502139 0.019500
H5    H     H_    0.935607 0.710534 0.532648 0.181012
H6    H     H_    0.921142 0.567139 0.707877 0.250613
C17   C     C_R   0.511364 0.061923 0.624374 0.111380
C18   C     C_R   0.509321 0.128973 0.499745 -0.090935
C19   C     C_R   0.520676 0.065646 0.373511 -0.177722
H7    H     H_    0.524499 0.114746 0.274903 0.172068
C20   C     C_R   0.521942 0.936813 0.372866 -0.165535
H8    H     H_    0.526064 0.889772 0.273959 0.171133
C21   C     C_R   0.512301 0.870472 0.498559 -0.079424
C22   C     C_R   0.513834 0.934772 0.623728 0.120969
C23   C     C_3   0.456836 0.922152 0.747983 -0.456645
C24   C     C_3   0.452034 0.061764 0.746683 -0.383812
H9    H     H_    0.395962 0.875430 0.724334 0.233744
H10   H     H_    0.489916 0.884773 0.839967 0.206125
H11   H     H_    0.388375 0.093738 0.718638 0.251796
H12   H     H_    0.480119 0.105307 0.839857 0.212727
C25   C     C_R   0.564074 0.555794 0.071234 0.212082
N1    N     N_R   0.500530 0.500930 0.147930 -0.219645
C26   C     C_R   0.433036 0.456743 0.077801 -0.094388
H13   H     H_    0.379980 0.417640 0.135608 0.201568
C27   C     C_R   0.432303 0.456505 0.930139 0.385752
N2    N     N_R   0.500530 0.500890 0.852020 -0.243614
C28   C     C_R   0.564179 0.555605 0.924316 0.173734
C29   C     C_3   0.655031 0.522579 0.917470 -0.447896
C30   C     C_3   0.654887 0.523290 0.075243 -0.411414
H14   H     H_    0.665490 0.429225 0.873447 0.220513
H15   H     H_    0.694675 0.597711 0.870082 0.216140
H16   H     H_    0.665396 0.430449 0.121670 0.224045
H17   H     H_    0.694190 0.599067 0.118695 0.240736
S1    S     S_3+6 0.087127 0.568396 0.796674 0.124249
O9    O     O_2   0.105154 0.468700 0.901164 -0.132684
O10   O     O_2   0.168071 0.637065 0.765198 -0.218805
O11   O     O_3   0.016846 0.664222 0.869648 -0.445157
H18   H     H_    0.050923 0.727243 0.918230 0.411574
S2    S     S_3+6 0.891176 0.727994 0.307124 0.066678
O12   O     O_2   0.895231 0.659911 0.171640 -0.236493
O13   O     O_2   0.800475 0.736721 0.352137 -0.324870
O14   O     O_3   0.926473 0.873776 0.283671 -0.375001
H19   H     H_    0.892170 0.907655 0.207515 0.393196
N3    N     N_R   0.358871 0.407479 0.866092 0.138535
O15   O     O_R   0.285283 0.447523 0.904192 -0.260480
O16   O     O_R   0.363287 0.305453 0.796424 -0.381865
S3    S     S_3+6 0.105632 0.337841 0.262736 0.098412
O17   O     O_2   0.048561 0.321544 0.140701 -0.171683
O18   O     O_2   0.181741 0.412700 0.218409 -0.203971
O19   O     O_3   0.138445 0.197315 0.312200 -0.524188
H20   H     H_    0.163314 0.160815 0.227018 0.391286
N4    N     N_R   0.907091 0.301410 0.393418 0.154687
O20   O     O_R   0.866695 0.260019 0.286249 -0.294361
O21   O     O_R   0.906559 0.235884 0.507593 -0.334091
S4    S     S_3+6 0.094241 0.786971 0.513973 0.093796
O22   O     O_2   0.053742 0.805768 0.653894 -0.264268
O23   O     O_2   0.187887 0.777489 0.529632 -0.270882
O24   O     O_3   0.075943 0.915814 0.421240 -0.400146
H21   H     H_    0.100187 0.984059 0.476463 0.396646
S5    S     S_3+6 0.090756 0.669353 0.246781 0.135934
O25   O     O_2   0.184763 0.655260 0.243554 -0.257561
O26   O     O_2   0.052176 0.576919 0.151191 -0.179754
O27   O     O_3   0.071054 0.809964 0.180378 -0.416255
H22   H     H_    0.119716 0.830820 0.118458 0.371128

loop_
_geom_bond_atom_site_label_1
_geom_bond_atom_site_label_2
_geom_bond_distance
_ccdc_geom_bond_type
C30   H17   1.111858 S    
C23   H9    1.112578 S    
C23   C24   1.514268 S    
C19   H7    1.083075 S    
C10   H6    1.109787 S    
S4    O22   1.497757 D    
Cu1   Cu2   2.702994 S    
C28   C29   1.492721 S    
C11   C14   1.467162 S    
C5    H2    1.112335 S    
C12   C13   1.603091 S    
C15   C16   1.199901 T    
S1    O11   1.683548 S    
H1    C10   1.111798 S    
C17   C24   1.494790 S    
C9    C15   1.465768 S    
C19   C20   1.395098 A    
Cu1   N2    2.030815 S    
C24   H12   1.111741 S    
O4    C2    1.297695 A    
O7    C4    1.298453 A    
N4    O21   1.301444 A    
S1    O10   1.501709 D    
C18   C19   1.408216 A    
S3    O17   1.503512 D    
O5    C3    1.297956 A    
O1    Cu1   1.965077 S    
O24   H21   0.990050 S    
C6    C7    1.553522 S    
C26   C27   1.418931 A    
N3    O15   1.300974 A    
C27   N3    1.425477 S    
C9    C13   1.632213 S    
C6    H3    1.108757 S    
C25   C28   1.411512 A    
C5    C9    1.588801 S    
C12   H5    1.109817 S    
C8    C14   1.198827 T    
S3    O18   1.500278 D    
O3    Cu1   1.930578 S    
S4    O23   1.502853 D    
C29   H14   1.112216 S    
C17   C22   1.377580 A    
C6    S3    1.820510 S    
C13   S4    1.835614 S    
C10   C11   1.561084 S    
O3    C2    1.299711 A    
C21   C22   1.394586 A    
S5    O25   1.503546 D    
O14   H19   0.990492 S    
C1    C18   1.451299 S    
S2    O13   1.502601 D    
C11   C12   1.576140 S    
S5    O27   1.681203 S    
C7    H4    1.106826 S    
C27   N2    1.386759 A    
S1    O9    1.501801 D    
O1    C1    1.301114 A    
C24   H11   1.110285 S    
C13   S5    1.837201 S    
Cu1   O7    1.923896 S    
Cu2   N1    2.030873 S    
C20   H8    1.083138 S    
C25   N1    1.366599 A    
Cu2   O8    1.930575 S    
S2    O14   1.679526 S    
C17   C18   1.396349 A    
C5    C10   1.550205 S    
O19   H20   0.990621 S    
N1    C26   1.358776 A    
C2    C16   1.422094 S    
O8    C4    1.298154 A    
S2    O12   1.501826 D    
C6    C9    1.599356 S    
C23   H10   1.111838 S    
S4    O24   1.680401 S    
N2    C28   1.366677 A    
C25   C30   1.491147 S    
Cu1   O5    1.961826 S    
C29   C30   1.515854 S    
C22   C23   1.491202 S    
N4    O20   1.301130 A    
C12   S2    1.828415 S    
O2    Cu2   1.961826 S    
O6    C3    1.298094 A    
O4    Cu2   1.923900 S    
C7    C11   1.568625 S    
C4    C8    1.420652 S    
O2    C1    1.297587 A    
C20   C21   1.405291 A    
C7    N4    1.471918 S    
S3    O19   1.682498 S    
S5    O26   1.495074 D    
C3    C21   1.446594 S    
O11   H18   0.989413 S    
Cu2   O6    1.965077 S    
C26   H13   1.081493 S    
C30   H16   1.112185 S    
N3    O16   1.298092 A    
O27   H22   0.990500 S    
C5    S1    1.812905 S    
C29   H15   1.111760 S    
