data_mof_unit_43741.cif
_audit_creation_date              2012-12-10T17:21:41-0500
_audit_creation_method            fapswitch 2.2
_symmetry_space_group_name_H-M    P1
_symmetry_Int_Tables_number       1
_space_group_crystal_system       triclinic
_cell_length_a                    10.80688
_cell_length_b                    10.875411
_cell_length_c                    9.602619
_cell_angle_alpha                 88.636178
_cell_angle_beta                  91.501027
_cell_angle_gamma                 93.74074
_cell_volume                      1125.52167417

loop_
_atom_site_label
_atom_site_type_symbol
_atom_type_description
_atom_site_fract_x
_atom_site_fract_y
_atom_site_fract_z
_atom_type_partial_charge
C1    C     C_R   0.503221 0.262028 0.502878 0.775025
C2    C     C_3   0.876442 0.486080 0.500736 -0.141094
C3    C     C_3   0.932575 0.620821 0.494707 -0.352594
C4    C     C_3   0.917067 0.416667 0.370137 0.430589
C5    C     C_R   0.488057 0.107016 0.771479 -0.319500
C6    C     C_R   0.436642 0.043207 0.885758 0.610201
C7    C     C_R   0.381534 0.924742 0.869826 0.130833
C8    C     C_R   0.391334 0.867057 0.742473 -0.274763
C9    C     C_R   0.448262 0.929308 0.626595 0.068357
C10   C     C_R   0.480353 0.056681 0.636190 0.019474
C11   C     C_R   0.503118 0.126790 0.510378 -0.093086
C12   C     C_R   0.259667 0.493185 0.497760 0.818258
C13   C     C_R   0.511399 0.065835 0.384382 -0.183832
C14   C     C_R   0.500734 0.938852 0.380853 -0.216856
C15   C     C_R   0.474283 0.869205 0.501465 -0.089789
C16   C     C_R   0.632455 0.689011 0.147230 -0.086247
C17   C     C_R   0.657336 0.802737 0.083138 -0.271143
C18   C     C_R   0.640120 0.814290 0.941034 -0.167019
C19   C     C_R   0.625290 0.706526 0.863546 0.204911
C20   C     C_R   0.563613 0.597585 0.926321 0.180434
C21   C     C_R   0.564901 0.593996 0.075780 0.190977
C22   C     C_R   0.438335 0.409881 0.074100 -0.013703
C23   C     C_R   0.489003 0.736311 0.499300 0.758316
C24   C     C_R   0.438147 0.409999 0.926436 -0.035456
C25   C     C_R   0.738773 0.489956 0.501363 0.794759
C26   C     C_3   0.072389 0.435747 0.634919 -0.500321
C27   C     C_3   0.929914 0.416247 0.630717 0.386762
C28   C     C_3   0.074582 0.626762 0.470266 0.357913
C29   C     C_3   0.058635 0.398652 0.380651 -0.126390
C30   C     C_3   0.120872 0.490854 0.492196 0.002726
Cu1   Cu    Cu3+1 0.499990 0.499990 0.640660 0.947936
Cu2   Cu    Cu3+1 0.500010 0.500010 0.359340 0.948133
H1    H     H_    0.102703 0.494712 0.723629 0.240008
H2    H     H_    0.883583 0.675011 0.412867 0.175036
H3    H     H_    0.528813 0.116397 0.287576 0.218231
H4    H     H_    0.538689 0.192752 0.794585 0.212102
H5    H     H_    0.352476 0.773563 0.737047 0.196227
H6    H     H_    0.513917 0.895128 0.283035 0.185568
H7    H     H_    0.388348 0.335346 0.129159 0.164104
H8    H     H_    0.112202 0.345359 0.658314 0.143313
H9    H     H_    0.666383 0.679438 0.251977 0.204485
H10   H     H_    0.698299 0.879500 0.141906 0.165496
H11   H     H_    0.672874 0.900724 0.891753 0.163197
H12   H     H_    0.386218 0.336890 0.871812 0.153026
H13   H     H_    0.903226 0.316039 0.621985 0.069618
H14   H     H_    0.913787 0.664255 0.594526 0.179840
H15   H     H_    0.066977 0.303481 0.424463 0.095940
H16   H     H_    0.866324 0.324241 0.366536 0.049993
N1    N     N_R   0.501200 0.501210 0.147910 -0.207129
N2    N     N_R   0.501250 0.501290 0.852040 -0.200393
O1    O     O_R   0.499990 0.319640 0.618810 -0.595341
O2    O     O_R   0.500000 0.319660 0.381240 -0.581987
O3    O     O_R   0.317680 0.499970 0.618790 -0.594367
O4    O     O_R   0.317700 0.499990 0.381210 -0.587574
O5    O     O_R   0.500000 0.680340 0.618760 -0.589766
O6    O     O_R   0.500010 0.680360 0.381190 -0.609619
O7    O     O_R   0.682300 0.500010 0.618790 -0.534991
O8    O     O_R   0.682320 0.500030 0.381210 -0.547344
F1    F     F_    0.885922 0.479135 0.247768 -0.638440
C31   C     C_3   0.100885 0.683387 0.322841 -0.782583
H17   H     H_    0.079789 0.782147 0.317944 0.213437
H18   H     H_    0.199748 0.679475 0.296162 0.232260
H19   H     H_    0.041662 0.639532 0.240395 0.284326
F2    F     F_    0.441871 0.097339 0.011875 -0.717304
C32   C     C_3   0.318805 0.855466 0.988769 -0.814188
H20   H     H_    0.319838 0.910919 0.084404 0.271897
H21   H     H_    0.220716 0.830052 0.958721 0.221216
H22   H     H_    0.366339 0.769931 0.013546 0.223666
C33   C     C_3   0.734702 0.700332 0.771382 -0.715025
H23   H     H_    0.711725 0.715016 0.659944 0.221960
H24   H     H_    0.810425 0.772173 0.793935 0.175912
H25   H     H_    0.778556 0.614669 0.796974 0.311534
F3    F     F_    0.885575 0.451609 0.755831 -0.654155
C34   C     C_3   0.139307 0.719550 0.573092 -0.864280
H26   H     H_    0.131166 0.689652 0.683565 0.226965
H27   H     H_    0.238209 0.734435 0.547514 0.224096
H28   H     H_    0.098278 0.810581 0.562798 0.228864
C35   C     C_3   0.117130 0.390499 0.236357 -0.672061
H29   H     H_    0.143106 0.480838 0.187134 0.250282
H30   H     H_    0.201075 0.337178 0.246090 0.200428
H31   H     H_    0.052137 0.338520 0.164202 0.249706

loop_
_geom_bond_atom_site_label_1
_geom_bond_atom_site_label_2
_ccdc_geom_bond_type
C16   C21   A    
C19   C20   A    
C1    C11   S    
Cu2   O8    S    
C28   C34   S    
C21   N1    A    
C7    C8    A    
C26   C27   S    
C34   H27   S    
C29   H15   S    
C31   H19   S    
C3    C28   S    
C13   H3    S    
C5    C6    A    
C35   H30   S    
C7    C32   S    
C5    H4    S    
C31   H18   S    
C18   C19   A    
C6    F2    S    
C33   H24   S    
C17   H10   S    
Cu2   O2    S    
C20   N2    A    
C29   C35   S    
C16   C17   A    
C32   H21   S    
C34   H28   S    
C2    C27   S    
C9    C10   A    
C4    C29   S    
C27   H13   S    
C15   C23   S    
C13   C14   A    
C25   O7    A    
Cu2   O4    S    
C28   C31   S    
C24   N2    A    
C34   H26   S    
C23   O6    A    
C35   H29   S    
C8    C9    A    
C3    H2    S    
C31   H17   S    
C33   H25   S    
C2    C4    S    
C29   C30   S    
C14   H6    S    
C26   H1    S    
Cu1   Cu2   S    
C32   H22   S    
C17   C18   A    
Cu1   O3    S    
C1    O1    A    
C22   N1    A    
C26   C30   S    
C24   H12   S    
C22   C24   A    
C19   C33   S    
C8    H5    S    
Cu1   N2    S    
C4    H16   S    
C12   C30   S    
C12   O3    A    
Cu1   O1    S    
C23   O5    A    
C6    C7    A    
C3    H14   S    
Cu1   O7    S    
C28   C30   S    
C2    C3    S    
C9    C15   A    
C5    C10   A    
C18   H11   S    
C11   C13   A    
C35   H31   S    
C26   H8    S    
C22   H7    S    
C4    F1    S    
C2    C25   S    
C33   H23   S    
C1    O2    A    
Cu2   N1    S    
C10   C11   A    
C20   C21   A    
C32   H20   S    
C25   O8    A    
C14   C15   A    
Cu1   O5    S    
C27   F3    S    
C16   H9    S    
Cu2   O6    S    
C12   O4    A    
