data_mof_unit_26042.cif
_audit_creation_date              2012-12-11T17:06:27-0500
_audit_creation_method            fapswitch 2.2
_symmetry_space_group_name_H-M    P1
_symmetry_Int_Tables_number       1
_space_group_crystal_system       triclinic
_cell_length_a                    6.958475
_cell_length_b                    14.520311
_cell_length_c                    15.961675
_cell_angle_alpha                 90.511979
_cell_angle_beta                  90.04158
_cell_angle_gamma                 90.003539
_cell_volume                      1612.69039434

loop_
_atom_site_label
_atom_site_type_symbol
_atom_type_description
_atom_site_fract_x
_atom_site_fract_y
_atom_site_fract_z
_atom_type_partial_charge
O1    O     O_R   0.494400 0.415450 0.412630 -0.537101
O2    O     O_R   0.823940 0.405730 0.586760 -0.544500
O3    O     O_R   0.994240 0.584550 0.587370 -0.536946
C1    C     C_R   0.655211 0.383623 0.615342 0.695409
O4    O     O_R   0.824110 0.404430 0.413240 -0.542741
O5    O     O_R   0.994420 0.583240 0.412620 -0.539511
C2    C     C_R   0.655300 0.382235 0.384244 0.704056
O6    O     O_R   0.494230 0.416760 0.587380 -0.537538
O7    O     O_3   0.660800 0.558670 0.500000 -0.368667
V1    V     V_3+5 0.935650 0.489120 0.500000 1.391768
O8    O     O_R   0.324140 0.594270 0.413240 -0.538791
C3    C     C_R   0.155073 0.615912 0.384091 0.699107
O9    O     O_R   0.323960 0.595570 0.586760 -0.541870
C4    C     C_R   0.155235 0.617688 0.615604 0.679163
V2    V     V_3+5 0.435660 0.510880 0.500000 1.399712
O10   O     O_3   0.160640 0.441330 0.500000 -0.372530
C5    C     C_3   0.056198 0.667823 0.772298 -0.137058
C6    C     C_3   0.229415 0.716502 0.814800 -0.135764
H1    H     H_    0.308733 0.690881 0.870273 0.108571
H2    H     H_    0.992974 0.601187 0.791827 0.108072
C7    C     C_3   0.121110 0.808763 0.810201 -0.004296
C8    C     C_3   0.947693 0.760882 0.768493 -0.115098
C9    C     C_3   0.036612 0.779576 0.681308 -0.143166
C10   C     C_3   0.209835 0.828249 0.723805 -0.146378
C11   C     C_3   0.318334 0.735192 0.727612 -0.116076
C12   C     C_3   0.144915 0.687321 0.685902 -0.007892
H3    H     H_    0.794753 0.771691 0.785706 0.106439
H4    H     H_    0.957294 0.805192 0.625833 0.098873
H5    H     H_    0.273106 0.894870 0.704264 0.094762
H6    H     H_    0.471270 0.724375 0.710397 0.107314
C13   C     C_R   0.273026 0.815129 0.239313 0.093979
C14   C     C_R   0.118549 0.815076 0.182914 -0.110416
C15   C     C_R   0.966832 0.753360 0.198646 -0.172629
H7    H     H_    0.844308 0.750818 0.157100 0.135187
C16   C     C_R   0.977870 0.689714 0.264673 -0.165837
H8    H     H_    0.862934 0.640360 0.272132 0.132506
C17   C     C_R   0.141290 0.685573 0.316826 -0.111217
C18   C     C_R   0.284401 0.751880 0.304401 0.096763
C19   C     C_3   0.495041 0.739208 0.292381 -0.404040
C20   C     C_3   0.482778 0.808487 0.221816 -0.399499
H9    H     H_    0.530715 0.668408 0.270420 0.172833
H10   H     H_    0.579459 0.764515 0.347068 0.170702
H11   H     H_    0.512145 0.778113 0.158948 0.173947
H12   H     H_    0.559349 0.874034 0.235857 0.160630
C21   C     C_R   0.493958 0.316321 0.741800 0.104780
C22   C     C_R   0.647711 0.317344 0.685201 -0.114132
C23   C     C_R   0.798973 0.254806 0.698986 -0.181908
H13   H     H_    0.921071 0.253208 0.657226 0.131242
C24   C     C_R   0.787723 0.189097 0.763131 -0.176093
H14   H     H_    0.902168 0.139215 0.769178 0.124470
C25   C     C_R   0.624536 0.183777 0.815120 -0.111783
C26   C     C_R   0.482460 0.251071 0.805067 0.136082
C27   C     C_3   0.271255 0.239852 0.793454 -0.400515
C28   C     C_3   0.283692 0.311385 0.724782 -0.411126
H15   H     H_    0.188558 0.263777 0.849090 0.206671
H16   H     H_    0.233516 0.169979 0.769715 0.156024
H17   H     H_    0.208937 0.376851 0.740864 0.175121
H18   H     H_    0.252348 0.283248 0.661239 0.168915
C29   C     C_R   0.496392 0.317298 0.254979 0.049178
C30   C     C_R   0.647471 0.316167 0.313081 -0.107896
C31   C     C_R   0.797187 0.252652 0.298702 -0.164863
H19   H     H_    0.918231 0.249839 0.341086 0.117827
C32   C     C_R   0.785743 0.187679 0.232801 -0.110906
H20   H     H_    0.898621 0.136897 0.226381 0.122033
C33   C     C_R   0.624648 0.184526 0.179177 -0.148425
C34   C     C_R   0.485298 0.253199 0.189698 0.126119
C35   C     C_3   0.272773 0.244958 0.198020 0.245970
C36   C     C_3   0.284678 0.315390 0.269088 -0.436864
H21   H     H_    0.227056 0.175277 0.218125 0.060227
H22   H     H_    0.247620 0.286493 0.331247 0.134567
H23   H     H_    0.216193 0.382682 0.255017 0.208306
O11   O     O_R   0.771650 0.079500 0.908680 -0.536576
O12   O     O_R   0.441690 0.091800 0.082800 -0.530891
O13   O     O_R   0.271460 0.912980 0.083410 -0.541636
C37   C     C_R   0.610742 0.113910 0.111902 0.724736
O14   O     O_R   0.441930 0.090510 0.909280 -0.536982
O15   O     O_R   0.271690 0.911670 0.908660 -0.542695
C38   C     C_R   0.610948 0.112626 0.880701 0.709267
O16   O     O_R   0.771410 0.080810 0.083440 -0.525951
O17   O     O_3   0.605100 0.937580 0.996050 -0.381353
V3    V     V_3+5 0.330220 0.007110 0.996030 1.456916
O18   O     O_R   0.941980 0.900620 0.909250 -0.546707
C39   C     C_R   0.110731 0.878457 0.880458 0.663251
O19   O     O_R   0.941740 0.901920 0.082770 -0.548222
C40   C     C_R   0.110566 0.880087 0.111744 0.681468
V4    V     V_3+5 0.830220 0.985300 0.996000 1.429236
O20   O     O_3   0.105210 0.054870 0.996020 -0.343749
Cl1   Cl    Cl    0.152034 0.287179 0.107437 -0.633360

loop_
_geom_bond_atom_site_label_1
_geom_bond_atom_site_label_2
_ccdc_geom_bond_type
C32   C33   A    
C6    C7    S    
C16   H8    S    
C1    O6    A    
C23   C24   A    
C1    C22   S    
C27   C28   S    
C35   Cl1   S    
C5    C12   S    
C16   C17   A    
O14   C38   A    
C29   C34   A    
O5    C3    A    
C18   C19   S    
O15   C39   A    
V2    O10   S    
C5    H2    S    
C13   C20   S    
C6    H1    S    
C9    C12   S    
C3    C17   S    
C31   C32   A    
C10   H5    S    
O11   C38   A    
O8    V2    S    
C20   H11   S    
C23   H13   S    
C24   C25   A    
O17   V4    S    
C9    C10   S    
O1    V2    S    
O7    V1    S    
C34   C35   S    
C29   C30   A    
C7    C8    S    
O12   C37   A    
C6    C11   S    
O12   V3    S    
C5    C6    S    
C19   H10   S    
C27   H15   S    
C35   C36   S    
C7    C39   S    
C10   C11   S    
C19   H9    S    
C19   C20   S    
O4    C2    A    
V4    O20   S    
C21   C26   A    
C11   C12   S    
C21   C22   A    
O18   C39   A    
C4    C12   S    
C25   C26   A    
C30   C31   A    
C35   H21   S    
O2    C1    A    
C17   C18   A    
C29   C36   S    
C13   C14   A    
O15   V3    S    
C15   H7    S    
C9    H4    S    
O19   C40   A    
V3    O20   S    
O3    C4    A    
C21   C28   S    
C33   C34   A    
O6    V2    S    
C8    H3    S    
O9    V2    S    
O13   V3    S    
O2    V1    S    
C2    C30   S    
C26   C27   S    
C28   H18   S    
C27   H16   S    
C11   H6    S    
C22   C23   A    
O1    C2    A    
O19   V4    S    
O17   V3    S    
O14   V3    S    
O5    V1    S    
O11   V4    S    
O8    C3    A    
C5    C8    S    
C33   C37   S    
C13   C18   A    
C14   C15   A    
O7    V2    S    
C25   C38   S    
O4    V1    S    
O3    V1    S    
O18   V4    S    
C36   H23   S    
C14   C40   S    
C15   C16   A    
O13   C40   A    
C31   H19   S    
C32   H20   S    
C20   H12   S    
C36   H22   S    
C24   H14   S    
C7    C10   S    
C8    C9    S    
V1    O10   S    
O9    C4    A    
C37   O16   A    
O16   V4    S    
C28   H17   S    
