data_mof_unit_17616.cif
_audit_creation_date              2012-12-10T19:44:33-0500
_audit_creation_method            fapswitch 2.2
_symmetry_space_group_name_H-M    P1
_symmetry_Int_Tables_number       1
_space_group_crystal_system       triclinic
_cell_length_a                    8.597537
_cell_length_b                    14.93992
_cell_length_c                    14.217333
_cell_angle_alpha                 90.874281
_cell_angle_beta                  98.408516
_cell_angle_gamma                 90.558168
_cell_volume                      1806.1940477

loop_
_atom_site_label
_atom_site_type_symbol
_atom_type_description
_atom_site_fract_x
_atom_site_fract_y
_atom_site_fract_z
_atom_type_partial_charge
C1    C     C_R   0.500849 0.327899 0.499441 0.879906
C2    C     C_R   0.501920 0.672523 0.500758 0.849714
C3    C     C_R   0.367399 0.474817 0.091922 -0.346921
C4    C     C_R   0.570820 0.564559 0.904968 -0.291433
C5    C     C_R   0.367947 0.474877 0.191008 0.339229
C6    C     C_R   0.575756 0.566261 0.805870 0.351508
C7    C     C_R   0.635509 0.519132 0.217008 -0.135786
C8    C     C_R   0.425517 0.431292 0.785498 -0.110064
C9    C     C_R   0.643050 0.513610 0.118148 0.132009
C10   C     C_R   0.426878 0.424777 0.884860 0.129384
C11   C     C_R   0.504755 0.493132 0.053377 0.097887
C12   C     C_R   0.500541 0.493259 0.946445 0.067171
C13   C     C_R   0.202005 0.505499 0.475888 0.973889
C14   C     C_R   0.798185 0.498980 0.524279 0.883403
C15   C     C_2   0.039653 0.525012 0.468381 -0.016282
C16   C     C_2   0.960996 0.485484 0.533009 -0.051526
C17   C     C_R   0.457891 0.091699 0.565602 -0.178967
C18   C     C_R   0.508053 0.908021 0.420624 -0.184753
C19   C     C_R   0.439860 0.183155 0.562679 -0.214113
C20   C     C_R   0.488990 0.816212 0.418470 -0.216295
C21   C     C_R   0.514728 0.232516 0.499664 -0.050200
C22   C     C_R   0.516571 0.768860 0.503149 -0.054643
C23   C     C_R   0.610474 0.191340 0.440773 -0.291161
C24   C     C_R   0.565787 0.813446 0.589738 -0.281606
C25   C     C_R   0.634377 0.099554 0.445606 0.222183
C26   C     C_R   0.590345 0.905462 0.592534 0.215495
C27   C     C_R   0.555074 0.049668 0.507862 0.091972
C28   C     C_R   0.557998 0.952866 0.507048 0.096280
H1    H     H_    0.365546 0.215205 0.608232 0.146722
H2    H     H_    0.449961 0.782586 0.350967 0.163686
H3    H     H_    0.259237 0.458948 0.045307 0.170075
H4    H     H_    0.623427 0.618081 0.951214 0.182206
N1    N     N_R   0.500000 0.499980 0.252470 -0.110598
N2    N     N_R   0.500000 0.500020 0.747530 -0.135660
O1    O     O_R   0.500010 0.369070 0.579480 -0.617644
O2    O     O_R   0.499990 0.630930 0.420520 -0.626146
O3    O     O_R   0.500010 0.369060 0.420520 -0.618199
O4    O     O_R   0.499990 0.630940 0.579480 -0.625455
O5    O     O_R   0.271750 0.500000 0.560890 -0.600961
O6    O     O_R   0.728250 0.500000 0.439110 -0.614250
O7    O     O_R   0.271750 0.499990 0.401930 -0.595032
O8    O     O_R   0.728250 0.500010 0.598070 -0.651675
Zn1   Zn    Zn3+2 0.500000 0.500010 0.606140 0.941123
Zn2   Zn    Zn3+2 0.500000 0.499990 0.393860 0.947256
N3    N     N_2   0.972408 0.597287 0.409824 -0.319523
H5    H     H_    0.895459 0.637016 0.440569 0.229416
C29   C     C_3   0.069188 0.648971 0.354740 -0.791763
H6    H     H_    0.997903 0.702872 0.317362 0.227210
H7    H     H_    0.111144 0.606274 0.299494 0.260433
H8    H     H_    0.169686 0.680508 0.402027 0.235152
N4    N     N_2   0.027129 0.417610 0.596485 -0.290686
H9    H     H_    0.984160 0.417588 0.660543 0.238996
C30   C     C_3   0.024973 0.328810 0.554055 -0.798731
H10   H     H_    0.084784 0.281652 0.606751 0.227742
H11   H     H_    0.088109 0.328576 0.491232 0.235387
H12   H     H_    0.901774 0.305287 0.532100 0.235496
H13   H     H_    0.393546 0.053350 0.611665 0.152499
H14   H     H_    0.479199 0.944483 0.355190 0.152115
H15   H     H_    0.670455 0.230926 0.393463 0.150792
H16   H     H_    0.587385 0.776822 0.655106 0.188138
N5    N     N_2   0.734107 0.058036 0.386403 -0.317528
H17   H     H_    0.745211 0.093137 0.325738 0.221473
C31   C     C_3   0.884785 0.030142 0.435464 -0.798907
H18   H     H_    0.954934 0.000448 0.383439 0.240190
H19   H     H_    0.869207 0.978333 0.488431 0.255648
H20   H     H_    0.950773 0.088539 0.471426 0.237307
N6    N     N_2   0.640765 0.949840 0.681501 -0.316727
H21   H     H_    0.615444 0.915118 0.739716 0.224822
C32   C     C_3   0.801319 0.982884 0.694526 -0.803951
H22   H     H_    0.830254 0.014472 0.766244 0.239332
H23   H     H_    0.817016 0.034496 0.641385 0.256676
H24   H     H_    0.883664 0.926885 0.688471 0.235186
N7    N     N_2   0.230159 0.446983 0.226467 -0.265717
H25   H     H_    0.130493 0.477997 0.193937 0.204120
C33   C     C_3   0.209292 0.350908 0.228502 -0.757829
H26   H     H_    0.315344 0.319248 0.267580 0.261711
H27   H     H_    0.107364 0.334861 0.265307 0.227007
H28   H     H_    0.186427 0.322672 0.154912 0.222271
N8    N     N_2   0.660347 0.635441 0.765720 -0.289880
H29   H     H_    0.719129 0.614131 0.711940 0.270077
C34   C     C_3   0.747669 0.703098 0.826538 -0.899438
H30   H     H_    0.805989 0.750123 0.782579 0.246066
H31   H     H_    0.840250 0.671492 0.877751 0.258375
H32   H     H_    0.666847 0.742641 0.864621 0.251798
H33   H     H_    0.740565 0.536002 0.265709 0.179729
H34   H     H_    0.367795 0.379550 0.738450 0.155603
N9    N     N_2   0.790241 0.527261 0.085445 -0.314276
H35   H     H_    0.869988 0.565100 0.131270 0.217776
C35   C     C_3   0.859509 0.446751 0.052728 -0.807902
H36   H     H_    0.970920 0.464190 0.026252 0.231438
H37   H     H_    0.780296 0.414032 0.993292 0.259541
H38   H     H_    0.884725 0.398906 0.111949 0.240235
N10   N     N_2   0.355303 0.349038 0.921373 -0.313181
H39   H     H_    0.264931 0.320503 0.874394 0.217613
C36   C     C_3   0.464890 0.282905 0.963438 -0.791197
H40   H     H_    0.531681 0.254485 0.908919 0.236083
H41   H     H_    0.399235 0.227906 0.992422 0.235721
H42   H     H_    0.548254 0.312787 0.022850 0.256334

loop_
_geom_bond_atom_site_label_1
_geom_bond_atom_site_label_2
_ccdc_geom_bond_type
N9    H35   S    
C31   H19   S    
C1    C21   S    
N10   H39   S    
N7    C33   S    
N7    H25   S    
C36   H40   S    
C16   N4    S    
C13   O7    A    
C34   H30   S    
C36   H42   S    
C29   H7    S    
C20   H2    S    
N3    H5    S    
C23   H15   S    
C26   N6    S    
C22   C24   A    
C19   C21   A    
C24   C26   A    
C15   C16   D    
C32   H23   S    
N5    C31   S    
C18   H14   S    
C5    N1    A    
C2    C22   S    
C35   H37   S    
O1    Zn1   S    
C18   C20   A    
C1    O3    A    
C14   O8    A    
N3    C29   S    
C31   H20   S    
N10   C36   S    
C7    N1    A    
C32   H22   S    
C34   H31   S    
C29   H8    S    
C30   H11   S    
N6    H21   S    
C17   C27   A    
C18   C28   A    
N8    H29   S    
C4    C6    A    
N8    C34   S    
O5    Zn1   S    
C10   N10   S    
C30   H10   S    
C6    N2    A    
N6    C32   S    
C25   N5    S    
C32   H24   S    
C33   H26   S    
C33   H27   S    
C2    O4    A    
C29   H6    S    
C13   C15   S    
O6    Zn2   S    
C24   H16   S    
C8    N2    A    
C35   H38   S    
C3    H3    S    
C9    C11   A    
C4    H4    S    
C10   C12   A    
C20   C22   A    
C21   C23   A    
O7    Zn2   S    
C14   C16   S    
O2    Zn2   S    
C4    C12   A    
O8    Zn1   S    
C15   N3    S    
C19   H1    S    
C34   H32   S    
C1    O1    A    
C30   H12   S    
C2    O2    A    
C7    C9    A    
N1    Zn2   S    
N2    Zn1   S    
C3    C5    A    
C11   C12   S    
C36   H41   S    
C25   C27   A    
C26   C28   A    
O3    Zn2   S    
N9    C35   S    
N4    H9    S    
C9    N9    S    
C6    N8    S    
C7    H33   S    
C17   C19   A    
C8    H34   S    
C23   C25   A    
C5    N7    S    
N5    H17   S    
C33   H28   S    
C13   O5    A    
C3    C11   A    
C14   O6    A    
C31   H18   S    
O4    Zn1   S    
C8    C10   A    
C27   C28   S    
N4    C30   S    
C35   H36   S    
C17   H13   S    
