data_mof_unit_13795.cif
_audit_creation_date              2012-12-10T18:20:35-0500
_audit_creation_method            fapswitch 2.2
_symmetry_space_group_name_H-M    P1
_symmetry_Int_Tables_number       1
_space_group_crystal_system       triclinic
_cell_length_a                    14.134653
_cell_length_b                    13.630869
_cell_length_c                    14.942553
_cell_angle_alpha                 88.934462
_cell_angle_beta                  88.923834
_cell_angle_gamma                 83.775116
_cell_volume                      2861.06952101

loop_
_atom_site_label
_atom_site_type_symbol
_atom_type_description
_atom_site_fract_x
_atom_site_fract_y
_atom_site_fract_z
_atom_type_partial_charge
C1    C     C_R   0.500492 0.501997 0.327278 0.889471
C2    C     C_R   0.499508 0.498002 0.672722 0.889470
C3    C     C_R   0.500895 0.498297 0.953127 0.024856
C4    C     C_R   0.499108 0.501702 0.046873 0.024857
C5    C     C_R   0.475056 0.413294 0.909948 0.099662
C6    C     C_R   0.524947 0.586705 0.090052 0.099662
C7    C     C_R   0.557257 0.662890 0.945626 -0.025103
C8    C     C_R   0.442748 0.337108 0.054373 -0.025099
C9    C     C_R   0.553194 0.665948 0.038481 -0.245338
C10   C     C_R   0.446811 0.334050 0.961519 -0.245336
C11   C     C_R   0.806065 0.418172 0.527979 -0.035944
C12   C     C_R   0.193934 0.581828 0.472020 -0.035937
C13   C     C_R   0.791714 0.581805 0.469582 0.292757
C14   C     C_R   0.208286 0.418195 0.530420 0.292759
C15   C     C_R   0.890982 0.588120 0.481698 0.010659
C16   C     C_R   0.109018 0.411881 0.518306 0.010663
C17   C     C_R   0.949612 0.500221 0.500695 0.009617
C18   C     C_R   0.050388 0.499780 0.499308 0.009613
C19   C     C_R   0.907049 0.412973 0.521578 -0.096496
C20   C     C_R   0.092951 0.587028 0.478426 -0.096489
C21   C     C_R   0.933425 0.678469 0.473408 0.121062
C22   C     C_R   0.066574 0.321533 0.526601 0.121065
C23   C     C_R   0.516589 0.314669 0.499850 0.891003
C24   C     C_R   0.483411 0.685331 0.500150 0.891002
C25   C     C_R   0.033969 0.676940 0.465944 -0.012387
C26   C     C_R   0.966030 0.323064 0.534065 -0.012357
C27   C     C_1   0.470903 0.788448 0.500780 -0.181343
C28   C     C_1   0.529096 0.211552 0.499220 -0.181347
C29   C     C_2   0.458547 0.979875 0.502157 0.184228
C30   C     C_2   0.541453 0.020125 0.497845 0.184227
C31   C     C_1   0.538238 0.124151 0.498533 0.041823
C32   C     C_1   0.461762 0.875848 0.501468 0.041825
C33   C     C_R   0.477171 0.409849 0.815913 0.144602
C34   C     C_R   0.522830 0.590151 0.184087 0.144600
C35   C     C_R   0.499046 0.494262 0.768031 -0.060100
C36   C     C_R   0.500954 0.505738 0.231969 -0.060100
C37   C     C_R   0.524001 0.577223 0.810003 -0.251719
C38   C     C_R   0.476000 0.422776 0.189997 -0.251722
C39   C     C_R   0.528680 0.579747 0.902516 0.039134
C40   C     C_R   0.471324 0.420251 0.097484 0.039132
H1    H     H_    0.538033 0.640325 0.768762 0.179347
H2    H     H_    0.461969 0.359674 0.231238 0.179348
H3    H     H_    0.575632 0.730214 0.069954 0.195546
H4    H     H_    0.424373 0.269784 0.930046 0.195544
H5    H     H_    0.771096 0.355701 0.551293 0.175237
H6    H     H_    0.228904 0.644296 0.448702 0.175250
N1    N     N_R   0.750030 0.500040 0.500070 -0.111195
N2    N     N_R   0.249970 0.499960 0.499930 -0.111198
O1    O     O_R   0.580280 0.500020 0.367860 -0.623670
O2    O     O_R   0.419720 0.499980 0.632140 -0.623671
O3    O     O_R   0.419730 0.500030 0.367840 -0.601131
O4    O     O_R   0.580270 0.499970 0.632160 -0.601128
O5    O     O_R   0.591830 0.359650 0.500030 -0.602424
O6    O     O_R   0.408170 0.640350 0.499970 -0.602418
O7    O     O_R   0.431280 0.359660 0.500010 -0.621313
O8    O     O_R   0.568720 0.640340 0.499990 -0.621314
Zn1   Zn    Zn3+2 0.607200 0.499990 0.500020 0.967390
Zn2   Zn    Zn3+2 0.392800 0.500010 0.499980 0.967391
C41   C     C_3   0.637606 0.959800 0.491601 -0.887081
H7    H     H_    0.696168 0.008061 0.489405 0.269926
H8    H     H_    0.647937 0.909587 0.550825 0.245072
H9    H     H_    0.642456 0.915417 0.429774 0.239235
C42   C     C_3   0.362394 0.040200 0.508401 -0.887080
H10   H     H_    0.303832 0.991939 0.510598 0.269925
H11   H     H_    0.357544 0.084583 0.570228 0.239235
H12   H     H_    0.352063 0.090412 0.449176 0.245073
C43   C     C_3   0.458709 0.316590 0.767800 -0.917202
H13   H     H_    0.471457 0.320179 0.694582 0.229483
H14   H     H_    0.507463 0.253151 0.793019 0.255126
H15   H     H_    0.383761 0.301676 0.779502 0.245999
C44   C     C_3   0.541291 0.683410 0.232200 -0.917199
H16   H     H_    0.528542 0.679821 0.305418 0.229483
H17   H     H_    0.616240 0.698323 0.220500 0.245998
H18   H     H_    0.492539 0.746848 0.206979 0.255125
C45   C     C_2   0.594483 0.747349 0.897263 0.904072
O9    O     O_2   0.652164 0.732936 0.835611 -0.622346
O10   O     O_R   0.566904 0.843583 0.925608 -0.785780
H19   H     H_    0.597872 0.894836 0.888618 0.355932
C46   C     C_2   0.405525 0.252648 0.102737 0.904072
O11   O     O_2   0.347843 0.267058 0.164388 -0.622345
O12   O     O_R   0.433111 0.156414 0.074393 -0.785780
H20   H     H_    0.402145 0.105160 0.111383 0.355932
C47   C     C_3   0.738656 0.653610 0.405250 -0.824487
H21   H     H_    0.787920 0.680020 0.353657 0.221707
H22   H     H_    0.687493 0.617175 0.366900 0.273932
H23   H     H_    0.701528 0.718105 0.440040 0.241109
C48   C     C_3   0.261345 0.346392 0.594753 -0.824483
H24   H     H_    0.212082 0.319984 0.646347 0.221708
H25   H     H_    0.298473 0.281896 0.559963 0.241108
H26   H     H_    0.312509 0.382827 0.633101 0.273932
C49   C     C_3   0.874178 0.776789 0.488483 -0.823858
H27   H     H_    0.810883 0.767594 0.531544 0.237637
H28   H     H_    0.852655 0.812593 0.423630 0.265987
H29   H     H_    0.914368 0.827749 0.526044 0.248890
C50   C     C_3   0.125818 0.223210 0.511536 -0.823902
H30   H     H_    0.147339 0.187411 0.576392 0.265979
H31   H     H_    0.189114 0.232397 0.468474 0.237646
H32   H     H_    0.085627 0.172247 0.473980 0.248889
C51   C     C_2   0.076060 0.771138 0.448882 0.889226
O13   O     O_2   0.136020 0.796522 0.499011 -0.630390
O14   O     O_R   0.044156 0.832285 0.377036 -0.783284
H33   H     H_    0.076836 0.894894 0.372905 0.352854
C52   C     C_2   0.923937 0.228870 0.551137 0.889215
O15   O     O_2   0.864000 0.203465 0.500994 -0.630381
O16   O     O_R   0.955814 0.167751 0.623011 -0.783283
H34   H     H_    0.923133 0.105144 0.627150 0.352854

loop_
_geom_bond_atom_site_label_1
_geom_bond_atom_site_label_2
_ccdc_geom_bond_type
C2    C35   S    
C48   H24   S    
C42   H11   S    
O14   H33   S    
C22   C50   S    
C11   N1    A    
C50   H30   S    
C24   C27   S    
C12   N2    A    
C6    C9    A    
C29   C42   S    
O12   H20   S    
C50   H32   S    
O10   H19   S    
C11   C19   A    
C47   H21   S    
C35   C37   A    
C14   C48   S    
C38   H2    S    
C29   C32   S    
O6    Zn2   S    
C30   C31   S    
C8    C10   A    
N1    Zn1   S    
C20   C25   A    
C24   O6    A    
O1    Zn1   S    
O8    Zn1   S    
C15   C17   A    
C19   C26   A    
C2    O2    A    
C33   C35   A    
C13   N1    A    
C25   C51   S    
C4    C40   A    
C5    C33   A    
C8    C46   S    
C18   C20   A    
C42   H12   S    
C3    C39   A    
C41   H7    S    
C23   O5    A    
C9    H3    S    
C41   H8    S    
C10   H4    S    
C43   H13   S    
O2    Zn2   S    
C46   O11   D    
C4    C6    A    
C49   H27   S    
C46   O12   S    
O5    Zn1   S    
C14   N2    A    
C6    C34   A    
C43   H14   S    
C45   O9    D    
C29   C30   D    
C26   C52   S    
C49   H28   S    
C1    O3    A    
C51   O13   D    
C15   C21   A    
C30   C41   S    
C12   C20   A    
C17   C18   A    
C52   O16   S    
O3    Zn2   S    
C23   C28   S    
N2    Zn2   S    
C45   O10   S    
C2    O4    A    
C12   H6    S    
C47   H22   S    
C13   C15   A    
C14   C16   A    
C11   H5    S    
C3    C4    A    
C33   C43   S    
C44   H17   S    
C21   C49   S    
C7    C9    A    
C21   C25   A    
C41   H9    S    
C16   C22   A    
C51   O14   S    
C27   C32   T    
C28   C31   T    
C3    C5    A    
C44   H18   S    
C7    C45   S    
C50   H31   S    
C23   O7    A    
C24   O8    A    
O16   H34   S    
C13   C47   S    
C43   H15   S    
C36   C38   A    
C5    C10   A    
C37   C39   A    
C49   H29   S    
C38   C40   A    
O7    Zn2   S    
C17   C19   A    
C34   C36   A    
C37   H1    S    
O4    Zn1   S    
C42   H10   S    
C44   H16   S    
C47   H23   S    
C16   C18   A    
C22   C26   A    
C48   H26   S    
C52   O15   D    
C48   H25   S    
C7    C39   A    
C8    C40   A    
C1    O1    A    
C34   C44   S    
C1    C36   S    
