data_mof_unit_46935.cif
_audit_creation_date              2013-03-05T15:40:57-0500
_audit_creation_method            fapswitch 2.2
_symmetry_space_group_name_H-M    P1
_symmetry_Int_Tables_number       1
_space_group_crystal_system       triclinic
_cell_length_a                    7.827282
_cell_length_b                    8.560387
_cell_length_c                    13.498686
_cell_angle_alpha                 93.206432
_cell_angle_beta                  92.902709
_cell_angle_gamma                 94.231799
_cell_volume                      899.232216974

loop_
_atom_site_label
_atom_site_type_symbol
_atom_site_description
_atom_site_fract_x
_atom_site_fract_y
_atom_site_fract_z
_atom_type_partial_charge
O1    O     O_R   0.891570 0.738930 0.506190 -0.599962
O2    O     O_R   0.108430 0.261070 0.493810 -0.605687
O3    O     O_R   0.174650 0.711050 0.490030 -0.627706
O4    O     O_R   0.825350 0.288950 0.509970 -0.605925
C1    C     C_R   0.045315 0.794799 0.497807 0.963419
C2    C     C_R   0.954801 0.205249 0.502698 0.962727
O5    O     O_R   0.909850 0.521900 0.644940 -0.543083
O6    O     O_R   0.090150 0.478100 0.355060 -0.562515
O7    O     O_R   0.192930 0.494020 0.628780 -0.592359
O8    O     O_R   0.807070 0.505980 0.371220 -0.620454
C3    C     C_R   0.063439 0.516650 0.683291 0.906351
C4    C     C_R   0.937331 0.485708 0.316457 0.894871
Zn1   Zn    Zn3+2 0.810990 0.518620 0.510790 1.043314
Zn2   Zn    Zn3+2 0.189010 0.481380 0.489210 1.034632
C5    C     C_R   0.100048 0.563431 0.788383 -0.194834
C6    C     C_R   0.911980 0.472290 0.207986 -0.193734
C7    C     C_R   0.136443 0.776095 0.915447 -0.209742
C8    C     C_R   0.966186 0.356205 0.045507 -0.208233
C9    C     C_R   0.045468 0.704951 0.831013 0.302658
C10   C     C_R   0.016248 0.385123 0.146077 0.335184
C11   C     C_R   0.234812 0.493144 0.834560 -0.249799
C12   C     C_R   0.772972 0.542261 0.165969 -0.174657
C13   C     C_R   0.346022 0.578736 0.905070 0.124360
C14   C     C_R   0.733374 0.527152 0.063850 0.109773
C15   C     C_R   0.288622 0.716941 0.950761 0.037137
C16   C     C_R   0.820549 0.420425 0.005579 0.035265
C17   C     C_R   0.511131 0.531027 0.932125 -0.001303
C18   C     C_R   0.595105 0.601237 0.021173 -0.012552
C19   C     C_R   0.540352 0.744417 0.062723 0.262577
C20   C     C_R   0.602321 0.424100 0.872844 0.291488
C21   C     C_R   0.388070 0.799779 0.027307 -0.167894
C22   C     C_R   0.758327 0.375711 0.909279 -0.187971
H1    H     H_    0.349258 0.910403 0.058372 0.212145
H2    H     H_    0.828403 0.297723 0.863131 0.193420
H3    H     H_    0.689300 0.601666 0.214385 0.212094
H4    H     H_    0.257185 0.375230 0.809302 0.199785
H5    H     H_    0.094692 0.883730 0.949253 0.194330
H6    H     H_    0.038959 0.280808 0.999231 0.174568
C23   C     C_2   0.068957 0.958559 0.496753 -0.320031
C24   C     C_2   0.931337 0.041571 0.504578 -0.290560
H7    H     H_    0.198533 0.010176 0.489284 0.189956
H8    H     H_    0.801790 0.989971 0.512170 0.193810
N1    N     N_2   0.440860 0.456490 0.474790 -0.136144
N2    N     N_2   0.559140 0.543510 0.525210 -0.126808
H9    H     H_    0.486912 0.372973 0.427458 0.219289
H10   H     H_    0.513093 0.627243 0.572397 0.228091
N3    N     N_R   0.166206 0.317554 0.184377 0.209405
O9    O     O_R   0.303238 0.408493 0.211163 -0.393377
O10   O     O_R   0.179598 0.167532 0.169648 -0.385129
N4    N     N_R   0.909414 0.784740 0.785754 0.206572
O11   O     O_R   0.927326 0.936210 0.779699 -0.407762
O12   O     O_R   0.758042 0.712667 0.767890 -0.365750
Br1   Br    Br    0.684567 0.891793 0.149440 -0.485777
Br2   Br    Br    0.551420 0.359877 0.734748 -0.467471

loop_
_geom_bond_atom_site_label_1
_geom_bond_atom_site_label_2
_geom_bond_distance
_ccdc_geom_bond_type
C15   C21   1.389800 A    
N4    O12   1.299679 A    
O7    Zn2   1.879626 S    
C21   H1    1.084362 S    
C16   C22   1.387885 A    
C13   C17   1.420255 A    
C19   Br1   1.930500 S    
C20   Br2   1.927098 S    
N3    O9    1.301237 A    
C8    C16   1.398430 A    
O6    C4    1.287915 A    
N1    N2    1.285669 D    
C7    C15   1.400361 A    
C24   H8    1.087798 S    
N4    O11   1.301456 A    
C8    H6    1.084640 S    
C23   H7    1.087780 S    
C11   H4    1.076766 S    
C7    H5    1.084676 S    
C17   C20   1.435269 A    
C20   C22   1.393263 A    
C12   H3    1.081667 S    
N1    H9    1.029344 S    
C9    N4    1.435960 S    
O7    C3    1.301863 A    
C2    C24   1.401452 S    
O2    C2    1.274734 A    
O3    Zn2   1.976985 S    
O8    C4    1.305461 A    
C19   C21   1.387406 A    
O1    C1    1.274611 A    
O4    C2    1.288043 A    
C18   C19   1.423201 A    
C7    C9    1.397552 A    
C14   C16   1.408895 A    
O5    C3    1.289498 A    
C8    C10   1.397138 A    
C11   C13   1.394430 A    
O2    Zn2   1.949345 S    
C12   C14   1.394210 A    
C5    C11   1.390058 A    
C10   N3    1.432399 S    
O1    Zn1   1.949346 S    
C6    C12   1.391407 A    
C6    C10   1.417904 A    
C23   C24   1.338866 D    
C14   C18   1.408692 A    
O5    Zn1   1.930782 S    
C13   C15   1.416628 A    
N3    O10   1.301238 A    
C17   C18   1.420915 A    
C1    C23   1.401367 S    
O6    Zn2   1.930783 S    
C5    C9    1.415835 A    
C3    C5    1.460570 S    
Zn1   N2    2.016316 S    
C4    C6    1.464544 S    
O4    Zn1   1.976984 S    
N2    H10   1.029426 S    
Zn2   N1    2.016315 S    
O3    C1    1.288138 A    
O8    Zn1   1.879627 S    
C22   H2    1.084767 S    
