data_mof_unit_41087.cif
_audit_creation_date              2012-12-11T14:39:23-0500
_audit_creation_method            fapswitch 2.2
_symmetry_space_group_name_H-M    P1
_symmetry_Int_Tables_number       1
_space_group_crystal_system       triclinic
_cell_length_a                    7.218703
_cell_length_b                    14.09782
_cell_length_c                    16.288825
_cell_angle_alpha                 89.999876
_cell_angle_beta                  97.40132
_cell_angle_gamma                 89.999986
_cell_volume                      1643.86927106

loop_
_atom_site_label
_atom_site_type_symbol
_atom_type_description
_atom_site_fract_x
_atom_site_fract_y
_atom_site_fract_z
_atom_type_partial_charge
O1    O     O_R   0.525340 0.338340 0.164530 -0.552779
O2    O     O_R   0.474660 0.661660 0.835470 -0.552778
O3    O     O_R   0.974660 0.838340 0.835470 -0.552780
O4    O     O_R   0.025340 0.161660 0.164530 -0.552780
O5    O     O_R   0.253520 0.352000 0.336710 -0.522418
O6    O     O_R   0.746480 0.648000 0.663290 -0.522418
O7    O     O_R   0.246480 0.852000 0.663290 -0.522418
O8    O     O_R   0.753520 0.148000 0.336710 -0.522418
O9    O     O_R   0.083330 0.168380 0.337300 -0.501902
O10   O     O_R   0.916670 0.831620 0.662700 -0.501902
O11   O     O_R   0.416670 0.668380 0.662700 -0.501900
O12   O     O_R   0.583330 0.331620 0.337300 -0.501900
C1    C     C_R   0.432366 0.368390 0.363901 0.834964
C2    C     C_R   0.567634 0.631610 0.636099 0.834964
C3    C     C_R   0.067633 0.868389 0.636099 0.834964
C4    C     C_R   0.932367 0.131610 0.363901 0.834964
O13   O     O_R   0.195840 0.349670 0.165140 -0.553670
O14   O     O_R   0.804160 0.650330 0.834860 -0.553670
O15   O     O_R   0.304160 0.849670 0.834860 -0.553670
O16   O     O_R   0.695840 0.150330 0.165140 -0.553670
C5    C     C_R   0.357163 0.371981 0.137679 0.695789
C6    C     C_R   0.642837 0.628019 0.862321 0.695789
C7    C     C_R   0.142836 0.871981 0.862321 0.695788
C8    C     C_R   0.857163 0.128019 0.137679 0.695788
O17   O     O_3   0.387830 0.193120 0.250910 -0.375977
O18   O     O_3   0.612170 0.806880 0.749090 -0.375976
O19   O     O_3   0.112170 0.693120 0.749090 -0.375976
O20   O     O_3   0.887830 0.306880 0.250910 -0.375976
V1    V     V_3+5 0.113010 0.264540 0.250910 1.516835
V2    V     V_3+5 0.886990 0.735460 0.749090 1.516835
V3    V     V_3+5 0.386990 0.764540 0.749090 1.516836
V4    V     V_3+5 0.613010 0.235460 0.250910 1.516836
H1    H     H_    0.030726 0.816084 0.255752 0.145834
H2    H     H_    0.969274 0.183916 0.744248 0.145834
H3    H     H_    0.469358 0.316075 0.744251 0.145835
H4    H     H_    0.530642 0.683925 0.255749 0.145835
C9    C     C_R   0.937708 0.194969 0.534847 0.631853
C10   C     C_R   0.062292 0.805031 0.465153 0.631853
C11   C     C_R   0.562267 0.694971 0.465152 0.631854
C12   C     C_R   0.437732 0.305029 0.534848 0.631854
C13   C     C_R   0.938104 0.224673 0.616482 -0.177687
C14   C     C_R   0.061896 0.775327 0.383518 -0.177687
C15   C     C_R   0.561849 0.724678 0.383516 -0.177689
C16   C     C_R   0.438151 0.275322 0.616484 -0.177689
C17   C     C_R   0.968963 0.160117 0.681041 -0.223851
C18   C     C_R   0.031037 0.839883 0.318958 -0.223851
C19   C     C_R   0.530974 0.660124 0.318956 -0.223857
C20   C     C_R   0.469025 0.339876 0.681044 -0.223857
C21   C     C_R   0.000042 0.065002 0.664699 -0.151487
C22   C     C_R   0.999958 0.934998 0.335301 -0.151487
C23   C     C_R   0.499910 0.565007 0.335299 -0.151488
C24   C     C_R   0.500090 0.434993 0.664701 -0.151488
C25   C     C_R   0.000073 0.032042 0.582551 -0.016789
C26   C     C_R   0.999927 0.967958 0.417449 -0.016789
C27   C     C_R   0.499906 0.532044 0.417448 -0.016789
C28   C     C_R   0.500094 0.467956 0.582552 -0.016789
C29   C     C_R   0.967906 0.097805 0.516088 -0.013077
C30   C     C_R   0.032094 0.902195 0.483912 -0.013077
C31   C     C_R   0.532079 0.597807 0.483911 -0.013075
C32   C     C_R   0.467921 0.402193 0.516088 -0.013075
C33   C     C_R   0.032342 0.935045 0.566393 -0.120962
C34   C     C_R   0.967658 0.064954 0.433606 -0.120962
C35   C     C_R   0.467655 0.435046 0.433606 -0.120961
C36   C     C_R   0.532345 0.564954 0.566394 -0.120962
H5    H     H_    0.914574 0.298648 0.629773 0.151893
H6    H     H_    0.085426 0.701351 0.370226 0.151893
H7    H     H_    0.585370 0.798655 0.370224 0.151893
H8    H     H_    0.414629 0.201345 0.629776 0.151893
H9    H     H_    0.024004 0.017723 0.717322 0.099417
H10   H     H_    0.975996 0.982276 0.282678 0.099417
H11   H     H_    0.475938 0.517730 0.282676 0.099414
H12   H     H_    0.524062 0.482270 0.717324 0.099414
H13   H     H_    0.138037 0.066338 0.056561 0.155671
H14   H     H_    0.861963 0.933662 0.943439 0.155671
H15   H     H_    0.361963 0.566338 0.943439 0.155671
H16   H     H_    0.638036 0.433662 0.056561 0.155671
C37   C     C_2   0.149983 0.942082 0.930588 -0.325074
C38   C     C_2   0.850016 0.057918 0.069412 -0.325074
C39   C     C_2   0.350016 0.442082 0.069412 -0.325074
C40   C     C_2   0.649984 0.557918 0.930588 -0.325075
C41   C     C_2   0.996160 0.965629 0.965499 -0.133372
C42   C     C_2   0.003840 0.034371 0.034501 -0.133371
C43   C     C_2   0.503840 0.465629 0.034501 -0.133370
C44   C     C_2   0.496160 0.534371 0.965499 -0.133370
H17   H     H_    0.716225 0.025990 0.046572 0.125385
H18   H     H_    0.283775 0.974010 0.953428 0.125385
H19   H     H_    0.783775 0.525989 0.953428 0.125385
H20   H     H_    0.216225 0.474011 0.046572 0.125385
F1    F     F_    0.908724 0.262836 0.475501 -0.688594
F2    F     F_    0.091276 0.737164 0.524498 -0.688594
F3    F     F_    0.591266 0.762837 0.524498 -0.688595
F4    F     F_    0.408734 0.237163 0.475502 -0.688595

loop_
_geom_bond_atom_site_label_1
_geom_bond_atom_site_label_2
_ccdc_geom_bond_type
O1    C5    A    
C12   C32   A    
C27   C31   A    
O13   V1    S    
O3    C7    A    
C40   C44   D    
O15   V3    S    
C41   C42   S    
C29   C34   A    
C31   C36   A    
C22   C26   A    
C4    C34   S    
C32   C35   A    
O20   V1    S    
O9    C4    A    
C10   C14   A    
C40   H19   S    
O10   C3    A    
C26   C30   A    
O4    C8    A    
O11   C2    A    
H15   C44   S    
H4    C19   S    
C14   C18   A    
O10   V2    S    
C10   C30   A    
C25   C33   A    
O16   C8    A    
C27   C35   A    
O2    C6    A    
C28   C36   A    
O14   V2    S    
C37   C41   D    
O5    C1    A    
O4    V1    S    
O9    V1    S    
C30   C33   A    
O7    C3    A    
O11   V3    S    
O18   V3    S    
O8    C4    A    
C21   H9    S    
O12   V4    S    
O19   V2    S    
C9    C13   A    
H1    C18   S    
C23   H11   S    
H3    C20   S    
H16   C43   S    
C11   F3    S    
C39   H20   S    
O5    V1    S    
O7    V3    S    
O8    V4    S    
C25   C29   A    
C19   C23   A    
C26   C34   A    
O1    V4    S    
O13   C5    A    
C28   C32   A    
O2    V3    S    
O3    V2    S    
O15   C7    A    
C24   H12   S    
O6    C2    A    
C38   C42   D    
C43   C44   S    
C1    C35   S    
C17   C21   A    
C11   C31   A    
C5    C39   S    
C3    C33   S    
H2    C17   S    
C7    C37   S    
C2    C36   S    
C38   H17   S    
C8    C38   S    
O6    V2    S    
C37   H18   S    
C16   H8    S    
H14   C41   S    
H13   C42   S    
O16   V4    S    
C10   F2    S    
O14   C6    A    
C11   C15   A    
C18   C22   A    
C9    F1    S    
C22   H10   S    
C6    C40   S    
C39   C43   D    
O17   V4    S    
C21   C25   A    
C23   C27   A    
C13   H5    S    
C12   F4    S    
C16   C20   A    
C12   C16   A    
O12   C1    A    
C15   H7    S    
C14   H6    S    
C13   C17   A    
C20   C24   A    
C15   C19   A    
C9    C29   A    
C24   C28   A    
