data_mof_unit_62183.cif
_audit_creation_date              2012-10-26T19:11:15-0400
_audit_creation_method            fapswitch 2.2
_symmetry_space_group_name_H-M    P1
_symmetry_Int_Tables_number       1
_space_group_crystal_system       triclinic
_cell_length_a                    15.882548
_cell_length_b                    15.92828
_cell_length_c                    14.672942
_cell_angle_alpha                 90.427359
_cell_angle_beta                  90.442394
_cell_angle_gamma                 89.90678
_cell_volume                      3711.76692193

loop_
_atom_site_label
_atom_site_type_symbol
_atom_type_description
_atom_site_fract_x
_atom_site_fract_y
_atom_site_fract_z
_atom_type_partial_charge
C1    C     C_R   0.499985 0.339965 0.499693 0.559921
C2    C     C_3   0.495951 0.049298 0.394988 0.003823
C3    C     C_3   0.489063 0.950233 0.397182 -0.064157
C4    C     C_R   0.339447 0.499907 0.499634 0.547229
C5    C     C_1   0.500719 0.749310 0.500586 0.061049
C6    C     C_3   0.499946 0.083263 0.497624 -0.005710
C7    C     C_3   0.587151 0.951849 0.543339 0.107534
C8    C     C_3   0.503782 0.916743 0.497180 -0.023216
C9    C     C_3   0.426781 0.949412 0.552843 -0.300281
C10   C     C_3   0.424143 0.047593 0.556286 0.066528
C11   C     C_1   0.501919 0.824546 0.499385 0.039517
C12   C     C_3   0.082899 0.498002 0.498459 0.006111
C13   C     C_1   0.499932 0.175519 0.498416 0.033717
C14   C     C_1   0.499951 0.250767 0.498921 0.062488
C15   C     C_3   0.467803 0.585102 0.053043 -0.012985
C16   C     C_R   0.499939 0.660060 0.500266 0.551309
C17   C     C_3   0.436721 0.432113 0.054031 -0.265141
C18   C     C_3   0.434503 0.430408 0.945779 0.011635
C19   C     C_3   0.499033 0.499250 0.092195 -0.007231
C20   C     C_3   0.474380 0.586730 0.947088 -0.199399
C21   C     C_3   0.498386 0.498688 0.908012 -0.037226
C22   C     C_3   0.588022 0.480090 0.947068 -0.239128
C23   C     C_3   0.972170 0.573804 0.525767 -0.132949
C24   C     C_3   0.587220 0.474608 0.053177 -0.001620
C25   C     C_1   0.500767 0.500623 0.804776 0.175027
C26   C     C_1   0.498437 0.498710 0.195214 0.189340
C27   C     C_R   0.660544 0.499932 0.500346 0.557991
C28   C     C_3   0.972910 0.439196 0.556216 0.115585
C29   C     C_3   0.028200 0.422180 0.471702 0.100967
C30   C     C_1   0.249869 0.499396 0.498909 0.020945
C31   C     C_1   0.750100 0.499408 0.500855 0.052490
C32   C     C_3   0.028998 0.514880 0.583361 -0.104077
C33   C     C_2   0.534373 0.906671 0.318985 0.299934
C34   C     C_3   0.917102 0.497941 0.499057 0.037648
C35   C     C_2   0.427562 0.078037 0.654819 0.304375
C36   C     C_2   0.593770 0.920692 0.641281 0.287977
C37   C     C_2   0.344065 0.444836 0.913792 0.259430
C38   C     C_2   0.458252 0.343170 0.911547 0.241772
C39   C     C_2   0.941963 0.462791 0.319934 0.280750
C40   C     C_2   0.423954 0.087910 0.340210 0.278309
C41   C     C_3   0.027658 0.557055 0.440825 -0.146697
C42   C     C_3   0.971727 0.481207 0.415105 0.011746
C43   C     C_1   0.174424 0.498820 0.498610 -0.001905
C44   C     C_1   0.825529 0.498795 0.500383 0.048077
C45   C     C_3   0.585177 0.050405 0.540242 -0.080251
Cu1   Cu    Cu3+1 0.499890 0.499910 0.589920 1.075521
Cu2   Cu    Cu3+1 0.500110 0.500090 0.410080 1.077746
H1    H     H_    0.422604 0.933218 0.381306 0.154336
H2    H     H_    0.522619 0.633274 0.926466 0.161053
H3    H     H_    0.613470 0.420648 0.918165 0.118406
H4    H     H_    0.051163 0.605305 0.393138 0.142417
H5    H     H_    0.948164 0.636080 0.548071 0.157797
H6    H     H_    0.053824 0.528616 0.652803 0.158284
H7    H     H_    0.636789 0.070736 0.495834 0.195126
H8    H     H_    0.527855 0.931994 0.250843 0.178979
H9    H     H_    0.437636 0.034749 0.710517 0.112022
H10   H     H_    0.554017 0.947193 0.693737 0.104170
H11   H     H_    0.293710 0.409062 0.944607 0.154007
H12   H     H_    0.426570 0.921188 0.621875 0.095611
H13   H     H_    0.505507 0.334881 0.859222 0.137937
H14   H     H_    0.987670 0.452611 0.266436 0.127479
H15   H     H_    0.410789 0.154566 0.346344 0.147438
H16   H     H_    0.367725 0.924815 0.521482 0.162096
H17   H     H_    0.413966 0.609323 0.917569 0.174028
H18   H     H_    0.400065 0.592137 0.070595 0.133609
H19   H     H_    0.454773 0.369727 0.081920 0.167510
H20   H     H_    0.373005 0.444847 0.082273 0.108347
H21   H     H_    0.599751 0.408052 0.071662 0.144882
H22   H     H_    0.631999 0.530301 0.925467 0.171171
I1    I     I_    0.075090 0.302517 0.428099 -0.201028
I2    I     I_    0.603321 0.094761 0.315812 -0.282902
I3    I     I_    0.299693 0.088438 0.511454 -0.222063
I4    I     I_    0.632180 0.116740 0.661240 -0.239624
I5    I     I_    0.928082 0.347431 0.649587 -0.204712
I6    I     I_    0.694036 0.538532 0.112935 -0.185702
I7    I     I_    0.522419 0.696301 0.113880 -0.225770
I8    I     I_    0.701241 0.909503 0.474035 -0.108597
N1    N     N_1   0.501700 0.501390 0.724970 -0.166565
N2    N     N_1   0.498280 0.498620 0.275030 -0.165450
O1    O     O_R   0.499910 0.379360 0.575970 -0.472128
O2    O     O_2   0.418202 0.152304 0.673636 -0.427065
O3    O     O_2   0.642423 0.864674 0.662816 -0.437822
O4    O     O_2   0.326118 0.493753 0.852951 -0.500544
O5    O     O_2   0.422215 0.280928 0.939777 -0.457656
O6    O     O_2   0.866917 0.459109 0.302027 -0.442555
O7    O     O_2   0.382643 0.046879 0.285254 -0.467749
O8    O     O_R   0.500090 0.379510 0.424100 -0.502042
O9    O     O_R   0.378990 0.499920 0.575920 -0.471008
O10   O     O_R   0.379170 0.500070 0.424050 -0.504543
O11   O     O_R   0.499910 0.620490 0.575900 -0.497809
O12   O     O_R   0.500090 0.620640 0.424030 -0.469276
O13   O     O_R   0.620830 0.499930 0.575950 -0.499589
O14   O     O_R   0.621010 0.500080 0.424080 -0.462852
O15   O     O_2   0.573620 0.841401 0.328522 -0.436173

loop_
_geom_bond_atom_site_label_1
_geom_bond_atom_site_label_2
_ccdc_geom_bond_type
C1    O8    A    
C16   O11   A    
C6    C45   S    
C29   C42   S    
C18   C21   S    
C7    C36   S    
C34   C42   S    
Cu2   N2    S    
C28   I5    S    
C33   O15   D    
C35   O2    D    
C7    C8    S    
C15   C19   S    
C17   H19   S    
C20   H2    S    
C7    C45   S    
C28   C29   S    
C18   C37   S    
C5    C11   T    
C12   C43   S    
C12   C29   S    
Cu1   O13   S    
C3    C33   S    
C15   H18   S    
C3    H1    S    
C40   H15   S    
C45   I4    S    
C41   C42   S    
C40   O7    D    
C19   C26   S    
C5    C16   S    
C36   O3    D    
C8    C9    S    
C10   C35   S    
C9    C10   S    
C22   H22   S    
C37   H11   S    
C22   H3    S    
C15   I7    S    
C28   C34   S    
C13   C14   T    
C12   C32   S    
Cu2   O10   S    
C2    C6    S    
C27   O13   A    
C39   C42   S    
Cu1   O9    S    
C15   C20   S    
C39   H14   S    
C17   H20   S    
C31   C44   T    
C27   C31   S    
C25   N1    T    
C28   C32   S    
C34   C44   S    
C36   H10   S    
Cu1   N1    S    
C29   I1    S    
C9    H12   S    
Cu2   O8    S    
C20   H17   S    
C12   C41   S    
C23   C34   S    
C17   C18   S    
Cu2   O14   S    
C33   H8    S    
Cu1   O11   S    
C45   H7    S    
C3    C8    S    
C38   H13   S    
C30   C43   T    
C27   O14   A    
C39   O6    D    
C2    I2    S    
C32   H6    S    
C4    O10   A    
C21   C25   S    
Cu1   Cu2   S    
C38   O5    D    
C35   H9    S    
C9    H16   S    
Cu2   O12   S    
C6    C10   S    
C24   I6    S    
C4    O9    A    
C26   N2    T    
C23   C41   S    
C7    I8    S    
C23   C32   S    
C2    C3    S    
C18   C38   S    
C6    C13   S    
Cu1   O1    S    
C23   H5    S    
C8    C11   S    
C17   C19   S    
C19   C24   S    
C22   C24   S    
C24   H21   S    
C2    C40   S    
C20   C21   S    
C16   O12   A    
C1    O1    A    
C37   O4    D    
C1    C14   S    
C21   C22   S    
C41   H4    S    
C4    C30   S    
C10   I3    S    
