data_mof_unit_7483.cif
_audit_creation_date              2012-12-10T18:56:23-0500
_audit_creation_method            fapswitch 2.2
_symmetry_space_group_name_H-M    P1
_symmetry_Int_Tables_number       1
_space_group_crystal_system       triclinic
_cell_length_a                    10.722896
_cell_length_b                    10.03735
_cell_length_c                    19.268739
_cell_angle_alpha                 89.432887
_cell_angle_beta                  99.812647
_cell_angle_gamma                 89.986298
_cell_volume                      2043.43967799

loop_
_atom_site_label
_atom_site_type_symbol
_atom_type_description
_atom_site_fract_x
_atom_site_fract_y
_atom_site_fract_z
_atom_type_partial_charge
C1    C     C_R   0.872090 0.499270 0.498886 -0.072188
C2    C     C_R   0.128093 0.499079 0.501494 -0.076306
C3    C     C_R   0.447234 0.620549 0.957967 -0.168768
C4    C     C_R   0.418824 0.380535 0.028181 -0.166775
C5    C     C_R   0.450867 0.619828 0.030077 -0.166570
C6    C     C_R   0.419622 0.380686 0.956237 -0.163552
C7    C     C_R   0.438672 0.499545 0.066043 0.106748
C8    C     C_R   0.436518 0.500506 0.920918 0.104377
C9    C     C_R   0.260670 0.499818 0.500998 0.910579
C10   C     C_R   0.739376 0.499869 0.499088 0.914274
C11   C     C_R   0.500375 0.500596 0.366046 0.891292
C12   C     C_R   0.497906 0.499274 0.633497 0.888183
C13   C     C_R   0.063164 0.377801 0.497225 -0.139613
C14   C     C_R   0.936966 0.620175 0.502249 -0.142410
C15   C     C_R   0.935039 0.377843 0.496403 -0.140468
C16   C     C_R   0.065337 0.619900 0.505208 -0.138615
C17   C     C_R   0.400378 0.408132 0.729984 -0.142405
C18   C     C_R   0.433257 0.610524 0.250844 -0.150454
C19   C     C_R   0.530450 0.391775 0.255545 -0.126091
C20   C     C_R   0.553647 0.586969 0.753355 -0.152943
C21   C     C_R   0.382174 0.410632 0.799532 -0.146455
C22   C     C_R   0.411954 0.607373 0.178050 -0.169900
C23   C     C_R   0.513713 0.390698 0.182503 -0.142646
C24   C     C_R   0.538596 0.586782 0.823287 -0.157578
C25   C     C_R   0.451496 0.499850 0.846778 0.102388
C26   C     C_R   0.453118 0.498121 0.143123 0.100911
C27   C     C_R   0.584992 0.072084 0.549840 0.268448
C28   C     C_R   0.412660 0.928322 0.451630 0.274525
C29   C     C_R   0.414320 0.073983 0.450594 0.270546
C30   C     C_R   0.586735 0.926480 0.548629 0.279453
C31   C     C_R   0.485248 0.497187 0.706843 -0.048116
C32   C     C_R   0.490205 0.501846 0.289926 -0.069364
H1    H     H_    0.110739 0.283239 0.494464 0.202567
H2    H     H_    0.889149 0.714765 0.502775 0.220101
H3    H     H_    0.885811 0.283274 0.493573 0.193773
H4    H     H_    0.114851 0.714018 0.510311 0.215525
H5    H     H_    0.345741 0.339496 0.693792 0.155735
H6    H     H_    0.402351 0.696866 0.276245 0.226774
H7    H     H_    0.575927 0.307487 0.285113 0.173632
H8    H     H_    0.619941 0.655612 0.736009 0.207545
H9    H     H_    0.313124 0.344033 0.816001 0.140420
H10   H     H_    0.362817 0.690512 0.149329 0.150504
H11   H     H_    0.549819 0.306742 0.157139 0.138899
H12   H     H_    0.596247 0.653769 0.858989 0.147046
H13   H     H_    0.456737 0.714867 0.931621 0.141660
H14   H     H_    0.405786 0.286841 0.054299 0.142706
H15   H     H_    0.467921 0.713172 0.057682 0.138615
H16   H     H_    0.411787 0.286450 0.929015 0.141671
N1    N     N_R   0.500000 0.857200 0.500000 -0.233741
N2    N     N_R   0.500000 0.142800 0.500000 -0.236846
O1    O     O_R   0.316770 0.614620 0.500000 -0.565196
O2    O     O_R   0.683230 0.385380 0.500000 -0.575371
O3    O     O_R   0.683230 0.614620 0.500000 -0.568663
O4    O     O_R   0.316770 0.385380 0.500000 -0.575625
O5    O     O_R   0.500030 0.614710 0.398180 -0.567127
O6    O     O_R   0.499970 0.385290 0.601820 -0.553253
O7    O     O_R   0.499970 0.614710 0.601820 -0.556656
O8    O     O_R   0.500030 0.385290 0.398180 -0.557395
Zn1   Zn    Zn3+2 0.500000 0.653120 0.500000 1.096084
Zn2   Zn    Zn3+2 0.500000 0.346880 0.500000 1.093878
S1    S     S_3+6 0.682940 0.157732 0.624124 0.116054
O9    O     O_2   0.616039 0.139433 0.686091 -0.279246
O10   O     O_2   0.812720 0.098441 0.642492 -0.203861
O11   O     O_3   0.717735 0.319436 0.620566 -0.528378
H17   H     H_    0.756671 0.343623 0.669198 0.358949
S2    S     S_3+6 0.286112 0.844290 0.391974 0.088881
O12   O     O_2   0.165069 0.875796 0.417921 -0.293692
O13   O     O_2   0.279156 0.899389 0.318715 -0.240673
O14   O     O_3   0.282132 0.680114 0.379037 -0.547276
H18   H     H_    0.198675 0.662055 0.349744 0.360994
S3    S     S_3+6 0.310491 0.161916 0.378566 0.107975
O15   O     O_2   0.366291 0.138483 0.313218 -0.289824
O16   O     O_2   0.179179 0.105715 0.368198 -0.212719
O17   O     O_3   0.281161 0.325194 0.379213 -0.529800
H19   H     H_    0.235023 0.347425 0.331447 0.362591
S4    S     S_3+6 0.709590 0.840376 0.610507 0.091167
O18   O     O_2   0.833733 0.878504 0.589669 -0.297769
O19   O     O_2   0.705022 0.889389 0.683452 -0.238452
O20   O     O_3   0.718411 0.675229 0.621246 -0.549181
H20   H     H_    0.799762 0.657938 0.653046 0.356494

loop_
_geom_bond_atom_site_label_1
_geom_bond_atom_site_label_2
_ccdc_geom_bond_type
S2    O13   D    
O5    Zn1   S    
C19   C23   A    
C9    O1    A    
S4    O20   S    
C10   O2    A    
O3    Zn1   S    
O4    Zn2   S    
C5    H15   S    
C7    C26   S    
C6    H16   S    
C28   C29   A    
S4    O19   D    
C4    H14   S    
O7    Zn1   S    
S2    O14   S    
O8    Zn2   S    
C23   H11   S    
C23   C26   A    
S1    O10   D    
C10   O3    A    
O2    Zn2   S    
C20   C24   A    
C1    C15   A    
C11   O8    A    
C2    C16   A    
C27   N2    A    
S2    O12   D    
C27   C30   A    
C8    C25   S    
O14   H18   S    
C4    C7    A    
C19   C32   A    
C15   H3    S    
C29   N2    A    
O17   H19   S    
S4    O18   D    
C4    C6    A    
C3    C8    A    
C5    C7    A    
C6    C8    A    
C3    H13   S    
C17   C21   A    
O6    Zn2   S    
C27   S1    S    
S1    O11   S    
C28   S2    S    
C13   H1    S    
C30   S4    S    
C28   N1    A    
C20   H8    S    
C17   H5    S    
C24   C25   A    
C2    C13   A    
C12   O6    A    
C19   H7    S    
C21   H9    S    
C12   O7    A    
C30   N1    A    
C11   C32   S    
C13   C15   A    
C12   C31   S    
C17   C31   A    
C14   C16   A    
O1    Zn1   S    
C11   O5    A    
S3    O16   D    
C21   C25   A    
C18   C22   A    
C1    C10   S    
C3    C5    A    
C14   H2    S    
S3    O17   S    
C9    O4    A    
N1    Zn1   S    
N2    Zn2   S    
O11   H17   S    
C18   H6    S    
S3    O15   D    
C16   H4    S    
C22   H10   S    
C24   H12   S    
S1    O9    D    
O20   H20   S    
C18   C32   A    
C22   C26   A    
C1    C14   A    
C2    C9    S    
C29   S3    S    
C20   C31   A    
