data_mof_unit_13750.cif
_audit_creation_date              2012-12-11T15:23:50-0500
_audit_creation_method            fapswitch 2.2
_symmetry_space_group_name_H-M    P1
_symmetry_Int_Tables_number       1
_space_group_crystal_system       triclinic
_cell_length_a                    17.480701
_cell_length_b                    24.405786
_cell_length_c                    15.141474
_cell_angle_alpha                 89.689947
_cell_angle_beta                  126.000106
_cell_angle_gamma                 90.559843
_cell_volume                      5225.83977937

loop_
_atom_site_label
_atom_site_type_symbol
_atom_type_description
_atom_site_fract_x
_atom_site_fract_y
_atom_site_fract_z
_atom_type_partial_charge
C1    C     C_R   0.309343 0.379421 0.908329 -0.159137
C2    C     C_R   0.472758 0.498960 0.658932 0.050050
C3    C     C_R   0.050322 0.999820 0.357988 0.045040
C4    C     C_R   0.042568 0.000133 0.717986 0.047590
C5    C     C_R   0.202096 0.498234 0.632668 0.089134
C6    C     C_R   0.815750 0.499372 0.347525 0.093946
C7    C     C_R   0.674586 0.000754 0.690519 0.080680
C8    C     C_R   0.295519 0.999099 0.369298 0.083489
C9    C     C_2   0.962460 0.462193 0.399405 -0.090269
C10   C     C_2   0.063039 0.455601 0.476818 -0.078988
C11   C     C_2   0.423504 0.958846 0.541653 -0.061024
C12   C     C_R   0.688013 0.375754 0.091295 -0.166650
C13   C     C_2   0.522018 0.966542 0.631623 -0.097433
C14   C     C_2   0.917329 0.498263 0.419772 -0.147927
C15   C     C_2   0.119356 0.499479 0.519988 -0.161669
C16   C     C_2   0.369010 0.001912 0.486580 -0.179876
C17   C     C_2   0.573064 0.002841 0.619970 -0.159680
C18   C     C_R   0.276120 0.735632 0.948152 0.340249
C19   C     C_R   0.851324 0.681149 0.101554 0.454381
C20   C     C_R   0.823878 0.268626 0.952757 0.347979
C21   C     C_R   0.173377 0.270948 0.049141 0.346525
C22   C     C_R   0.778835 0.316388 0.951395 0.365748
C23   C     C_R   0.858120 0.845832 0.913312 -0.092961
C24   C     C_R   0.216387 0.319796 0.048234 0.367500
C25   C     C_R   0.230025 0.782323 0.945731 0.380653
C26   C     C_R   0.903008 0.725950 0.101779 0.364509
C27   C     C_R   0.736672 0.315140 0.006177 -0.052835
C28   C     C_R   0.258015 0.319635 0.992810 -0.050246
C29   C     C_R   0.186011 0.780297 0.998169 -0.058873
C30   C     C_R   0.863538 0.756216 0.004326 -0.125288
C31   C     C_R   0.733153 0.267852 0.055863 -0.289949
C32   C     C_R   0.262924 0.272414 0.944750 -0.289554
C33   C     C_R   0.180861 0.732951 0.046261 -0.300488
C34   C     C_R   0.163484 0.854369 0.090645 -0.128207
C35   C     C_R   0.794815 0.730686 0.905246 -0.234160
C36   C     C_R   0.219850 0.685387 0.041487 0.198643
C37   C     C_R   0.750282 0.683142 0.903987 0.169837
C38   C     C_R   0.770821 0.220339 0.051076 0.178997
C39   C     C_R   0.227330 0.224108 0.951745 0.177955
C40   C     C_R   0.402974 0.626556 0.088820 -0.089382
C41   C     C_R   0.597561 0.626662 0.910619 -0.104854
C42   C     C_R   0.928765 0.145093 0.090919 -0.077381
C43   C     C_R   0.069156 0.147488 0.911095 -0.098627
C44   C     C_R   0.266385 0.687035 0.991646 -0.124367
C45   C     C_R   0.315759 0.640451 0.995396 0.152096
C46   C     C_R   0.765670 0.665363 0.002129 -0.097833
C47   C     C_R   0.816159 0.221030 0.999960 -0.117204
C48   C     C_R   0.182465 0.223708 0.003304 -0.113202
C49   C     C_R   0.451696 0.539927 0.501877 -0.127765
C50   C     C_R   0.476021 0.542598 0.431448 -0.114765
C51   C     C_R   0.086203 0.050355 0.611296 -0.119478
C52   C     C_R   0.085110 0.050208 0.519388 -0.147467
C53   C     C_R   0.537741 0.503477 0.439057 0.129903
C54   C     C_R   0.489929 0.498552 0.579477 0.136484
C55   C     C_R   0.078683 0.000347 0.469799 0.128261
C56   C     C_R   0.688793 0.638500 0.001747 0.135183
C57   C     C_R   0.079437 0.000665 0.653062 0.136486
C58   C     C_R   0.577138 0.462480 0.517676 -0.157701
C59   C     C_R   0.553126 0.460020 0.588842 -0.133578
C60   C     C_R   0.090576 0.951005 0.524199 -0.145010
C61   C     C_R   0.091560 0.951199 0.616213 -0.145658
C62   C     C_R   0.540195 0.454527 0.298389 -0.087312
C63   C     C_R   0.471302 0.453246 0.709969 -0.099855
C64   C     C_R   0.037904 0.953845 0.297134 -0.092162
C65   C     C_R   0.014036 0.953927 0.745939 -0.081938
C66   C     C_R   0.246446 0.544170 0.696035 -0.195476
C67   C     C_R   0.857391 0.171765 0.998973 0.192635
C68   C     C_R   0.763220 0.545120 0.293492 -0.145996
C69   C     C_R   0.732064 0.046126 0.730823 -0.161177
C70   C     C_R   0.252706 0.044666 0.304282 -0.173014
C71   C     C_R   0.540776 0.546199 0.296041 -0.133562
C72   C     C_R   0.471083 0.545139 0.709112 -0.099117
C73   C     C_R   0.040189 0.045444 0.297316 -0.096421
C74   C     C_R   0.015596 0.045763 0.747735 -0.098164
C75   C     C_R   0.251338 0.452945 0.695742 0.164667
C76   C     C_R   0.759607 0.453874 0.295825 0.155444
C77   C     C_R   0.730561 0.954165 0.725553 0.194704
C78   C     C_R   0.141314 0.173784 0.003606 0.198898
C79   C     C_R   0.247513 0.953340 0.305454 0.184016
C80   C     C_R   0.310441 0.623789 0.905176 -0.000227
C81   C     C_R   0.689572 0.625627 0.092447 -0.080574
C82   C     C_R   0.837859 0.145955 0.907392 -0.066283
C83   C     C_R   0.163067 0.146006 0.094429 -0.052664
C84   C     C_R   0.401435 0.376143 0.090668 -0.085437
C85   C     C_R   0.595343 0.372646 0.908900 -0.073356
C86   C     C_R   0.941890 0.848666 0.093561 -0.124807
C87   C     C_R   0.068981 0.853337 0.907649 -0.068567
C88   C     C_R   0.311874 0.365050 0.997945 0.200565
C89   C     C_R   0.547555 0.501232 0.353570 0.050611
C90   C     C_R   0.683500 0.360048 0.001409 0.194246
C91   C     C_R   0.885690 0.814767 0.004349 0.098140
C92   C     C_R   0.142399 0.828079 0.999220 0.169695
H1    H     H_    0.251172 0.372859 0.823972 0.152905
H2    H     H_    0.299807 0.272341 0.906985 0.196604
H3    H     H_    0.144852 0.732924 0.085046 0.181922
H4    H     H_    0.773394 0.747781 0.827968 0.186163
H5    H     H_    0.402861 0.569591 0.495345 0.132796
H6    H     H_    0.443005 0.573541 0.368047 0.140020
H7    H     H_    0.083221 0.089495 0.642058 0.138644
H8    H     H_    0.081427 0.089292 0.483351 0.124900
H9    H     H_    0.624569 0.432320 0.522511 0.137500
H10   H     H_    0.584886 0.428881 0.651903 0.135826
H11   H     H_    0.091911 0.911879 0.492124 0.132800
H12   H     H_    0.745349 0.367818 0.174807 0.151559
H13   H     H_    0.093348 0.912216 0.651561 0.127337
H14   H     H_    0.431994 0.637739 0.171964 0.113783
H15   H     H_    0.566449 0.636660 0.827207 0.138061
H16   H     H_    0.967417 0.158400 0.174944 0.117573
H17   H     H_    0.028238 0.162925 0.828363 0.117862
H18   H     H_    0.549794 0.412565 0.326096 0.111835
H19   H     H_    0.462318 0.411206 0.683369 0.122433
H20   H     H_    0.048899 0.911573 0.322715 0.124398
H21   H     H_    0.019593 0.911750 0.730238 0.103118
H22   H     H_    0.234057 0.586022 0.667087 0.122327
H23   H     H_    0.831069 0.829134 0.834524 0.135018
H24   H     H_    0.783297 0.587078 0.320152 0.117343
H25   H     H_    0.710962 0.088484 0.713424 0.115729
H26   H     H_    0.263290 0.086509 0.332794 0.112960
H27   H     H_    0.552239 0.588658 0.321246 0.107569
H28   H     H_    0.462895 0.587131 0.682255 0.112867
H29   H     H_    0.056148 0.087645 0.323615 0.093774
H30   H     H_    0.023479 0.088281 0.735113 0.109606
H31   H     H_    0.255153 0.632435 0.820413 0.108006
H32   H     H_    0.744879 0.633664 0.176597 0.159376
H33   H     H_    0.794514 0.160887 0.824365 0.118050
H34   H     H_    0.212666 0.841160 0.173743 0.156269
H35   H     H_    0.208879 0.159022 0.178771 0.114665
H36   H     H_    0.428999 0.365832 0.173801 0.116553
H37   H     H_    0.566185 0.360602 0.826272 0.110848
H38   H     H_    0.982823 0.837948 0.178886 0.159594
H39   H     H_    0.028456 0.838268 0.824693 0.102615
H40   H     H_    0.924142 0.432263 0.334007 0.153526
H41   H     H_    0.084081 0.415559 0.513433 0.177047
H42   H     H_    0.406941 0.918173 0.508096 0.184126
H43   H     H_    0.556188 0.935439 0.694985 0.163355
H44   H     H_    0.360121 0.774140 0.923214 0.337058
H45   H     H_    0.954924 0.527999 0.485633 0.141839
H46   H     H_    0.942669 0.667978 0.258437 0.366988
H47   H     H_    0.901142 0.304331 0.915198 0.334499
H48   H     H_    0.095497 0.304609 0.086472 0.334441
H49   H     H_    0.777082 0.353752 0.836590 0.323663
H50   H     H_    0.217327 0.356900 0.162084 0.328749
H51   H     H_    0.232063 0.821142 0.834639 0.322801
H52   H     H_    0.030405 0.753145 0.174009 0.328413
H53   H     H_    0.093304 0.539366 0.481656 0.150114
H54   H     H_    0.390954 0.042456 0.523305 0.142712
H55   H     H_    0.540376 0.033469 0.555579 0.144347
H56   H     H_    0.696195 0.267134 0.093546 0.195200
I1    I     I_    0.208145 0.613226 0.112038 -0.373848
I2    I     I_    0.677902 0.637482 0.755724 -0.403907
I3    I     I_    0.749939 0.148792 0.116216 -0.376273
I4    I     I_    0.250108 0.153138 0.888598 -0.407642
I5    I     I_    0.264383 0.376053 0.639540 -0.467811
I6    I     I_    0.775251 0.379138 0.377026 -0.445576
I7    I     I_    0.684055 0.877955 0.642687 -0.439123
I8    I     I_    0.232200 0.876576 0.362112 -0.492571
N1    N     N_R   0.395440 0.396300 0.944370 -0.042871
N2    N     N_R   0.474910 0.470990 0.794360 -0.037964
N3    N     N_R   0.025090 0.970990 0.205640 -0.040407
N4    N     N_R   0.974910 0.970990 0.794360 -0.045155
N5    N     N_R   0.320240 0.527820 0.794510 -0.057316
N6    N     N_R   0.679760 0.527820 0.205490 -0.057459
N7    N     N_R   0.820240 0.027820 0.794510 -0.057721
N8    N     N_R   0.179760 0.027820 0.205490 -0.053175
N9    N     N_R   0.524580 0.527810 0.205160 -0.042762
N10   N     N_R   0.475420 0.527810 0.794840 -0.044467
N11   N     N_R   0.024580 0.027810 0.205160 -0.044095
N12   N     N_R   0.604560 0.396300 0.055630 -0.043990
N13   N     N_R   0.975420 0.027810 0.794840 -0.046342
N14   N     N_R   0.320750 0.470990 0.794990 -0.060873
N15   N     N_R   0.679250 0.470990 0.205010 -0.062697
N16   N     N_R   0.820750 0.970990 0.794990 -0.068414
N17   N     N_R   0.179250 0.970990 0.205010 -0.058266
N18   N     N_R   0.393580 0.602500 0.942610 -0.052013
N19   N     N_R   0.606420 0.602500 0.057390 -0.058961
N20   N     N_R   0.893580 0.102500 0.942610 -0.057584
N21   N     N_R   0.106420 0.102500 0.057390 -0.057482
N22   N     N_R   0.451750 0.396300 0.057540 -0.053770
N23   N     N_R   0.895440 0.896300 0.944370 -0.049707
N24   N     N_R   0.548250 0.396300 0.942460 -0.049631
N25   N     N_R   0.951750 0.896300 0.057540 -0.046197
N26   N     N_R   0.048250 0.896300 0.942460 -0.056435
N27   N     N_R   0.104560 0.896300 0.055630 -0.044617
N28   N     N_R   0.449890 0.602500 0.055780 -0.054871
N29   N     N_R   0.550110 0.602500 0.944220 -0.049537
N30   N     N_R   0.949890 0.102500 0.055780 -0.054651
N31   N     N_R   0.050110 0.102500 0.944220 -0.052713
N32   N     N_R   0.525090 0.470990 0.205640 -0.041208
Ni1   Ni    Ni4+2 0.435420 0.434250 0.870220 0.257693
Ni2   Ni    Ni4+2 0.564580 0.434250 0.129780 0.254094
Ni3   Ni    Ni4+2 0.935420 0.934250 0.870220 0.238935
Ni4   Ni    Ni4+2 0.064580 0.934250 0.129780 0.241285
Ni5   Ni    Ni4+2 0.563400 0.564580 0.128670 0.227253
Ni6   Ni    Ni4+2 0.436600 0.564580 0.871330 0.238661
Ni7   Ni    Ni4+2 0.063400 0.064580 0.128670 0.229817
Ni8   Ni    Ni4+2 0.936600 0.064580 0.871330 0.236104
O1    O     O_3   0.334416 0.736606 0.914237 -0.758689
O2    O     O_3   0.884602 0.650862 0.194825 -0.766595
O3    O     O_3   0.876778 0.267044 0.911936 -0.742877
O4    O     O_3   0.121219 0.267929 0.090860 -0.741848
O5    O     O_3   0.772929 0.363605 0.896984 -0.747951
O6    O     O_3   0.221222 0.366969 0.101405 -0.737289
O7    O     O_3   0.228212 0.830351 0.895561 -0.756384
O8    O     O_3   0.990798 0.738250 0.195857 -0.761536

loop_
_geom_bond_atom_site_label_1
_geom_bond_atom_site_label_2
_ccdc_geom_bond_type
C84   H36   S    
H51   O7    S    
N31   Ni8   S    
C79   N17   A    
C32   H2    S    
C6    C76   A    
C10   H41   S    
N29   Ni6   S    
C73   N11   A    
N27   Ni4   S    
C26   C30   A    
C87   N26   A    
N8    Ni7   S    
C56   C81   A    
C82   H33   S    
C3    C64   A    
C2    C63   A    
C43   C78   A    
N14   Ni1   S    
C24   O6    S    
C62   N32   A    
C30   C35   A    
H50   O6    S    
C12   C90   A    
C35   C37   A    
H49   O5    S    
C12   H12   S    
C86   C91   A    
C77   N16   A    
C4    C65   A    
N22   Ni2   S    
N25   Ni4   S    
H47   O3    S    
C36   I1    S    
C64   H20   S    
N19   N29   A    
C87   H39   S    
C49   C54   A    
C62   C89   A    
C29   C33   A    
C33   C36   A    
N12   Ni2   S    
N6    Ni5   S    
C27   C90   S    
C16   H54   S    
C32   C39   A    
C48   C78   S    
C19   C26   A    
N26   N27   A    
C74   N13   A    
C85   H37   S    
C79   I8    S    
H52   O8    S    
C20   O3    S    
C3    C55   S    
C78   C83   A    
N6    N15   A    
N32   Ni2   S    
C7    C17   S    
C62   H18   S    
C4    C57   S    
C28   C88   S    
C86   N25   A    
N4    N13   A    
C51   C57   A    
C60   H11   S    
C61   H13   S    
C9    C10   S    
C37   I2    S    
C4    C74   A    
C52   C55   A    
C34   N27   A    
C7    C77   A    
C21   C48   A    
C26   O8    S    
C42   N30   A    
C1    C88   A    
C6    C68   A    
C8    C16   S    
C87   C92   A    
C25   C29   A    
C13   H43   S    
C18   C25   A    
C65   H21   S    
C75   N14   A    
C65   N4    A    
C2    C72   A    
C33   H3    S    
C47   C67   S    
N13   Ni8   S    
C34   C92   A    
C54   C59   A    
N16   Ni3   S    
C51   H7    S    
C40   C45   A    
C85   C90   A    
C50   H6    S    
N9    N32   A    
C83   N21   A    
C81   H32   S    
C27   C31   A    
C51   C52   A    
C50   C53   A    
N10   Ni6   S    
N30   Ni7   S    
C28   C32   A    
C2    C54   S    
N2    Ni1   S    
N18   N28   A    
C15   H53   S    
C86   H38   S    
C58   C59   A    
C35   H4    S    
C23   H23   S    
C39   I4    S    
C52   H8    S    
N15   Ni2   S    
C70   N8    A    
C60   C61   A    
C84   C88   A    
C5    C75   A    
C76   N15   A    
C66   H22   S    
C9    C14   D    
C41   C56   A    
C12   N12   A    
C18   C44   A    
C6    C14   S    
C11   C16   D    
C75   I5    S    
C71   C89   A    
C14   H45   S    
C43   N31   A    
C34   H34   S    
C72   H28   S    
C18   O1    S    
H44   O1    S    
C41   N29   A    
N8    N17   A    
C58   H9    S    
N20   Ni8   S    
C84   N22   A    
N7    N16   A    
C38   C47   A    
C68   H24   S    
N5    N14   A    
H46   O2    S    
C74   H30   S    
C20   C22   A    
N18   Ni6   S    
C73   H29   S    
C22   C27   A    
C53   C89   S    
C42   C67   A    
C23   C91   A    
C11   H42   S    
N26   Ni3   S    
C31   H56   S    
C21   O4    S    
C81   N19   A    
C38   I3    S    
C44   C45   S    
N2    N10   A    
C24   C28   A    
C40   H14   S    
C9    H40   S    
C19   O2    S    
C72   N10   A    
N21   Ni7   S    
C22   O5    S    
C17   H55   S    
C10   C15   D    
C59   H10   S    
C23   N23   A    
N3    Ni4   S    
C69   N7    A    
N4    Ni3   S    
C82   N20   A    
C30   C91   S    
C25   O7    S    
N9    Ni5   S    
C7    C69   A    
C19   C46   A    
C53   C58   A    
C57   C61   A    
N20   N30   A    
C68   N6    A    
C76   I6    S    
N17   Ni4   S    
C8    C70   A    
N21   N31   A    
C31   C38   A    
C71   H27   S    
N24   Ni1   S    
C1    N1    A    
H48   O4    S    
C80   N18   A    
C8    C79   A    
N12   N24   A    
C5    C66   A    
C83   H35   S    
C11   C13   S    
N7    Ni8   S    
C70   H26   S    
C85   N24   A    
C64   N3    A    
C69   H25   S    
N3    N11   A    
N5    Ni6   S    
C45   C80   A    
N1    N22   A    
C63   H19   S    
C3    C73   A    
N1    Ni1   S    
C5    C15   S    
C20   C47   A    
C36   C44   A    
C49   H5    S    
C13   C17   D    
C41   H15   S    
N23   Ni3   S    
C66   N5    A    
C67   C82   A    
C1    H1    S    
C49   C50   A    
C71   N9    A    
C21   C24   A    
C46   C56   S    
N11   Ni7   S    
C43   H17   S    
C63   N2    A    
C40   N28   A    
C37   C46   A    
C55   C60   A    
C42   H16   S    
N19   Ni5   S    
C29   C92   S    
C77   I7    S    
N28   Ni5   S    
C39   C48   A    
N23   N25   A    
C80   H31   S    
