data_mof_unit_62065.cif
_audit_creation_date              2013-03-05T15:44:53-0500
_audit_creation_method            fapswitch 2.2
_symmetry_space_group_name_H-M    P1
_symmetry_Int_Tables_number       1
_space_group_crystal_system       triclinic
_cell_length_a                    8.362376
_cell_length_b                    16.668194
_cell_length_c                    19.248815
_cell_angle_alpha                 96.471074
_cell_angle_beta                  94.489742
_cell_angle_gamma                 94.030202
_cell_volume                      2649.24724621

loop_
_atom_site_label
_atom_site_type_symbol
_atom_site_description
_atom_site_fract_x
_atom_site_fract_y
_atom_site_fract_z
_atom_type_partial_charge
P1    P     P_3+3 0.950430 0.683250 0.555020 0.528026
O1    O     O_2   0.121950 0.695970 0.534170 -0.350350
O2    O     O_3   0.871970 0.595810 0.535570 -0.388187
O3    O     O_3   0.356610 0.647930 0.408330 -0.406282
O4    O     O_2   0.259158 0.789613 0.458248 -0.330119
O5    O     O_3   0.947851 0.710696 0.645737 -0.573808
O6    O     O_3   0.331122 0.778982 0.328264 -0.491808
H1    H     H_    0.334126 0.663623 0.275838 0.123506
C1    C     C_3   0.386610 0.754947 0.207071 0.080482
H2    H     H_    0.387135 0.822014 0.212149 0.209033
P2    P     P_3+3 0.353690 0.438260 0.341200 0.595141
P3    P     P_3+3 0.906576 0.616991 0.283985 0.584269
O7    O     O_2   0.180290 0.462550 0.330450 -0.285713
O8    O     O_3   0.940700 0.607800 0.373310 -0.326572
O9    O     O_2   0.025812 0.562326 0.247780 -0.299102
O10   O     O_3   0.345966 0.336472 0.300050 -0.573914
O11   O     O_3   0.975494 0.716025 0.272900 -0.459231
C2    C     C_3   0.849983 0.766366 0.284007 0.122967
H3    H     H_    0.797362 0.757151 0.334094 0.035364
H4    H     H_    0.756399 0.753449 0.239182 0.073597
C3    C     C_3   0.913472 0.855215 0.289210 0.519399
H5    H     H_    0.007492 0.869344 0.333847 0.096173
C4    C     C_3   0.762245 0.340321 0.313106 0.633084
H6    H     H_    0.635425 0.343985 0.323098 0.006292
C5    C     C_3   0.778925 0.308391 0.236389 0.113439
H7    H     H_    0.714122 0.247705 0.223146 0.179388
H8    H     H_    0.907534 0.302312 0.228231 0.200156
Ba1   Ba    Ba6+2 0.153080 0.539460 0.466290 1.708591
C6    C     C_3   0.074731 0.685563 0.687312 0.678368
H9    H     H_    0.143051 0.640070 0.658363 -0.061316
C7    C     C_3   0.003476 0.650608 0.749339 -0.082377
H10   H     H_    0.101204 0.636246 0.787185 0.079458
H11   H     H_    0.925722 0.594793 0.729817 0.127163
C8    C     C_3   0.313664 0.271157 0.339141 0.935105
C9    C     C_3   0.421639 0.202669 0.319838 0.047963
H12   H     H_    0.384791 0.148603 0.345522 0.167775
H13   H     H_    0.548020 0.220063 0.339115 0.125121
P4    P     P_3+3 0.859870 0.316740 0.444930 0.666991
O12   O     O_2   0.688350 0.303980 0.465810 -0.325504
O13   O     O_3   0.938330 0.404180 0.464370 -0.280022
O14   O     O_3   0.453690 0.352060 0.591610 -0.248885
O15   O     O_3   0.835220 0.286676 0.354133 -0.537564
P5    P     P_3+3 0.889243 0.401406 0.718792 0.621941
O16   O     O_3   0.374800 0.540170 0.583060 -0.374916
O17   O     O_3   0.869600 0.392190 0.626640 -0.398876
O18   O     O_2   0.737104 0.437951 0.745097 -0.244769
O19   O     O_3   0.871570 0.303077 0.743099 -0.410052
Ba2   Ba    Ba6+2 0.657090 0.460530 0.533660 1.750838
P6    P     P_3+3 0.385323 0.753113 0.412143 0.505957
C10   C     C_3   0.398038 0.724865 0.279292 0.382659
H14   H     H_    0.526907 0.720150 0.295175 -0.104122
H15   H     H_    0.491967 0.737490 0.178943 0.050284
O20   O     O_3   0.435500 0.459820 0.416880 -0.348908
C11   C     C_3   0.527120 0.705840 0.624408 0.380381
H16   H     H_    0.618658 0.672248 0.597197 0.084265
H17   H     H_    0.414569 0.702216 0.589227 0.109959
C12   C     C_3   0.590477 0.794542 0.641375 -0.728255
H18   H     H_    0.711618 0.799594 0.670069 0.286538
H19   H     H_    0.597715 0.823307 0.592637 0.177632
H20   H     H_    0.509674 0.828860 0.674254 0.305240
P7    P     P_3+3 0.456550 0.569468 0.670882 0.546103
O21   O     O_2   0.630010 0.537400 0.669530 -0.320259
O22   O     O_3   0.495903 0.674692 0.687120 -0.509401
C13   C     C_3   0.927634 0.249939 0.690083 0.415396
H21   H     H_    0.845070 0.244726 0.641317 0.108717
H22   H     H_    0.050759 0.271298 0.679242 0.034286
C14   C     C_3   0.933736 0.165877 0.713264 -0.754148
H23   H     H_    0.810406 0.139404 0.718245 0.305893
H24   H     H_    0.988612 0.125584 0.673396 0.196049
H25   H     H_    0.006911 0.169070 0.764346 0.276119
P8    P     P_3+3 0.424391 0.245091 0.587441 0.607557
C15   C     C_3   0.386587 0.214959 0.714287 0.527017
H26   H     H_    0.266184 0.191801 0.688958 -0.091603
O23   O     O_2   0.536993 0.210117 0.533801 -0.316204
O24   O     O_3   0.504297 0.213498 0.665997 -0.511122
H27   H     H_    0.328005 0.159657 0.806615 0.077461
C16   C     C_3   0.425807 0.159710 0.770750 0.607544
C17   C     C_R   0.695006 0.733722 0.470643 -0.568286
C18   C     C_R   0.843014 0.759251 0.508118 0.247539
C19   C     C_R   0.894026 0.843905 0.518531 0.180713
C20   C     C_R   0.795570 0.900973 0.489857 0.104572
C21   C     C_R   0.642485 0.872616 0.457159 -0.224091
C22   C     C_R   0.591861 0.789864 0.448062 0.199864
C23   C     C_R   0.917883 0.153997 0.476726 0.327080
C24   C     C_R   0.964108 0.238672 0.491800 0.120312
C25   C     C_R   0.015815 0.096297 0.504627 0.098049
N1    N     N_2   0.834530 0.987335 0.500745 0.012661
N2    N     N_2   0.976846 0.010054 0.492024 0.016892
C26   C     C_R   0.103114 0.263431 0.536612 -0.025128
H28   H     H_    0.561331 0.915515 0.439571 0.214501
C27   C     C_R   0.212751 0.207481 0.554716 0.161521
C28   C     C_R   0.167173 0.124338 0.539592 -0.372786
H29   H     H_    0.250246 0.081111 0.554763 0.225877
H30   H     H_    0.653949 0.670099 0.464236 0.174265
C29   C     C_R   0.596521 0.549754 0.303259 -0.412510
C30   C     C_R   0.451666 0.503644 0.281301 0.255644
C31   C     C_R   0.391918 0.498107 0.210304 -0.140043
C32   C     C_R   0.483267 0.531103 0.159977 0.132766
C33   C     C_R   0.635736 0.571897 0.182945 -0.239303
C34   C     C_R   0.693856 0.580056 0.254137 0.230378
C35   C     C_R   0.433125 0.588263 0.045878 -0.127891
C36   C     C_R   0.383037 0.582017 0.974217 -0.067706
C37   C     C_R   0.332495 0.506728 0.935735 0.024745
C38   C     C_R   0.329692 0.437103 0.971796 0.481457
C39   C     C_R   0.368885 0.444044 0.045309 0.272368
C40   C     C_R   0.425262 0.520374 0.083141 -0.040493
C41   C     C_R   0.123023 0.468739 0.832131 0.411614
C42   C     C_R   0.077677 0.459971 0.759505 0.121477
C43   C     C_R   0.335477 0.526795 0.738104 0.188230
C44   C     C_R   0.387116 0.530990 0.810433 0.384985
C45   C     C_R   0.280531 0.502191 0.858475 -0.173610
C46   C     C_R   0.180496 0.493362 0.714955 -0.585299
H31   H     H_    0.385425 0.636508 0.948395 0.195519
H32   H     H_    0.476301 0.647233 0.072653 0.176497
H33   H     H_    0.275712 0.466014 0.194194 0.189797
H34   H     H_    0.711952 0.594193 0.145191 0.178764
H35   H     H_    0.135053 0.497785 0.661915 0.212632
H36   H     H_    0.640902 0.555227 0.358012 0.172461
Cl1   Cl    Cl    0.707765 0.373562 0.176113 -0.512626
Br1   Br    Br    0.216794 0.780067 0.724595 -0.339029
Br2   Br    Br    0.871144 0.724991 0.799613 -0.233831
Cl2   Cl    Cl    0.115633 0.228197 0.315054 -0.533817
Cl3   Cl    Cl    0.339052 0.296377 0.430262 -0.609170
Cl4   Cl    Cl    0.210376 0.710555 0.154774 -0.513602
Cl5   Cl    Cl    0.409507 0.172847 0.227239 -0.381149
Cl6   Cl    Cl    0.753518 0.918618 0.303394 -0.564399
Br3   Br    Br    0.377308 0.324889 0.756988 -0.424728
Cl7   Cl    Cl    0.610418 0.192623 0.822331 -0.371823
Cl8   Cl    Cl    0.435994 0.058217 0.731438 -0.514588
Cl9   Cl    Cl    0.747602 0.119973 0.418191 -0.511245
Br4   Br    Br    0.083147 0.882854 0.579972 -0.391414
Br5   Br    Br    0.151802 0.375463 0.567165 -0.384275
Cl10  Cl    Cl    0.584569 0.570741 0.840207 -0.479135
Cl11  Cl    Cl    0.284582 0.339593 0.924996 -0.423926
Br6   Br    Br    0.345598 0.346834 0.090790 -0.215485
Cl12  Cl    Cl    0.977547 0.443837 0.889776 -0.426804
Br7   Br    Br    0.003753 0.879786 0.203691 -0.222288
Cl13  Cl    Cl    0.857097 0.437546 0.329779 -0.544003

loop_
_geom_bond_atom_site_label_1
_geom_bond_atom_site_label_2
_geom_bond_distance
_ccdc_geom_bond_type
P2    C30   1.869231 S    
P4    O13   1.548846 S    
N1    N2    1.253068 D    
C35   C36   1.400025 A    
C19   C20   1.429888 A    
C2    C3    1.527373 S    
C4    Cl13  1.737998 S    
C29   C30   1.397287 A    
C3    Br7   1.936631 S    
P7    C43   1.875264 S    
C20   C21   1.407158 A    
C6    H9    1.107888 S    
C4    O15   1.398563 S    
C38   Cl11  1.768069 S    
O2    Ba1   2.950495 S    
C9    H13   1.099979 S    
C23   C25   1.429113 A    
P4    O15   1.754955 S    
P4    O12   1.526654 D    
C8    C9    1.535691 S    
C25   N2    1.440364 S    
C12   H19   1.104495 S    
C11   O22   1.402295 S    
Ba1   O13   2.777126 S    
O2    Ba2   2.777790 S    
C1    Cl4   1.783070 S    
C37   C45   1.508330 S    
P1    O1    1.526381 D    
C9    Cl5   1.788652 S    
C44   C45   1.431422 A    
C37   C38   1.417553 A    
C15   C16   1.532670 S    
O10   C8    1.414023 S    
C17   C22   1.398225 A    
C9    H12   1.112084 S    
P3    O11   1.751425 S    
P1    Ba1   3.410940 S    
C4    H6    1.097180 S    
C7    H11   1.107894 S    
O7    Ba1   2.812603 S    
C31   H33   1.081201 S    
C1    H2    1.110794 S    
P4    Ba2   3.411575 S    
P2    O20   1.552647 S    
C39   Br6   1.931821 S    
C8    Cl2   1.763059 S    
C19   Br4   1.926424 S    
C3    H5    1.111059 S    
C35   H32   1.081159 S    
O4    P6    1.544660 D    
C36   C37   1.403242 A    
C1    H15   1.108709 S    
C15   O24   1.405372 S    
C5    Cl1   1.774023 S    
C38   C39   1.417143 A    
O3    Ba1   2.780242 S    
C31   C32   1.414678 A    
C29   H36   1.081277 S    
Ba2   O20   2.797419 S    
C6    Br1   1.938105 S    
C11   H17   1.109542 S    
C15   Br3   1.931207 S    
C14   H23   1.108423 S    
C13   C14   1.520646 S    
C23   C24   1.427954 A    
O6    P6    1.751566 S    
C43   C46   1.393140 A    
C33   H34   1.082844 S    
C24   C26   1.400323 A    
C17   C18   1.396540 A    
C2    H3    1.112224 S    
C12   H20   1.106344 S    
P4    C24   1.888902 S    
C10   H14   1.107575 S    
C5    H7    1.106802 S    
Ba1   O16   2.797928 S    
C42   C46   1.392908 A    
P1    O2    1.548868 S    
C13   H22   1.108726 S    
C41   Cl12  1.768505 S    
P2    O10   1.784317 S    
Ba2   O21   2.812677 S    
C7    H10   1.108827 S    
P3    O9    1.550303 D    
C41   C42   1.408055 A    
C30   C31   1.408532 A    
P7    O22   1.749659 S    
O11   C2    1.403522 S    
C16   Cl8   1.784255 S    
H27   C16   1.110828 S    
P5    O17   1.756828 S    
C7    Br2   1.946361 S    
C20   N1    1.441401 S    
C16   Cl7   1.785571 S    
P3    O8    1.746398 S    
C32   C33   1.416179 A    
P1    C18   1.875490 S    
C26   C27   1.405403 A    
H1    C10   1.111106 S    
O19   C13   1.405431 S    
O17   Ba2   2.811573 S    
C14   H24   1.110340 S    
C35   C40   1.406834 A    
O13   Ba2   2.951514 S    
C11   H16   1.109374 S    
Ba1   Ba2   4.590773 S    
C29   C34   1.407854 A    
C41   C45   1.425258 A    
C1    C10   1.528442 S    
O6    C10   1.406147 S    
C15   H26   1.107504 S    
C21   H28   1.083171 S    
P8    O23   1.544760 D    
Ba1   O20   2.958394 S    
O16   P7    1.774702 S    
C5    H8    1.108938 S    
C39   C40   1.422799 A    
C26   Br5   1.899164 S    
C32   C40   1.506850 S    
C33   C34   1.406061 A    
O14   P8    1.774476 S    
O3    P6    1.745241 S    
C14   H25   1.110627 S    
C13   H21   1.112254 S    
P6    C22   1.845314 S    
C6    C7    1.529509 S    
C36   H31   1.083119 S    
C25   C28   1.409273 A    
C43   C44   1.417543 A    
P8    O24   1.755282 S    
P2    O7    1.537456 D    
C12   H18   1.108287 S    
C46   H35   1.073464 S    
P2    Ba1   3.401759 S    
C17   H30   1.081859 S    
C23   Cl9   1.763531 S    
C28   H29   1.083069 S    
O14   Ba2   2.779493 S    
C2    H4    1.109953 S    
P5    C42   1.862280 S    
C4    C5    1.532630 S    
P7    O21   1.581833 D    
P5    O18   1.544764 D    
P3    C34   1.865406 S    
C18   C19   1.432272 A    
O5    C6    1.395286 S    
P8    C27   1.871495 S    
C21   C22   1.401535 A    
P1    O5    1.756743 S    
C8    Cl3   1.749611 S    
C44   Cl10  1.762475 S    
O1    Ba1   2.821510 S    
O8    Ba1   2.810910 S    
C3    Cl6   1.780831 S    
P5    O19   1.754004 S    
C27   C28   1.402867 A    
O16   Ba2   2.957403 S    
O12   Ba2   2.822093 S    
C11   C12   1.525552 S    
