data_mof_unit_25398.cif
_audit_creation_date              2012-12-10T20:52:59-0500
_audit_creation_method            fapswitch 2.2
_symmetry_space_group_name_H-M    P1
_symmetry_Int_Tables_number       1
_space_group_crystal_system       triclinic
_cell_length_a                    18.431019
_cell_length_b                    18.41799
_cell_length_c                    18.320613
_cell_angle_alpha                 60.079088
_cell_angle_beta                  59.825739
_cell_angle_gamma                 59.476788
_cell_volume                      4376.78505801

loop_
_atom_site_label
_atom_site_type_symbol
_atom_type_description
_atom_site_fract_x
_atom_site_fract_y
_atom_site_fract_z
_atom_type_partial_charge
C1    C     C_R   0.389938 0.110154 0.110352 0.782938
C2    C     C_R   0.334763 0.833613 0.854959 -0.199335
C3    C     C_R   0.912323 0.557565 0.033053 0.069801
C4    C     C_R   0.457871 0.962193 0.092664 0.071789
C5    C     C_R   0.541678 0.037914 0.907228 0.073909
C6    C     C_R   0.945465 0.946733 0.551593 -0.178143
C7    C     C_R   0.054362 0.053427 0.448058 -0.176790
C8    C     C_R   0.945772 0.553638 0.946127 -0.162473
C9    C     C_R   0.054233 0.446364 0.053885 -0.163103
C10   C     C_R   0.553351 0.946095 0.945678 -0.156041
C11   C     C_R   0.446485 0.053945 0.054279 -0.158390
C12   C     C_3   0.105748 0.611211 0.497751 -0.849066
C13   C     C_R   0.172453 0.182254 0.643351 -0.196890
C14   C     C_3   0.893769 0.390373 0.498390 -0.845839
C15   C     C_3   0.694673 0.438672 0.052560 -0.719094
C16   C     C_3   0.305087 0.561319 0.948075 -0.730305
C17   C     C_3   0.446543 0.065579 0.684033 -0.726652
C18   C     C_3   0.552555 0.937650 0.314469 -0.726003
C19   C     C_3   0.108349 0.845871 0.030434 -0.821972
C20   C     C_3   0.943802 0.164726 0.978786 -0.812588
C21   C     C_3   0.816954 0.997352 0.111422 -0.847658
C22   C     C_3   0.227029 0.011359 0.958760 -0.805122
C23   C     C_3   0.983886 0.090720 0.783135 -0.820630
C24   C     C_R   0.831265 0.825045 0.354551 -0.197750
C25   C     C_3   0.015553 0.918736 0.222438 -0.826888
C26   C     C_R   0.150582 0.614808 0.268449 -0.217846
C27   C     C_R   0.842328 0.388911 0.727498 -0.191638
C28   C     C_R   0.616106 0.258073 0.129990 -0.177673
C29   C     C_R   0.382514 0.742239 0.871738 -0.139367
C30   C     C_R   0.263436 0.157428 0.593243 -0.139215
C31   C     C_R   0.738666 0.850466 0.397581 -0.146131
C32   C     C_R   0.075006 0.588937 0.315246 0.172609
C33   C     C_R   0.610039 0.889848 0.889645 0.782921
C34   C     C_R   0.918858 0.412652 0.683956 0.168363
C35   C     C_R   0.589227 0.308842 0.054348 0.167257
C36   C     C_R   0.410722 0.691388 0.946454 0.171095
C37   C     C_R   0.310300 0.071036 0.587851 0.183899
C38   C     C_R   0.690777 0.932985 0.412066 0.172466
C39   C     C_R   0.016960 0.616669 0.270805 -0.168380
C40   C     C_R   0.975486 0.381449 0.731156 -0.197115
C41   C     C_R   0.608292 0.266615 0.997629 -0.189332
C42   C     C_R   0.392502 0.733434 0.002895 -0.203803
C43   C     C_R   0.265568 0.009798 0.633238 -0.233210
C44   C     C_R   0.109033 0.111034 0.390499 0.785444
C45   C     C_R   0.736191 0.989846 0.382742 -0.213022
C46   C     C_R   0.033220 0.670500 0.181402 -0.209800
C47   C     C_R   0.958178 0.324485 0.819393 -0.126193
C48   C     C_R   0.653738 0.174759 0.016216 -0.213983
C49   C     C_R   0.346371 0.825157 0.985176 -0.142154
C50   C     C_R   0.175175 0.033947 0.684563 -0.173941
C51   C     C_R   0.828643 0.964364 0.340297 -0.146517
C52   C     C_R   0.106704 0.699363 0.135378 0.300088
C53   C     C_R   0.884792 0.295461 0.861732 0.308908
C54   C     C_R   0.682578 0.123976 0.090761 0.305105
C55   C     C_R   0.891033 0.888901 0.609441 0.784732
C56   C     C_R   0.315654 0.876397 0.911390 0.312806
C57   C     C_R   0.127267 0.120842 0.690168 0.306712
C58   C     C_R   0.877456 0.881715 0.324906 0.313760
C59   C     C_R   0.009488 0.581445 0.472996 0.165682
C60   C     C_R   0.988592 0.419249 0.526169 0.164262
C61   C     C_R   0.591469 0.462516 0.991193 0.150487
C62   C     C_R   0.408449 0.537699 0.009149 0.150497
C63   C     C_R   0.464598 0.996806 0.589861 0.146155
C64   C     C_R   0.536165 0.004363 0.409647 0.144944
C65   C     C_R   0.950735 0.549857 0.557193 -0.129265
C66   C     C_R   0.110234 0.389928 0.110171 0.781653
C67   C     C_R   0.048036 0.450431 0.442500 -0.129249
C68   C     C_R   0.551787 0.555222 0.953042 -0.136024
C69   C     C_R   0.448161 0.444927 0.047241 -0.135680
C70   C     C_R   0.555804 0.952185 0.551519 -0.132707
C71   C     C_R   0.444666 0.048930 0.448108 -0.131246
C72   C     C_R   0.945954 0.464552 0.587381 -0.109815
C73   C     C_R   0.051499 0.536354 0.411822 -0.109464
C74   C     C_R   0.458620 0.593478 0.967430 -0.115087
C75   C     C_R   0.541308 0.406731 0.033036 -0.110618
C76   C     C_R   0.592819 0.960876 0.459561 -0.113079
C77   C     C_R   0.889763 0.610071 0.889838 0.781322
C78   C     C_R   0.407945 0.041029 0.539845 -0.113956
C79   C     C_R   0.108114 0.390939 0.389202 0.834684
C80   C     C_R   0.891628 0.609096 0.610761 0.835279
C81   C     C_R   0.390615 0.389760 0.107235 0.818937
C82   C     C_R   0.609385 0.610276 0.892833 0.818801
C83   C     C_R   0.389673 0.107967 0.390505 0.821345
C84   C     C_R   0.610417 0.892323 0.609451 0.824380
C85   C     C_R   0.158917 0.951131 0.359162 -0.133984
C86   C     C_R   0.840332 0.049594 0.639756 -0.133691
C87   C     C_R   0.175823 0.387152 0.931865 -0.148935
C88   C     C_R   0.165783 0.670546 0.179239 -0.165575
C89   C     C_R   0.824172 0.612803 0.068177 -0.148715
C90   C     C_R   0.417785 0.923003 0.185316 -0.159250
C91   C     C_R   0.581376 0.077186 0.814498 -0.158270
C92   C     C_R   0.178418 0.881936 0.333871 -0.166853
C93   C     C_R   0.820025 0.119755 0.664091 -0.155292
C94   C     C_R   0.207954 0.384090 0.846127 -0.144434
C95   C     C_R   0.792064 0.615900 0.153898 -0.144682
C96   C     C_R   0.430039 0.832312 0.222155 -0.164208
C97   C     C_R   0.568644 0.167990 0.777560 -0.164537
C98   C     C_R   0.121359 0.834050 0.379209 -0.159361
C99   C     C_R   0.825795 0.330355 0.815500 -0.240254
C100  C     C_R   0.876709 0.168105 0.618344 -0.183845
C101  C     C_R   0.154001 0.436687 0.793002 -0.160835
C102  C     C_R   0.846060 0.563388 0.206980 -0.161225
C103  C     C_R   0.482122 0.778929 0.167951 -0.162341
C104  C     C_R   0.516586 0.221376 0.831764 -0.160586
C105  C     C_R   0.046214 0.852875 0.452302 -0.150840
C106  C     C_R   0.952495 0.148547 0.545950 -0.161993
C107  C     C_R   0.067775 0.492836 0.825231 -0.152969
C108  C     C_R   0.932286 0.507253 0.174742 -0.152997
C109  C     C_R   0.522815 0.815824 0.076744 -0.161717
C110  C     C_R   0.662927 0.166412 0.147775 -0.142153
C111  C     C_R   0.476368 0.184371 0.923071 -0.159617
C112  C     C_R   0.022270 0.925692 0.477584 0.063037
C113  C     C_R   0.977124 0.074922 0.521556 0.071781
C114  C     C_R   0.032945 0.496283 0.912753 0.074773
C115  C     C_R   0.967079 0.503745 0.087248 0.073622
C116  C     C_R   0.511473 0.907825 0.037768 0.070079
C117  C     C_R   0.488081 0.092282 0.962124 0.070265
C118  C     C_R   0.078242 0.977772 0.427596 0.075794
C119  C     C_R   0.921308 0.022667 0.571722 0.077501
C120  C     C_R   0.087682 0.442426 0.966967 0.069969
H1    H     H_    0.860560 0.222169 0.638371 0.148851
H2    H     H_    0.778672 0.653586 0.030478 0.130547
H3    H     H_    0.377161 0.961716 0.230261 0.112432
H4    H     H_    0.621978 0.038463 0.769561 0.111991
H5    H     H_    0.238509 0.864867 0.279328 0.145750
H6    H     H_    0.759579 0.137235 0.718183 0.145561
H7    H     H_    0.275311 0.341233 0.820575 0.138354
H8    H     H_    0.724698 0.658730 0.179467 0.137763
H9    H     H_    0.398987 0.803367 0.293098 0.132214
H10   H     H_    0.599304 0.197025 0.706543 0.131708
H11   H     H_    0.008437 0.808968 0.487486 0.186141
H12   H     H_    0.136795 0.780770 0.358442 0.152405
H13   H     H_    0.990194 0.192593 0.510396 0.184492
H14   H     H_    0.029493 0.533790 0.780279 0.133050
H15   H     H_    0.970594 0.466363 0.219669 0.133834
H16   H     H_    0.563380 0.771420 0.037459 0.117743
H17   H     H_    0.435792 0.228771 0.962361 0.117579
H18   H     H_    0.223558 0.691200 0.144279 0.137119
H19   H     H_    0.767714 0.310794 0.847113 0.130623
H20   H     H_    0.682739 0.128547 0.206668 0.128777
H21   H     H_    0.312545 0.871243 0.797576 0.115811
H22   H     H_    0.137299 0.249260 0.646858 0.125091
H23   H     H_    0.820768 0.565423 0.273817 0.128635
H24   H     H_    0.867222 0.760608 0.344890 0.124829
H25   H     H_    0.196426 0.593466 0.301401 0.135169
H26   H     H_    0.797297 0.413208 0.692504 0.135779
H27   H     H_    0.600437 0.289332 0.175292 0.127144
H28   H     H_    0.397260 0.711156 0.826695 0.122454
H29   H     H_    0.297407 0.205158 0.559024 0.115502
H30   H     H_    0.704553 0.805507 0.420676 0.119599
H31   H     H_    0.958401 0.597103 0.305939 0.124726
H32   H     H_    0.034394 0.400005 0.698743 0.125873
H33   H     H_    0.587517 0.304917 0.939229 0.128087
H34   H     H_    0.179327 0.434701 0.726140 0.128657
H35   H     H_    0.414334 0.695004 0.060640 0.124502
H36   H     H_    0.301432 0.942525 0.630313 0.135341
H37   H     H_    0.699886 0.053643 0.393898 0.129915
H38   H     H_    0.987369 0.691396 0.148602 0.138681
H39   H     H_    0.003594 0.302155 0.853074 0.142722
H40   H     H_    0.667209 0.143334 0.971988 0.138197
H41   H     H_    0.334330 0.854858 0.030099 0.142811
H42   H     H_    0.143746 0.984125 0.719615 0.147017
H43   H     H_    0.861076 0.009627 0.320209 0.142619
H44   H     H_    0.053885 0.690339 0.393330 0.235917
H45   H     H_    0.506892 0.291874 0.802906 0.127642
H46   H     H_    0.120747 0.664932 0.492366 0.236192
H47   H     H_    0.168342 0.566049 0.463494 0.234117
H48   H     H_    0.082002 0.573552 0.570047 0.235960
H49   H     H_    0.942905 0.311056 0.604708 0.224247
H50   H     H_    0.831010 0.436548 0.531224 0.233873
H51   H     H_    0.878425 0.336951 0.503621 0.237072
H52   H     H_    0.919213 0.427042 0.426071 0.235025
H53   H     H_    0.717311 0.362450 0.984965 0.238169
H54   H     H_    0.767226 0.413567 0.041199 0.246915
H55   H     H_    0.661163 0.401638 0.121724 0.207969
H56   H     H_    0.491457 0.708516 0.196730 0.127782
H57   H     H_    0.667384 0.510524 0.044901 0.220933
H58   H     H_    0.282791 0.638095 0.014869 0.248071
H59   H     H_    0.338725 0.598018 0.878787 0.209136
H60   H     H_    0.232522 0.586571 0.959415 0.240465
H61   H     H_    0.332152 0.489401 0.956085 0.224470
H62   H     H_    0.366822 0.998537 0.715695 0.233141
H63   H     H_    0.423774 0.058604 0.755297 0.252284
H64   H     H_    0.408918 0.133776 0.648617 0.213636
H65   H     H_    0.518943 0.055954 0.654429 0.219742
H66   H     H_    0.635269 0.000380 0.284908 0.248649
H67   H     H_    0.208872 0.982211 0.324535 0.142343
H68   H     H_    0.588342 0.868710 0.350454 0.211743
H69   H     H_    0.575895 0.944771 0.243076 0.244008
H70   H     H_    0.479765 0.949310 0.342902 0.221878
H71   H     H_    0.090919 0.754337 0.012035 0.224787
H72   H     H_    0.037284 0.880016 0.064631 0.247905
H73   H     H_    0.125427 0.883761 0.957780 0.245880
H74   H     H_    0.152017 0.845281 0.055908 0.251841
H75   H     H_    0.817654 0.210509 0.971369 0.227438
H76   H     H_    0.920053 0.118541 0.046427 0.237059
H77   H     H_    0.979935 0.194305 0.983830 0.246605
H78   H     H_    0.790647 0.018139 0.674624 0.140691
H79   H     H_    0.989647 0.125949 0.931792 0.262383
H80   H     H_    0.723414 0.002941 0.075547 0.228581
H81   H     H_    0.861680 0.023485 0.043486 0.248114
H82   H     H_    0.843299 0.923354 0.132603 0.251821
H83   H     H_    0.817110 0.017091 0.159494 0.249878
H84   H     H_    0.229839 0.996464 0.850994 0.218684
H85   H     H_    0.188928 0.083148 0.932616 0.245710
H86   H     H_    0.279641 0.007144 0.975270 0.254027
H87   H     H_    0.180300 0.979036 0.019646 0.237158
H88   H     H_    0.000335 0.215114 0.722562 0.228652
H89   H     H_    0.221301 0.346320 0.969586 0.130683
H90   H     H_    0.984290 0.076958 0.730417 0.262356
H91   H     H_    0.913667 0.124144 0.819779 0.245582
H92   H     H_    0.011414 0.027363 0.831982 0.241734
H93   H     H_    0.999101 0.798392 0.263104 0.229399
H94   H     H_    0.087963 0.884997 0.192081 0.239129
H95   H     H_    0.009734 0.955813 0.258831 0.264481
H96   H     H_    0.986015 0.965491 0.168367 0.238193
N1    N     N_2   0.038213 0.647940 0.457895 -0.281413
N2    N     N_2   0.267084 0.970255 0.891244 -0.321401
N3    N     N_2   0.035249 0.147954 0.743605 -0.319742
N4    N     N_2   0.972408 0.852590 0.283278 -0.319386
N5    N     N_2   0.959790 0.353245 0.540256 -0.284695
N6    N     N_2   0.681892 0.425850 0.988558 -0.262359
N7    N     N_2   0.318001 0.574477 0.011769 -0.265082
N8    N     N_2   0.430735 0.999589 0.678230 -0.263095
N9    N     N_2   0.570492 0.001651 0.321174 -0.265708
N10   N     N_2   0.121929 0.755914 0.044729 -0.325277
N11   N     N_2   0.867974 0.233359 0.950500 -0.318418
N12   N     N_2   0.727509 0.030076 0.110290 -0.318269
O1    O     O_3   0.250000 0.250000 0.250000 -0.493134
O2    O     O_R   0.865800 0.694910 0.573470 -0.620227
O3    O     O_R   0.305090 0.426530 0.134200 -0.604418
O4    O     O_R   0.694910 0.573470 0.865800 -0.603222
O5    O     O_R   0.426530 0.134200 0.305090 -0.607077
O6    O     O_R   0.573470 0.865800 0.694910 -0.607013
O7    O     O_R   0.134190 0.426530 0.134200 -0.640620
O8    O     O_R   0.865810 0.573470 0.865800 -0.639806
O9    O     O_R   0.426530 0.134200 0.134190 -0.634950
O10   O     O_R   0.573470 0.865800 0.865810 -0.633004
O11   O     O_R   0.134200 0.134190 0.426530 -0.645526
O12   O     O_3   0.750000 0.750000 0.750000 -0.493696
O13   O     O_R   0.865800 0.865810 0.573470 -0.646761
O14   O     O_R   0.426530 0.305080 0.134210 -0.638634
O15   O     O_R   0.573470 0.694920 0.865790 -0.641037
O16   O     O_R   0.305080 0.134210 0.426530 -0.640687
O17   O     O_R   0.694920 0.865790 0.573470 -0.640238
O18   O     O_R   0.134210 0.426530 0.305080 -0.640721
O19   O     O_R   0.865790 0.573470 0.694920 -0.641546
O20   O     O_R   0.305080 0.134200 0.134200 -0.643192
O21   O     O_R   0.694920 0.865800 0.865800 -0.643736
O22   O     O_R   0.134200 0.134200 0.305080 -0.639346
O23   O     O_R   0.865800 0.865800 0.694920 -0.638574
O24   O     O_R   0.134200 0.305080 0.134200 -0.635815
O25   O     O_R   0.865800 0.694920 0.865800 -0.636704
O26   O     O_R   0.134200 0.305090 0.426530 -0.622338
Zn1   Zn    Zn3+2 0.206620 0.206630 0.380140 0.965459
Zn2   Zn    Zn3+2 0.793380 0.793370 0.619860 0.966161
Zn3   Zn    Zn3+2 0.206630 0.380140 0.206620 0.967245
Zn4   Zn    Zn3+2 0.793370 0.619860 0.793380 0.968572
Zn5   Zn    Zn3+2 0.380140 0.206620 0.206630 0.967023
Zn6   Zn    Zn3+2 0.619860 0.793380 0.793370 0.968519
Zn7   Zn    Zn3+2 0.206620 0.206620 0.206620 0.951879
Zn8   Zn    Zn3+2 0.793380 0.793380 0.793380 0.951310

loop_
_geom_bond_atom_site_label_1
_geom_bond_atom_site_label_2
_ccdc_geom_bond_type
O25   Zn8   S    
C85   H67   S    
C40   C47   A    
C18   H69   S    
C26   C32   A    
C39   H31   S    
C89   C95   A    
C50   H42   S    
C90   H3    S    
C21   H83   S    
C14   N5    S    
C36   C42   A    
C1    C11   S    
H44   N1    S    
C6    C55   S    
C14   H50   S    
C60   N5    S    
C29   H28   S    
C56   N2    S    
O23   Zn8   S    
C92   C98   A    
C105  H11   S    
C38   C76   S    
C94   H7    S    
C53   C99   A    
C48   C54   A    
O3    Zn3   S    
C29   C36   A    
C27   C99   A    
C98   C105  A    
C2    C29   A    
C34   C40   A    
C84   O6    A    
C108  C115  A    
C25   H94   S    
C86   C93   A    
C19   N10   S    
C97   H10   S    
C107  H14   S    
O2    Zn2   S    
C12   H46   S    
C64   C71   A    
C13   C57   A    
C89   H2    S    
C45   C51   A    
C68   C74   A    
C46   H38   S    
C87   C94   A    
C46   C52   A    
C22   H86   S    
C52   N10   S    
C100  H1    S    
H80   N12   S    
C32   C39   A    
C9    C66   S    
C38   C45   A    
C33   O10   A    
C109  C116  A    
C104  H45   S    
C93   H6    S    
C58   N4    S    
C95   H8    S    
H93   N4    S    
C106  H13   S    
H49   N5    S    
C83   O5    A    
C28   C35   A    
C17   H65   S    
O16   Zn1   S    
O9    Zn5   S    
C94   C101  A    
O10   Zn6   S    
C86   C119  A    
C67   C73   A    
O21   Zn8   S    
C70   C84   S    
C59   C73   A    
C49   H41   S    
C95   C102  A    
C8    C114  A    
C19   H72   S    
C47   C53   A    
H88   N3    S    
C103  C109  A    
C22   N2    S    
C24   C58   A    
C65   C80   S    
C113  C119  A    
C92   H5    S    
C109  H16   S    
C87   H89   S    
C7    C118  A    
C99   H19   S    
C12   H47   S    
C41   H33   S    
H53   N6    S    
C21   H82   S    
C5    C10   A    
C64   N9    S    
O1    Zn1   S    
C85   C92   A    
C71   C83   S    
C67   C79   S    
C27   C34   A    
C22   H85   S    
O17   Zn2   S    
C23   N3    S    
O12   Zn2   S    
C22   H87   S    
O14   Zn5   S    
C106  C113  A    
C9    C115  A    
C79   O18   A    
C21   H81   S    
C13   C30   A    
C25   H95   S    
C45   H37   S    
C60   C67   A    
C108  H15   S    
O5    Zn5   S    
C3    C8    A    
C59   N1    S    
O12   Zn8   S    
C32   C73   S    
C51   C58   A    
C31   H30   S    
C5    C117  A    
C16   H61   S    
C30   H29   S    
C47   H39   S    
C57   N3    S    
C1    O9    A    
C62   N7    S    
C83   O16   A    
C7    C44   S    
C77   O8    A    
C61   C75   A    
C62   C69   A    
H84   N2    S    
C84   O17   A    
C54   C110  A    
C81   O14   A    
C37   C43   A    
C26   H25   S    
O6    Zn6   S    
C20   H79   S    
O26   Zn1   S    
C61   N6    S    
C18   N9    S    
C48   H40   S    
C17   H63   S    
C63   C70   A    
C52   C88   A    
O7    Zn3   S    
C88   H18   S    
C64   C76   A    
C80   O19   A    
C77   O25   A    
C43   C50   A    
O13   Zn2   S    
C13   H22   S    
C91   C97   A    
C4    C11   A    
C102  C108  A    
C20   N11   S    
C93   C100  A    
C54   N12   S    
C5    C91   A    
C36   C74   S    
O24   Zn7   S    
C86   H78   S    
C39   C46   A    
O1    Zn5   S    
C14   H52   S    
C51   H43   S    
C105  C112  A    
C19   H73   S    
H71   N10   S    
C91   H4    S    
C15   H57   S    
O11   Zn1   S    
C8    C77   S    
C55   O23   A    
H58   N7    S    
C102  H23   S    
C70   C76   A    
C43   H36   S    
C11   C117  A    
C44   O11   A    
C34   C72   S    
C12   N1    S    
O19   Zn4   S    
C10   C116  A    
C111  H17   S    
O20   Zn7   S    
C107  C114  A    
C44   O22   A    
C2    H21   S    
C21   N12   S    
C82   O4    A    
C18   H70   S    
C28   H27   S    
C55   O13   A    
C15   H54   S    
C6    C119  A    
C50   C57   A    
C6    C112  A    
C63   N8    S    
C4    C116  A    
C25   H96   S    
C23   H92   S    
C35   C75   S    
C80   O2    A    
C14   H51   S    
C16   N7    S    
C1    O20   A    
C12   H48   S    
C104  C111  A    
C16   H59   S    
C4    C90   A    
C90   C96   A    
C23   H90   S    
O1    Zn7   S    
C100  C106  A    
C65   C72   A    
C37   C78   S    
O8    Zn4   S    
C31   C38   A    
H75   N11   S    
C66   O7    A    
C3    C89   A    
C28   C110  A    
C7    C113  A    
C15   N6    S    
C110  H20   S    
C42   H35   S    
C24   C31   A    
C68   C82   S    
C87   C120  A    
C17   N8    S    
C3    C115  A    
C53   N11   S    
C112  C118  A    
C61   C68   A    
C49   C56   A    
H66   N9    S    
C23   H91   S    
C101  H34   S    
C24   H24   S    
C27   H26   S    
C17   H64   S    
C33   O21   A    
C18   H68   S    
C103  H56   S    
C79   O26   A    
C82   O15   A    
C69   C75   A    
C10   C33   S    
O15   Zn6   S    
C2    C56   A    
C85   C118  A    
C35   C41   A    
C114  C120  A    
C20   H77   S    
C97   C104  A    
C69   C81   S    
C41   C48   A    
C42   C49   A    
C111  C117  A    
C66   O24   A    
C40   H32   S    
H62   N8    S    
C30   C37   A    
C19   H74   S    
C26   C88   A    
C81   O3    A    
C96   C103  A    
C98   H12   S    
C101  C107  A    
O18   Zn3   S    
C9    C120  A    
C60   C72   A    
C62   C74   A    
C25   N4    S    
O4    Zn4   S    
O12   Zn4   S    
C15   H55   S    
O22   Zn7   S    
C20   H76   S    
C71   C78   A    
C59   C65   A    
C16   H60   S    
C96   H9    S    
O12   Zn6   S    
C63   C78   A    
O1    Zn3   S    
