data_mof_unit_10590.cif
_audit_creation_date              2012-12-10T17:47:42-0500
_audit_creation_method            fapswitch 2.2
_symmetry_space_group_name_H-M    P1
_symmetry_Int_Tables_number       1
_space_group_crystal_system       triclinic
_cell_length_a                    10.619797
_cell_length_b                    10.715924
_cell_length_c                    9.889989
_cell_angle_alpha                 88.722654
_cell_angle_beta                  89.923714
_cell_angle_gamma                 91.739057
_cell_volume                      1124.68980134

loop_
_atom_site_label
_atom_site_type_symbol
_atom_type_description
_atom_site_fract_x
_atom_site_fract_y
_atom_site_fract_z
_atom_type_partial_charge
C1    C     C_R   0.505355 0.259460 0.502591 0.881656
C2    C     C_3   0.878902 0.503429 0.498704 0.114868
C3    C     C_3   0.931229 0.607275 0.591765 -0.411878
C4    C     C_3   0.929513 0.529069 0.352895 -0.395372
C5    C     C_R   0.493448 0.102262 0.763466 -0.174475
C6    C     C_R   0.443840 0.035826 0.875271 -0.122165
C7    C     C_R   0.380295 0.922256 0.857543 -0.119714
C8    C     C_R   0.378202 0.869301 0.730326 -0.160752
C9    C     C_R   0.439248 0.930863 0.618993 0.093383
C10   C     C_R   0.479955 0.055388 0.630842 0.092411
C11   C     C_R   0.506190 0.125009 0.508938 -0.132325
C12   C     C_R   0.257907 0.502454 0.499685 0.857368
C13   C     C_R   0.515026 0.065067 0.385230 -0.219172
C14   C     C_R   0.500005 0.938137 0.380512 -0.227261
C15   C     C_R   0.466962 0.870375 0.497720 -0.132644
C16   C     C_R   0.330900 0.340004 0.144193 -0.219471
C17   C     C_R   0.245724 0.263156 0.076175 -0.326730
C18   C     C_R   0.244703 0.263172 0.935170 0.451185
C19   C     C_R   0.330411 0.340681 0.863745 -0.201981
C20   C     C_R   0.416288 0.421473 0.929690 0.073794
C21   C     C_R   0.416444 0.421335 0.074304 0.162367
C22   C     C_R   0.579781 0.575430 0.069620 -0.128386
C23   C     C_R   0.486216 0.738510 0.498902 0.873592
C24   C     C_R   0.579769 0.575372 0.926334 -0.104299
C25   C     C_R   0.742337 0.502318 0.499653 0.861451
C26   C     C_3   0.068914 0.372778 0.548072 0.386119
C27   C     C_3   0.923784 0.374665 0.550253 -0.443383
C28   C     C_3   0.075516 0.605581 0.593552 -0.519112
C29   C     C_3   0.072638 0.532207 0.353247 -0.356161
C30   C     C_3   0.121463 0.502928 0.498531 0.106194
H1    H     H_    0.102597 0.357056 0.654091 0.106029
H2    H     H_    0.895602 0.619879 0.312478 0.167746
H3    H     H_    0.115183 0.698725 0.560467 0.178185
H4    H     H_    0.900176 0.700257 0.554764 0.173239
H5    H     H_    0.536716 0.115849 0.291663 0.172154
H6    H     H_    0.546802 0.186520 0.785180 0.169233
H7    H     H_    0.453068 0.073644 0.975511 0.134446
H8    H     H_    0.337043 0.872911 0.943162 0.129859
H9    H     H_    0.329671 0.779738 0.719955 0.149824
H10   H     H_    0.517957 0.893048 0.285693 0.168926
H11   H     H_    0.644893 0.637000 0.122008 0.137115
H12   H     H_    0.326738 0.332286 0.251430 0.248582
H13   H     H_    0.181221 0.202569 0.134038 0.170725
H14   H     H_    0.328937 0.332852 0.756769 0.218073
H15   H     H_    0.644848 0.636938 0.870738 0.142848
H16   H     H_    0.883117 0.299405 0.486195 0.185771
H17   H     H_    0.889596 0.355460 0.655373 0.145276
H18   H     H_    0.107837 0.587614 0.699072 0.189604
H19   H     H_    0.895202 0.592877 0.696896 0.187525
H20   H     H_    0.108623 0.626075 0.317875 0.161017
H21   H     H_    0.105966 0.462911 0.280051 0.217686
H22   H     H_    0.895184 0.454556 0.284041 0.193566
N1    N     N_R   0.498810 0.498800 0.142780 -0.113398
N2    N     N_R   0.498760 0.498720 0.857170 -0.113336
O1    O     O_R   0.500000 0.316780 0.614690 -0.652079
O2    O     O_R   0.499990 0.316750 0.385360 -0.631685
O3    O     O_R   0.314800 0.499990 0.614670 -0.664325
O4    O     O_R   0.314790 0.499970 0.385330 -0.634567
O5    O     O_R   0.500010 0.683250 0.614640 -0.619553
O6    O     O_R   0.500000 0.683220 0.385310 -0.623129
O7    O     O_R   0.685210 0.500030 0.614670 -0.623561
O8    O     O_R   0.685200 0.500010 0.385330 -0.625854
Zn1   Zn    Zn3+2 0.500010 0.500020 0.653130 0.916872
Zn2   Zn    Zn3+2 0.499990 0.499980 0.346870 0.929071
O9    O     O_3   0.109195 0.279909 0.458455 -0.633499
C31   C     C_3   0.138282 0.169419 0.530278 -0.304342
H23   H     H_    0.223839 0.184375 0.593164 0.198534
H24   H     H_    0.159196 0.096381 0.456530 0.183561
H25   H     H_    0.057545 0.134631 0.593804 0.189226
O10   O     O_3   0.163159 0.186558 0.864067 -0.814454
H26   H     H_    0.109787 0.136837 0.929041 0.329976

loop_
_geom_bond_atom_site_label_1
_geom_bond_atom_site_label_2
_ccdc_geom_bond_type
C18   O10   S    
C31   H24   S    
C17   H13   S    
C26   C30   S    
C16   C21   A    
C8    H9    S    
C25   O8    A    
C21   N1    A    
C9    C10   A    
C6    C7    A    
O5    Zn1   S    
C19   C20   A    
C1    C11   S    
O6    Zn2   S    
C2    C27   S    
C12   O4    A    
C22   N1    A    
C15   C23   S    
C17   C18   A    
C3    H19   S    
C6    H7    S    
C26   H1    S    
C25   O7    A    
C13   C14   A    
C19   H14   S    
C23   O5    A    
C11   C13   A    
O2    Zn2   S    
C29   C30   S    
C2    C4    S    
C4    H22   S    
C5    C6    A    
C24   H15   S    
C27   H16   S    
C28   C30   S    
C3    C28   S    
C7    H8    S    
C29   H21   S    
C28   H3    S    
O3    Zn1   S    
C2    C25   S    
C2    C3    S    
C29   H20   S    
C5    C10   A    
O4    Zn2   S    
C23   O6    A    
N1    Zn2   S    
C22   C24   A    
C1    O1    A    
C31   H25   S    
C16   C17   A    
N2    Zn1   S    
C12   O3    A    
C24   N2    A    
C4    H2    S    
C22   H11   S    
C5    H6    S    
C16   H12   S    
C7    C8    A    
O10   H26   S    
C31   H23   S    
C20   C21   A    
C20   N2    A    
O9    C31   S    
C10   C11   A    
C27   H17   S    
O7    Zn1   S    
C14   C15   A    
C18   C19   A    
C26   C27   S    
O8    Zn2   S    
C3    H4    S    
C12   C30   S    
C9    C15   A    
C26   O9    S    
C14   H10   S    
C1    O2    A    
C13   H5    S    
C28   H18   S    
C4    C29   S    
C8    C9    A    
O1    Zn1   S    
