data_mof_unit_18635.cif
_audit_creation_date              2013-03-05T16:09:55-0500
_audit_creation_method            fapswitch 2.2
_symmetry_space_group_name_H-M    P1
_symmetry_Int_Tables_number       1
_space_group_crystal_system       triclinic
_cell_length_a                    10.855743
_cell_length_b                    9.953919
_cell_length_c                    10.654819
_cell_angle_alpha                 85.309916
_cell_angle_beta                  93.469926
_cell_angle_gamma                 88.878926
_cell_volume                      1145.02314551

loop_
_atom_site_label
_atom_site_type_symbol
_atom_site_description
_atom_site_fract_x
_atom_site_fract_y
_atom_site_fract_z
_atom_type_partial_charge
O1    O     O_R   0.316770 0.614620 0.499990 -0.602557
O2    O     O_R   0.683230 0.614620 0.500010 -0.592036
O3    O     O_R   0.316800 0.385290 0.500000 -0.638664
O4    O     O_R   0.683200 0.385290 0.500000 -0.657222
C1    C     C_R   0.259831 0.502229 0.498221 0.877174
C2    C     C_R   0.739342 0.500495 0.495213 0.842665
O5    O     O_R   0.500010 0.614690 0.316770 -0.575864
O6    O     O_R   0.499990 0.614690 0.683230 -0.616838
O7    O     O_R   0.500040 0.385360 0.316770 -0.637512
O8    O     O_R   0.499960 0.385360 0.683230 -0.643966
C3    C     C_R   0.513854 0.505532 0.261235 0.896134
C4    C     C_R   0.498518 0.494602 0.741612 0.885530
Zn1   Zn    Zn3+2 0.500000 0.653120 0.500000 1.021669
Zn2   Zn    Zn3+2 0.500000 0.346880 0.500000 0.930173
C5    C     C_R   0.503396 0.763563 0.068871 0.019909
C6    C     C_R   0.342677 0.674493 0.877001 -0.019258
C7    C     C_R   0.428310 0.858834 0.990116 0.156175
C8    C     C_R   0.333675 0.810594 0.908688 0.159052
C9    C     C_R   0.441360 0.591658 0.934859 -0.102381
C10   C     C_R   0.493681 0.625169 0.049171 -0.048790
C11   C     C_R   0.546622 0.518815 0.130833 -0.203535
C12   C     C_R   0.498483 0.484250 0.878972 -0.166798
C13   C     C_R   0.604224 0.409162 0.081672 0.165850
C14   C     C_R   0.583002 0.393514 0.952541 0.198903
C15   C     C_R   0.065718 0.386764 0.513310 -0.138225
C16   C     C_R   0.939333 0.385177 0.508753 -0.150374
H1    H     H_    0.115936 0.291621 0.533789 0.203919
H2    H     H_    0.895234 0.289431 0.526696 0.205180
C17   C     C_R   0.871092 0.505489 0.485540 -0.130930
C18   C     C_R   0.126425 0.508633 0.494324 -0.115063
C19   C     C_R   0.930053 0.630655 0.461946 -0.071567
C20   C     C_R   0.058573 0.632566 0.468421 -0.019325
C21   C     C_R   0.584612 0.062620 0.574495 -0.030218
C22   C     C_R   0.414814 0.080892 0.425877 -0.019250
C23   C     C_R   0.575523 0.919475 0.584302 0.030953
C24   C     C_R   0.423177 0.938771 0.415922 0.015659
N1    N     N_R   0.500000 0.857200 0.500000 -0.139180
N2    N     N_R   0.500000 0.142810 0.500000 -0.158622
C25   C     C_3   0.696173 0.318885 0.164369 -0.802485
H3    H     H_    0.787233 0.319171 0.122245 0.239770
H4    H     H_    0.714887 0.354928 0.259067 0.237671
H5    H     H_    0.661642 0.214556 0.175541 0.275899
C26   C     C_3   0.652917 0.285904 0.893046 -0.869100
H6    H     H_    0.709440 0.215140 0.959286 0.254323
H7    H     H_    0.585894 0.221909 0.845169 0.230810
H8    H     H_    0.716696 0.336181 0.827700 0.240598
C27   C     C_2   0.608388 0.805348 0.151938 0.440752
H9    H     H_    0.687264 0.737032 0.172542 0.037366
O9    O     O_2   0.608158 0.913369 0.198495 -0.614191
C28   C     C_2   0.247374 0.610790 0.795751 0.424018
H10   H     H_    0.253254 0.503199 0.786068 0.041173
O10   O     O_2   0.160379 0.674592 0.741012 -0.597454
C29   C     C_3   0.458073 0.007278 0.981814 -0.875642
H11   H     H_    0.426025 0.056308 0.064004 0.254176
H12   H     H_    0.559131 0.018893 0.977590 0.257880
H13   H     H_    0.417703 0.062307 0.893758 0.224413
C30   C     C_3   0.226750 0.902867 0.856830 -0.728387
H14   H     H_    0.138126 0.855746 0.879491 0.283919
H15   H     H_    0.224892 0.000097 0.900531 0.222485
H16   H     H_    0.230734 0.923512 0.753142 0.244468
C31   C     C_2   0.859489 0.760820 0.430719 0.602224
H17   H     H_    0.788308 0.769297 0.355278 0.051586
O11   O     O_2   0.878741 0.857878 0.491628 -0.473568
C32   C     C_2   0.117585 0.765622 0.447112 0.603117
H18   H     H_    0.182667 0.801265 0.517427 0.111762
O12   O     O_2   0.090010 0.838873 0.351428 -0.540442
C33   C     C_2   0.688009 0.125327 0.642003 0.361808
H19   H     H_    0.679661 0.227524 0.662429 0.137858
O13   O     O_2   0.785430 0.064425 0.672204 -0.531578
C34   C     C_2   0.310905 0.161166 0.358536 0.364233
H20   H     H_    0.324850 0.256920 0.307553 0.137765
O14   O     O_2   0.205820 0.119774 0.360317 -0.563243
C35   C     C_2   0.637019 0.842209 0.695906 0.612570
H21   H     H_    0.614093 0.866319 0.789302 -0.009148
O15   O     O_2   0.718753 0.758948 0.686152 -0.501429
C36   C     C_2   0.353957 0.887330 0.305649 0.562454
H22   H     H_    0.323580 0.956308 0.225512 0.065280
O16   O     O_2   0.325510 0.770838 0.301291 -0.544477

loop_
_geom_bond_atom_site_label_1
_geom_bond_atom_site_label_2
_geom_bond_distance
_ccdc_geom_bond_type
O6    Zn1   1.958478 S    
C35   H21   1.084655 S    
C19   C31   1.495331 S    
C9    C10   1.381098 A    
C5    C27   1.487291 S    
O7    Zn2   1.958557 S    
C25   H4    1.106929 S    
C29   H11   1.107355 S    
O5    C3    1.289497 A    
O1    C1    1.289605 A    
C24   N1    1.386150 A    
C23   N1    1.372956 A    
C36   O16   1.209618 D    
C30   H15   1.108131 S    
C4    C12   1.458764 S    
C31   O11   1.221570 D    
O2    Zn1   2.018293 S    
C24   C36   1.487904 S    
C19   C20   1.393291 A    
C28   O10   1.218469 D    
C13   C14   1.403011 A    
C34   H20   1.075810 S    
C22   C34   1.482799 S    
Zn1   N1    2.031396 S    
C35   O15   1.217138 D    
O2    C2    1.284645 A    
C28   H10   1.085289 S    
C25   H5    1.110652 S    
C29   H12   1.108614 S    
C5    C10   1.415322 A    
C33   H19   1.060837 S    
C9    C12   1.415992 A    
C36   H22   1.081857 S    
C20   C32   1.489192 S    
O4    C2    1.307903 A    
O8    Zn2   2.020024 S    
C25   H3    1.110064 S    
C30   H16   1.110687 S    
C15   C16   1.370360 A    
C3    C11   1.451242 S    
C33   O13   1.221204 D    
C32   O12   1.222118 D    
C26   H6    1.104602 S    
Zn2   N2    2.031297 S    
C26   H7    1.105318 S    
C8    C30   1.514557 S    
C27   H9    1.083433 S    
O6    C4    1.302463 A    
C7    C8    1.420655 A    
O7    C3    1.305941 A    
O3    Zn2   2.017831 S    
O8    C4    1.296424 A    
C11   C13   1.401126 A    
C15   H1    1.083193 S    
C12   C14   1.427148 A    
O1    Zn1   2.033023 S    
C7    C29   1.515342 S    
C21   C33   1.473080 S    
C1    C18   1.446306 S    
C29   H13   1.108666 S    
C15   C18   1.397877 A    
C5    C7    1.422915 A    
C23   C35   1.478328 S    
C22   N2    1.368304 A    
C6    C28   1.492943 S    
O3    C1    1.305579 A    
C27   O9    1.220449 D    
C16   H2    1.083130 S    
C21   N2    1.374872 A    
C32   H18   1.084214 S    
C17   C19   1.422887 A    
C18   C20   1.422921 A    
C30   H14   1.109577 S    
C6    C9    1.417707 A    
C13   C25   1.519595 S    
C21   C23   1.425931 A    
C22   C24   1.428791 A    
O4    Zn2   2.032521 S    
C31   H17   1.077739 S    
C26   H8    1.108840 S    
O5    Zn1   2.019874 S    
C2    C17   1.441700 S    
C10   C11   1.404675 A    
C16   C17   1.392417 A    
C6    C8    1.425654 A    
C14   C26   1.504226 S    
C34   O14   1.221160 D    
