data_mof_unit_17093.cif
_audit_creation_date              2012-12-11T15:27:18-0500
_audit_creation_method            fapswitch 2.2
_symmetry_space_group_name_H-M    P1
_symmetry_Int_Tables_number       1
_space_group_crystal_system       triclinic
_cell_length_a                    13.893249
_cell_length_b                    13.889373
_cell_length_c                    27.410241
_cell_angle_alpha                 90.030073
_cell_angle_beta                  90.309416
_cell_angle_gamma                 119.807982
_cell_volume                      4589.4190249

loop_
_atom_site_label
_atom_site_type_symbol
_atom_type_description
_atom_site_fract_x
_atom_site_fract_y
_atom_site_fract_z
_atom_type_partial_charge
C1    C     C_R   0.235772 0.786687 0.569401 0.525430
C2    C     C_1   0.733819 0.869906 0.855401 -0.036859
C3    C     C_R   0.813643 0.333182 0.653418 -0.107568
C4    C     C_R   0.806688 0.248074 0.682879 -0.121488
C5    C     C_R   0.899813 0.262172 0.708794 -0.048805
C6    C     C_1   0.151367 0.840856 0.862267 -0.022910
C7    C     C_1   0.119686 0.235374 0.851244 -0.049302
C8    C     C_1   0.612298 0.806194 0.660022 -0.062538
C9    C     C_1   0.198115 0.813432 0.661053 -0.072081
C10   C     C_1   0.184413 0.358611 0.655239 -0.074330
C11   C     C_1   0.589594 0.790920 0.617635 0.000415
C12   C     C_1   0.209992 0.802530 0.618251 -0.022979
C13   C     C_1   0.195640 0.392626 0.614254 -0.013866
C14   C     C_R   0.071046 0.162965 0.941573 0.542909
C15   C     C_R   0.212882 0.446114 0.568271 0.534106
C16   C     C_R   0.829480 0.905136 0.941244 0.536329
C17   C     C_R   0.114194 0.891928 0.949752 0.559113
C18   C     C_R   0.619922 0.809504 0.386633 0.060738
C19   C     C_R   0.185449 0.812245 0.387721 0.060129
C20   C     C_R   0.190459 0.379750 0.386539 0.062069
C21   C     C_R   0.628690 0.903870 0.362747 0.240585
C22   C     C_R   0.104929 0.726075 0.357962 0.238740
C23   C     C_R   0.277330 0.373427 0.362679 0.238890
C24   C     C_R   0.662140 0.922636 0.313963 -0.109843
C25   C     C_R   0.073334 0.752946 0.313461 -0.110551
C26   C     C_R   0.550701 0.764472 0.569090 0.538873
C27   C     C_R   0.264102 0.342324 0.313552 -0.113199
C28   C     C_R   0.689523 0.851010 0.289576 0.003511
C29   C     C_R   0.120814 0.863512 0.298309 0.001798
C30   C     C_R   0.164896 0.313456 0.288866 0.003688
C31   C     C_R   0.232801 0.787280 0.431134 0.566058
C32   C     C_R   0.212091 0.444525 0.431689 0.569318
C33   C     C_R   0.555158 0.767254 0.431651 0.566495
C34   C     C_R   0.693922 0.766332 0.315387 -0.139353
C35   C     C_R   0.194231 0.948515 0.329740 -0.136141
C36   C     C_R   0.074385 0.305156 0.314754 -0.137939
C37   C     C_3   0.756873 0.796600 0.777604 0.135227
C38   C     C_R   0.658947 0.745412 0.363466 -0.163890
C39   C     C_R   0.226628 0.923119 0.373834 -0.167714
C40   C     C_R   0.087348 0.339023 0.363119 -0.159062
C41   C     C_R   0.661264 0.763340 0.207647 -0.119027
C42   C     C_R   0.201677 0.962923 0.220966 -0.119619
C43   C     C_R   0.099667 0.338034 0.207520 -0.117702
C44   C     C_R   0.677871 0.771301 0.157527 -0.136609
C45   C     C_R   0.194780 0.976836 0.171186 -0.127831
C46   C     C_R   0.089945 0.321171 0.157389 -0.131271
C47   C     C_R   0.775127 0.972161 0.164180 -0.126616
C48   C     C_3   0.283624 0.930344 0.793219 0.135484
C49   C     C_R   0.997922 0.844025 0.172347 -0.130811
C50   C     C_R   0.209114 0.240010 0.162140 -0.129086
C51   C     C_R   0.760813 0.964245 0.214319 -0.118702
C52   C     C_R   0.004868 0.829881 0.222549 -0.112909
C53   C     C_R   0.215467 0.252916 0.212366 -0.117343
C54   C     C_R   0.705280 0.859800 0.236548 0.038774
C55   C     C_R   0.107394 0.888300 0.247115 0.039933
C56   C     C_R   0.158967 0.300063 0.235630 0.040429
C57   C     C_R   0.736756 0.875740 0.135729 0.018704
C58   C     C_R   0.093413 0.916223 0.146126 0.017891
C59   C     C_3   0.093801 0.352277 0.788673 0.139716
C60   C     C_R   0.141795 0.268829 0.134768 0.021558
C61   C     C_R   0.107018 0.222219 0.086113 0.554063
C62   C     C_R   0.778840 0.885474 0.086419 0.551277
C63   C     C_R   0.087633 0.934051 0.093461 0.566758
C64   C     C_3   0.535526 0.756846 0.744072 -0.250751
C65   C     C_3   0.165079 0.714090 0.739194 -0.248360
C66   C     C_3   0.281360 0.367274 0.733004 -0.251411
C67   C     C_3   0.693006 0.945138 0.725650 -0.223897
C68   C     C_3   0.092467 0.844638 0.726610 -0.222555
C69   C     C_3   0.101296 0.199365 0.711734 -0.222721
C70   C     C_3   0.719128 0.772922 0.723284 -0.033401
C71   C     C_3   0.722234 0.962139 0.780540 -0.224551
C72   C     C_3   0.074944 0.840511 0.782176 -0.203191
C73   C     C_3   0.079448 0.166629 0.766122 -0.224908
C74   C     C_1   0.775001 0.886749 0.895274 0.003963
C75   C     C_1   0.133720 0.857476 0.903466 0.002956
C76   C     C_1   0.099331 0.203684 0.892771 0.000387
C77   C     C_3   0.640755 0.820902 0.711680 0.043913
C78   C     C_3   0.190099 0.825144 0.714173 0.031189
C79   C     C_3   0.167939 0.326721 0.706808 0.036661
C80   C     C_3   0.569444 0.770857 0.799147 -0.260393
C81   C     C_3   0.301297 0.919865 0.737054 -0.061940
C82   C     C_3   0.161646 0.722631 0.795632 -0.267030
C83   C     C_3   0.263438 0.330422 0.787356 -0.252612
C84   C     C_3   0.696475 0.850780 0.804569 0.061713
C85   C     C_3   0.168488 0.833638 0.809800 0.050105
C86   C     C_3   0.137959 0.270138 0.799819 0.044613
C87   C     C_R   0.810229 0.798175 0.685612 0.075957
C88   C     C_R   0.804703 0.710428 0.657403 -0.107088
C89   C     C_R   0.881533 0.731045 0.620460 -0.115308
C90   C     C_R   0.964739 0.839397 0.610814 -0.105367
C91   C     C_R   0.971970 0.927105 0.638466 -0.134628
C92   C     C_3   0.106852 0.381518 0.732939 -0.026614
C93   C     C_R   0.896156 0.906710 0.675871 -0.071909
C94   C     C_R   0.362068 0.033304 0.711719 0.053072
C95   C     C_R   0.471232 0.108108 0.727365 -0.062946
C96   C     C_R   0.530330 0.214662 0.707725 -0.114840
C97   C     C_R   0.482235 0.248143 0.671635 -0.113819
C98   C     C_R   0.375062 0.174924 0.655024 -0.119459
C99   C     C_R   0.315271 0.068288 0.674647 -0.096126
C100  C     C_R   0.001473 0.362584 0.706035 0.087073
C101  C     C_R   0.007419 0.446522 0.675147 -0.096012
C102  C     C_R   0.914109 0.432212 0.649403 -0.099413
Cr1   Cr    Cr6+3 0.164410 0.584450 0.499910 1.051910
Cr2   Cr    Cr6+3 0.415550 0.579960 0.499910 1.060321
Cr3   Cr    Cr6+3 0.420040 0.835590 0.499910 1.068427
Cr4   Cr    Cr6+3 0.156760 0.076070 0.017830 1.022620
Cr5   Cr    Cr6+3 0.923930 0.080690 0.017830 1.019009
Cr6   Cr    Cr6+3 0.919310 0.843240 0.017830 1.018914
H1    H     H_    0.522931 0.804033 0.819431 0.122085
H2    H     H_    0.615257 0.681784 0.223845 0.109853
H3    H     H_    0.282160 0.007552 0.238598 0.105418
H4    H     H_    0.058895 0.378683 0.224319 0.107743
H5    H     H_    0.648665 0.696241 0.136065 0.122317
H6    H     H_    0.269842 0.034101 0.152211 0.125130
H7    H     H_    0.037906 0.344194 0.136644 0.123137
H8    H     H_    0.659945 0.989155 0.294329 0.087828
H9    H     H_    0.017446 0.686906 0.289166 0.088980
H10   H     H_    0.334194 0.347842 0.294053 0.084283
H11   H     H_    0.796463 0.039836 0.235777 0.104033
H12   H     H_    0.083726 0.651384 0.809671 0.144762
H13   H     H_    0.930675 0.772449 0.242036 0.104585
H14   H     H_    0.261210 0.222118 0.232946 0.099550
H15   H     H_    0.822979 0.053827 0.148207 0.134366
H16   H     H_    0.918419 0.798274 0.154021 0.132339
H17   H     H_    0.250011 0.199699 0.145213 0.117565
H18   H     H_    0.719328 0.712880 0.297679 0.110160
H19   H     H_    0.230516 0.034712 0.319144 0.117712
H20   H     H_    0.995163 0.277918 0.296945 0.110615
H21   H     H_    0.477190 0.788701 0.737614 0.116515
H22   H     H_    0.083116 0.646471 0.726387 0.136179
H23   H     H_    0.297647 0.274128 0.794056 0.156587
H24   H     H_    0.328897 0.332978 0.714440 0.140639
H25   H     H_    0.656177 0.674668 0.381458 0.148645
H26   H     H_    0.286914 0.990432 0.396396 0.142473
H27   H     H_    0.018520 0.339701 0.381170 0.149732
H28   H     H_    0.766200 0.998598 0.703238 0.106511
H29   H     H_    0.107146 0.925928 0.713340 0.118415
H30   H     H_    0.022294 0.164841 0.690978 0.109768
H31   H     H_    0.632329 0.973494 0.717765 0.111676
H32   H     H_    0.015103 0.779617 0.708942 0.157670
H33   H     H_    0.148816 0.162327 0.695480 0.114762
H34   H     H_    0.490115 0.667140 0.734326 0.105380
H35   H     H_    0.672314 0.994549 0.798517 0.122004
H36   H     H_    0.993774 0.766506 0.791198 0.174183
H37   H     H_    0.109163 0.107525 0.774713 0.111328
H38   H     H_    0.809596 0.027048 0.785978 0.087216
H39   H     H_    0.071199 0.914996 0.794155 0.161463
H40   H     H_    0.989502 0.122488 0.772633 0.079880
H41   H     H_    0.663794 0.681080 0.721519 0.064478
H42   H     H_    0.360767 0.888158 0.734414 0.070702
H43   H     H_    0.165513 0.472759 0.731515 0.058517
H44   H     H_    0.730208 0.714978 0.795320 0.144159
H45   H     H_    0.228414 0.690914 0.729040 0.104761
H46   H     H_    0.349087 0.922482 0.813460 0.137016
H47   H     H_    0.148915 0.430407 0.808971 0.142310
H48   H     H_    0.898719 0.935407 0.776256 0.320460
H49   H     H_    0.249327 0.050387 0.784356 0.323876
H50   H     H_    0.946408 0.237205 0.812325 0.323911
H51   H     H_    0.609707 0.033994 0.364315 0.311407
H52   H     H_    0.009230 0.567436 0.346293 0.309141
H53   H     H_    0.427340 0.394805 0.364544 0.308991
H54   H     H_    0.740067 0.625600 0.663510 0.092253
H55   H     H_    0.876160 0.662902 0.599145 0.110063
H56   H     H_    0.332334 0.459281 0.731037 0.103433
H57   H     H_    0.024082 0.855320 0.582160 0.116642
H58   H     H_    0.037305 0.011000 0.631287 0.097967
H59   H     H_    0.906236 0.975994 0.697124 0.087898
H60   H     H_    0.510262 0.084108 0.755466 0.104522
H61   H     H_    0.613399 0.271488 0.720694 0.116791
H62   H     H_    0.528059 0.330775 0.656496 0.105514
H63   H     H_    0.337926 0.200936 0.626903 0.111727
H64   H     H_    0.233477 0.015284 0.660047 0.101977
H65   H     H_    0.085273 0.522514 0.669985 0.095477
H66   H     H_    0.920093 0.497678 0.625983 0.110926
H67   H     H_    0.546286 0.688488 0.815035 0.108722
H68   H     H_    0.741408 0.322022 0.633398 0.113598
H69   H     H_    0.728951 0.170936 0.685582 0.102038
H70   H     H_    0.891549 0.194425 0.730897 0.102938
H71   H     H_    0.232149 0.717504 0.812326 0.105677
H72   H     H_    0.310015 0.404297 0.811343 0.109294
O1    O     O_R   0.137310 0.468260 0.552980 -0.511101
O2    O     O_R   0.139940 0.470480 0.446230 -0.504751
O3    O     O_R   0.529520 0.669460 0.446230 -0.512778
O4    O     O_R   0.330540 0.860060 0.446230 -0.508482
O5    O     O_R   0.176560 0.690850 0.450770 -0.437437
O6    O     O_R   0.309150 0.485710 0.450770 -0.432452
O7    O     O_R   0.514290 0.823440 0.450770 -0.430406
O8    O     O_3   0.333333 0.666667 0.499990 -0.290032
O9    O     O_3   0.000000 0.000000 0.017910 -0.286841
O10   O     O_R   0.149710 0.171070 0.967700 -0.481739
O11   O     O_R   0.828930 0.978640 0.967700 -0.502892
O12   O     O_R   0.531740 0.669050 0.552980 -0.515037
O13   O     O_R   0.021360 0.850290 0.967700 -0.510291
O14   O     O_R   0.178510 0.985930 0.071830 -0.513681
O15   O     O_R   0.014070 0.192580 0.071830 -0.513725
O16   O     O_R   0.807420 0.821490 0.071830 -0.524456
O17   O     O_R   0.147830 0.173300 0.066650 -0.514236
O18   O     O_R   0.826700 0.974530 0.066650 -0.495100
O19   O     O_R   0.025470 0.852170 0.066650 -0.485080
O20   O     O_3   0.872491 0.856781 0.783292 -0.760287
O21   O     O_3   0.296606 0.034474 0.806275 -0.704554
O22   O     O_3   0.985919 0.317955 0.805926 -0.709612
O23   O     O_R   0.330950 0.862690 0.552980 -0.507335
O24   O     O_3   0.598546 0.972771 0.386388 -0.676519
O25   O     O_3   0.063396 0.616523 0.371266 -0.679093
O26   O     O_3   0.376337 0.404189 0.386681 -0.679970
O27   O     O_R   0.180530 0.983530 0.965090 -0.496938
O28   O     O_R   0.016470 0.197000 0.965090 -0.495115
O29   O     O_R   0.803000 0.819470 0.965090 -0.493802
O30   O     O_R   0.174120 0.688790 0.549730 -0.511270
O31   O     O_R   0.311210 0.485330 0.549730 -0.506513
O32   O     O_R   0.514670 0.825880 0.549730 -0.501761

loop_
_geom_bond_atom_site_label_1
_geom_bond_atom_site_label_2
_ccdc_geom_bond_type
C87   C88   A    
C101  C102  A    
C14   O28   A    
C31   O4    A    
C18   C21   A    
C64   C77   S    
C91   H58   S    
C17   O13   A    
C95   C96   A    
Cr1   O5    S    
C82   H12   S    
C4    H69   S    
C80   C84   S    
C19   C31   S    
C95   H60   S    
Cr5   O15   S    
C65   H22   S    
H51   O24   S    
C6    C75   T    
Cr4   O14   S    
H48   O20   S    
C66   C79   S    
C70   H41   S    
Cr3   O32   S    
C83   H72   S    
C82   C85   S    
C16   C74   S    
Cr3   O8    S    
C32   O2    A    
C16   O29   A    
C53   H14   S    
C20   C40   A    
Cr3   O23   S    
C7    C86   S    
C91   C93   A    
C69   H33   S    
C81   H42   S    
Cr1   O2    S    
C87   C93   A    
C58   C63   S    
C48   C81   S    
C37   O20   S    
C15   O31   A    
Cr2   O3    S    
C66   C83   S    
C101  H65   S    
C45   H6    S    
C22   C25   A    
C67   C77   S    
C82   H71   S    
C33   O3    A    
C51   H11   S    
C20   C23   A    
C37   C84   S    
C69   C73   S    
C62   O16   A    
Cr6   O16   S    
C67   H31   S    
C61   O15   A    
C2    C74   T    
C52   C55   A    
C68   C72   S    
C59   C92   S    
H52   O25   S    
C28   C34   A    
C34   C38   A    
C37   C70   S    
C27   C30   A    
C25   C29   A    
C64   C80   S    
C21   O24   S    
Cr5   O9    S    
C68   H29   S    
C36   H20   S    
C1    C12   S    
C70   C87   S    
Cr1   O30   S    
C18   C33   S    
C97   C98   A    
C66   H24   S    
C72   C85   S    
C68   C78   S    
Cr2   O8    S    
C40   H27   S    
C45   C58   A    
C50   C53   A    
C71   H38   S    
C73   H40   S    
C36   C40   A    
C19   C22   A    
C62   O18   A    
C61   O17   A    
Cr4   O27   S    
C28   C54   S    
Cr2   O31   S    
C47   C51   A    
C99   H64   S    
C29   C55   S    
C11   C26   S    
C57   C62   S    
C49   H16   S    
C30   C56   S    
C48   O21   S    
C97   H62   S    
C22   O25   S    
C73   H37   S    
C60   C61   S    
C42   C45   A    
C14   C76   S    
C80   H1    S    
C35   C39   A    
C42   H3    S    
C83   H23   S    
C16   O11   A    
C42   C55   A    
C47   C57   A    
C52   H13   S    
C43   C56   A    
C47   H15   S    
C5    C100  A    
C17   O27   A    
C44   C57   A    
C34   H18   S    
C49   C52   A    
C96   C97   A    
C31   O5    A    
C92   H43   S    
C2    C84   S    
Cr5   O28   S    
C63   O14   A    
C66   H56   S    
C33   O7    A    
C50   H17   S    
C64   H21   S    
C35   H19   S    
C41   C54   A    
C6    C85   S    
C79   C92   S    
C19   C39   A    
Cr4   O17   S    
C98   H63   S    
C46   H7    S    
C3    C102  A    
C44   H5    S    
C24   H8    S    
C23   C27   A    
C41   H2    S    
C13   C15   S    
C90   H57   S    
C8    C77   S    
H50   O22   S    
C41   C44   A    
H53   O26   S    
C68   H32   S    
H49   O21   S    
C43   H4    S    
Cr4   O10   S    
C37   H44   S    
C90   C91   A    
C3    C4    A    
C1    O23   A    
C92   C100  S    
C71   H35   S    
C71   C84   S    
C20   C32   S    
C53   C56   A    
C65   H45   S    
C69   H30   S    
C72   H36   S    
C48   H46   S    
C59   H47   S    
C65   C78   S    
C46   C60   A    
C1    O30   A    
Cr1   O1    S    
Cr6   O29   S    
Cr1   O8    S    
C24   C28   A    
C80   H67   S    
C4    C5    A    
C10   C13   T    
C25   H9    S    
Cr5   O18   S    
C10   C79   S    
C7    C76   T    
C32   O6    A    
C102  H66   S    
C72   H39   S    
Cr2   O6    S    
C29   C35   A    
C26   O12   A    
C30   C36   A    
C96   H61   S    
C51   C54   A    
C50   C60   A    
Cr3   O7    S    
Cr6   O19   S    
C67   H28   S    
C18   C38   A    
C59   C86   S    
C23   O26   S    
C89   H55   S    
C81   C94   S    
C78   C81   S    
C65   C82   S    
C64   H34   S    
C94   C99   A    
C8    C11   T    
C88   H54   S    
C15   O1    A    
C100  C101  A    
C63   O19   A    
C67   C71   S    
C9    C78   S    
Cr3   O4    S    
C59   O22   S    
C94   C95   A    
Cr6   O9    S    
C43   C46   A    
C5    H70   S    
C69   C79   S    
C9    C12   T    
C49   C58   A    
C14   O10   A    
C3    H68   S    
C83   C86   S    
C88   C89   A    
C93   H59   S    
C98   C99   A    
C21   C24   A    
Cr5   O11   S    
C17   C75   S    
C48   C85   S    
C26   O32   A    
C73   C86   S    
C27   H10   S    
Cr4   O9    S    
Cr6   O13   S    
C89   C90   A    
C38   H25   S    
C70   C77   S    
C39   H26   S    
Cr2   O12   S    
