data_mof_unit_10419.cif
_audit_creation_date              2013-03-05T16:04:33-0500
_audit_creation_method            fapswitch 2.2
_symmetry_space_group_name_H-M    P1
_symmetry_Int_Tables_number       1
_space_group_crystal_system       triclinic
_cell_length_a                    8.490102
_cell_length_b                    14.741033
_cell_length_c                    18.828432
_cell_angle_alpha                 98.772377
_cell_angle_beta                  91.54822
_cell_angle_gamma                 91.90397
_cell_volume                      2326.35285987

loop_
_atom_site_label
_atom_site_type_symbol
_atom_site_description
_atom_site_fract_x
_atom_site_fract_y
_atom_site_fract_z
_atom_type_partial_charge
P1    P     P_3+3 0.061800 0.409390 0.339760 0.440153
O1    O     O_2   0.887710 0.436190 0.327560 -0.326556
O2    O     O_3   0.135370 0.443490 0.416520 -0.432586
O3    O     O_3   0.634420 0.609440 0.364670 -0.353400
O4    O     O_2   0.760873 0.534419 0.243789 -0.380306
O5    O     O_3   0.048786 0.289348 0.326340 -0.604904
O6    O     O_3   0.655989 0.697266 0.240806 -0.512393
H1    H     H_    0.458398 0.735515 0.304195 -0.045703
C1    C     C_3   0.642171 0.840686 0.317700 -0.752680
H2    H     H_    0.688784 0.815488 0.366288 0.258248
P2    P     P_3+3 0.622760 0.718740 0.547830 0.508461
P3    P     P_3+3 0.069270 0.779186 0.398838 0.467497
O7    O     O_2   0.795290 0.730930 0.525800 -0.367106
O8    O     O_3   0.044470 0.660110 0.398750 -0.380352
O9    O     O_2   0.936613 0.825967 0.443950 -0.383664
O10   O     O_3   0.645881 0.756102 0.640387 -0.542944
O11   O     O_3   0.026377 0.800730 0.311522 -0.531675
C2    C     C_3   0.066653 0.723922 0.262368 0.452614
H3    H     H_    0.192184 0.707601 0.270017 -0.034837
C3    C     C_3   0.041066 0.743962 0.186099 -0.878919
H4    H     H_    0.077009 0.684603 0.147041 0.214814
H5    H     H_    0.914678 0.756013 0.175826 0.290662
C4    C     C_3   0.183595 0.779385 0.714266 0.308940
C5    C     C_3   0.157644 0.779740 0.796280 -0.954248
Ba1   Ba    Ba6+2 0.843240 0.541620 0.463500 1.599429
C6    C     C_3   0.000260 0.258346 0.389127 0.260790
H6    H     H_    0.874419 0.272481 0.396781 0.077762
C7    C     C_3   0.024094 0.155872 0.382497 -0.754721
H7    H     H_    0.994719 0.131496 0.433431 0.195657
H8    H     H_    0.150418 0.144148 0.373321 0.220431
C8    C     C_3   0.723344 0.696924 0.678638 0.370631
H9    H     H_    0.819377 0.663446 0.647578 0.090298
C9    C     C_3   0.788227 0.755086 0.747823 -0.807401
H10   H     H_    0.864602 0.811186 0.734208 0.247079
P4    P     P_3+3 0.127890 0.590690 0.660240 0.562935
O12   O     O_2   0.301980 0.563840 0.672490 -0.375557
O13   O     O_3   0.054330 0.556590 0.583490 -0.305466
O14   O     O_3   0.555270 0.390630 0.635330 -0.345441
O15   O     O_3   0.091101 0.711356 0.667731 -0.532861
P5    P     P_3+3 0.126810 0.219202 0.599220 0.461503
O16   O     O_3   0.637720 0.384870 0.467990 -0.387006
O17   O     O_3   0.145220 0.339960 0.601250 -0.362274
O18   O     O_2   0.231927 0.175444 0.539000 -0.388549
O19   O     O_3   0.221181 0.188915 0.675764 -0.509883
Ba2   Ba    Ba6+2 0.346570 0.458460 0.536510 1.616290
P6    P     P_3+3 0.619324 0.591775 0.270404 0.485261
C10   C     C_3   0.549052 0.762896 0.270588 0.384153
O20   O     O_3   0.551980 0.615210 0.532020 -0.412028
C11   C     C_3   0.528133 0.259390 0.311402 0.201322
H11   H     H_    0.633003 0.304576 0.306597 0.142002
C12   C     C_3   0.495895 0.203143 0.236303 -0.600813
P7    P     P_3+3 0.571481 0.264886 0.451358 0.438388
O21   O     O_2   0.394410 0.269100 0.474240 -0.356945
O22   O     O_3   0.565408 0.203776 0.362521 -0.560916
H12   H     H_    0.112070 0.805936 0.178117 0.264101
C13   C     C_3   0.121986 0.201693 0.734861 0.375096
H13   H     H_    0.998130 0.179847 0.718326 -0.024917
C14   C     C_3   0.177665 0.139218 0.788545 -0.593788
H14   H     H_    0.187772 0.068777 0.758970 0.171746
P8    P     P_3+3 0.578139 0.404919 0.728566 0.513996
C15   C     C_3   0.664016 0.240317 0.728557 0.389784
H15   H     H_    0.779084 0.269687 0.752582 0.042431
O23   O     O_2   0.434586 0.458233 0.757302 -0.337607
O24   O     O_3   0.541355 0.296862 0.753406 -0.487318
H16   H     H_    0.738652 0.103345 0.735468 0.244725
C16   C     C_3   0.636467 0.146297 0.750570 -0.806701
H17   H     H_    0.528198 0.112135 0.722858 0.266935
H18   H     H_    0.623370 0.153126 0.809656 0.267226
C17   C     C_R   0.006462 0.453193 0.050226 0.042791
C18   C     C_R   0.922292 0.409394 0.100205 -0.184802
C19   C     C_R   0.789991 0.426773 0.956335 -0.166181
C20   C     C_R   0.945207 0.457610 0.978992 0.057448
C21   C     C_R   0.732815 0.429261 0.886689 -0.127606
C22   C     C_R   0.826466 0.463353 0.835772 -0.058856
C23   C     C_R   0.980628 0.498633 0.856810 0.060864
C24   C     C_R   0.040277 0.495758 0.928875 0.082395
C25   C     C_R   0.769685 0.463691 0.764529 0.191805
C26   C     C_R   0.863978 0.504401 0.716754 -0.362682
C27   C     C_R   0.017223 0.538489 0.733568 0.148400
C28   C     C_R   0.075779 0.536099 0.805882 -0.073213
C29   C     C_R   0.159159 0.491067 0.071948 0.034793
C30   C     C_R   0.218073 0.490824 0.144396 0.010742
C31   C     C_R   0.124991 0.452364 0.195186 -0.027226
C32   C     C_R   0.981121 0.407895 0.170011 -0.064361
H19   H     H_    0.612259 0.405274 0.873878 0.185682
H20   H     H_    0.911825 0.369809 0.203446 0.156064
C33   C     C_R   0.224819 0.572188 0.830021 -0.068385
C34   C     C_R   0.282939 0.570320 0.899361 -0.138426
C35   C     C_R   0.194575 0.531112 0.950181 0.052858
C36   C     C_R   0.254564 0.528282 0.021563 0.032405
C37   C     C_R   0.409347 0.559922 0.044068 -0.147066
C38   C     C_R   0.371124 0.528146 0.165378 -0.070716
C39   C     C_R   0.465429 0.559886 0.113835 -0.096004
C40   C     C_R   0.429286 0.529740 0.236479 0.170136
C41   C     C_R   0.339010 0.488561 0.285637 -0.436087
C42   C     C_R   0.181932 0.455435 0.268126 0.130138
H21   H     H_    0.586229 0.583663 0.126029 0.182773
H22   H     H_    0.707258 0.401624 0.991777 0.127752
H23   H     H_    0.493141 0.584314 0.008837 0.135100
C43   C     C_R   0.689276 0.948491 0.548334 -0.071797
C44   C     C_R   0.510748 0.805814 0.504039 0.199802
C45   C     C_R   0.368425 0.772556 0.467601 -0.378428
C46   C     C_R   0.266596 0.828819 0.436868 0.094766
C47   C     C_R   0.316258 0.919375 0.433161 -0.151818
C48   C     C_R   0.458292 0.957816 0.469539 0.036886
C49   C     C_R   0.554620 0.902853 0.508512 -0.038847
C50   C     C_R   0.637916 0.093911 0.504799 0.040940
C51   C     C_R   0.737213 0.039882 0.541419 0.050478
C52   C     C_R   0.678188 0.189252 0.506186 0.174047
C53   C     C_R   0.818171 0.225672 0.541938 -0.450549
C54   C     C_R   0.924177 0.170995 0.572193 0.170157
C55   C     C_R   0.883918 0.078738 0.571871 -0.306873
C56   C     C_R   0.500512 0.051823 0.469637 -0.045129
H24   H     H_    0.969114 0.037486 0.594789 0.170628
H25   H     H_    0.108897 0.713630 0.805520 0.208420
C57   C     C_2   0.300926 0.806117 0.844982 0.606017
H26   H     H_    0.398870 0.760629 0.843937 0.044963
O25   O     O_2   0.307583 0.878481 0.886450 -0.545014
H27   H     H_    0.064648 0.827500 0.816208 0.244157
H28   H     H_    0.073383 0.290407 0.436706 0.138779
C58   C     C_2   0.925831 0.102619 0.322118 0.733282
H29   H     H_    0.949478 0.110364 0.267012 0.038969
O26   O     O_2   0.820733 0.049288 0.334521 -0.561741
C59   C     C_2   0.608815 0.626471 0.696635 0.460875
H30   H     H_    0.572160 0.570704 0.654868 0.113653
O27   O     O_2   0.562324 0.628458 0.757637 -0.642047
H31   H     H_    0.851440 0.711454 0.781182 0.206870
H32   H     H_    0.692404 0.788307 0.780112 0.255825
C60   C     C_2   0.463517 0.801242 0.211458 0.533585
H33   H     H_    0.376874 0.852982 0.225152 0.068374
O28   O     O_2   0.490341 0.775718 0.148318 -0.539101
H34   H     H_    0.566135 0.899214 0.334695 0.224497
H35   H     H_    0.419630 0.296515 0.326677 0.093556
C61   C     C_2   0.346375 0.143787 0.233826 0.811949
H36   H     H_    0.242325 0.173129 0.258582 -0.036059
O29   O     O_2   0.336792 0.065158 0.201820 -0.514101
H37   H     H_    0.472923 0.253409 0.199156 0.059524
C62   C     C_2   0.641119 0.153274 0.209854 0.828516
H38   H     H_    0.746111 0.193437 0.200748 -0.128308
O30   O     O_2   0.644296 0.069547 0.198615 -0.510552
H39   H     H_    0.741769 0.865519 0.287837 0.299846
C63   C     C_2   0.129194 0.301758 0.767761 0.688428
H40   H     H_    0.070851 0.350623 0.739649 -0.035149
O31   O     O_2   0.200170 0.328925 0.824741 -0.574811
H41   H     H_    0.297408 0.162230 0.810867 0.215783
C64   C     C_2   0.068914 0.133908 0.849891 0.566644
H42   H     H_    0.095159 0.087526 0.887798 0.069916
O32   O     O_2   0.952629 0.180567 0.858174 -0.590225
H43   H     H_    0.666483 0.231242 0.669040 0.108789
H44   H     H_    0.990254 0.663144 0.268401 0.161483
H45   H     H_    0.817374 0.509523 0.663893 0.144354
H46   H     H_    0.297450 0.606669 0.796293 0.187808
C65   C     C_2   0.419160 0.473665 0.353287 0.590330
H47   H     H_    0.374379 0.495604 0.404863 0.104159
O33   O     O_2   0.551192 0.444812 0.352475 -0.553565
H48   H     H_    0.810826 0.373061 0.086561 0.122746
H49   H     H_    0.398092 0.602522 0.911327 0.132905
C66   C     C_2   0.327759 0.675157 0.454830 0.941076
H50   H     H_    0.343902 0.638960 0.401646 -0.252385
O34   O     O_2   0.258504 0.639004 0.499642 -0.483021
C67   C     C_2   0.224911 0.968953 0.384848 0.483607
H51   H     H_    0.098486 0.973272 0.389767 0.096217
O35   O     O_2   0.289271 0.999407 0.335893 -0.593210
C68   C     C_2   0.851864 0.323485 0.553383 0.679868
H52   H     H_    0.889376 0.360671 0.511286 0.021005
O36   O     O_2   0.851102 0.362407 0.614360 -0.655251
C69   C     C_2   0.763494 0.913347 0.609236 0.594341
H53   H     H_    0.867618 0.873358 0.601902 0.101600
O37   O     O_2   0.714930 0.935765 0.669574 -0.604798
H54   H     H_    0.423677 0.093309 0.442777 0.189660
C70   C     C_2   0.346028 0.771501 0.692613 0.656950
H55   H     H_    0.444651 0.802624 0.726159 -0.028879
O38   O     O_2   0.362996 0.737648 0.630784 -0.518083
C71   C     C_2   0.136904 0.872016 0.695884 0.441072
H56   H     H_    0.080635 0.921474 0.734787 0.004360
O39   O     O_2   0.158093 0.892052 0.636068 -0.582148

loop_
_geom_bond_atom_site_label_1
_geom_bond_atom_site_label_2
_geom_bond_distance
_ccdc_geom_bond_type
C16   H18   1.110584 S    
C70   H55   1.080761 S    
C44   C45   1.408682 A    
Ba1   Ba2   4.653754 S    
C15   O24   1.401172 S    
C21   C22   1.401930 A    
C41   C42   1.417577 A    
C20   C24   1.425128 A    
C45   C66   1.447649 S    
C55   H24   1.082396 S    
O3    Ba1   2.848199 S    
C14   H41   1.111647 S    
C69   O37   1.220537 D    
C4    C71   1.521232 S    
O3    P6    1.754698 S    
C25   C26   1.407751 A    
C13   H13   1.111578 S    
O10   C8    1.384336 S    
C70   O38   1.208994 D    
C6    H6    1.104369 S    
C10   C60   1.503963 S    
C43   C69   1.464313 S    
C18   H48   1.076864 S    
C48   C56   1.419500 A    
C7    H7    1.105946 S    
P4    O13   1.561980 S    
C32   H20   1.078666 S    
C8    C59   1.482201 S    
C2    H3    1.110766 S    
C28   C33   1.393267 A    
C17   C18   1.415638 A    
C12   C61   1.513202 S    
C1    H34   1.107893 S    
P2    Ba1   3.473175 S    
C11   O22   1.392863 S    
C9    H31   1.106410 S    
C30   C38   1.416221 A    
C57   H26   1.084159 S    
P1    O1    1.562556 D    
P4    C27   1.930613 S    
C53   C54   1.394514 A    
C50   C56   1.403205 A    
O14   Ba2   2.847509 S    
Ba1   O13   2.822683 S    
C71   H56   1.084193 S    
C15   C16   1.518636 S    
P5    O18   1.538822 D    
P4    O12   1.562932 D    
C57   O25   1.220774 D    
C11   C12   1.538887 S    
C22   C25   1.413874 A    
P3    O11   1.752377 S    
C50   C51   1.414624 A    
C8    C9    1.524659 S    
C65   O33   1.211750 D    
C18   C32   1.396977 A    
C1    H2    1.106965 S    
O16   P7    1.816043 S    
C24   C35   1.418136 A    
C13   C63   1.508815 S    
P5    O17   1.776249 S    
C16   H17   1.110853 S    
Ba2   O21   2.904156 S    
C66   O34   1.218516 D    
C50   C52   1.431510 A    
O7    Ba1   2.903810 S    
P2    O20   1.603014 S    
C15   H15   1.111194 S    
C3    H12   1.109392 S    
C47   C48   1.426883 A    
C67   O35   1.219361 D    
P7    O22   1.773315 S    
C26   H45   1.075398 S    
C67   H51   1.082978 S    
P5    C54   1.866762 S    
C64   O32   1.221806 D    
C19   H22   1.076863 S    
P8    C25   1.876616 S    
C43   C51   1.420373 A    
C22   C23   1.415760 A    
P1    O5    1.748276 S    
O6    P6    1.751336 S    
O2    Ba1   2.998839 S    
C9    H10   1.099121 S    
P3    C46   1.883789 S    
Ba1   O16   2.861914 S    
C47   C67   1.471528 S    
C19   C21   1.392123 A    
C53   C68   1.442826 S    
C26   C27   1.389705 A    
C61   O29   1.221171 D    
C14   H14   1.108055 S    
O2    Ba2   2.823254 S    
C9    H32   1.110707 S    
C29   C30   1.440716 A    
C51   C55   1.421984 A    
P1    O2    1.562175 S    
O17   Ba2   2.832520 S    
O6    C10   1.412477 S    
C17   C20   1.436937 A    
P4    O15   1.801151 S    
C23   C24   1.442639 A    
C37   C39   1.385174 A    
P2    O10   1.749411 S    
O19   C13   1.407157 S    
C8    H9    1.102173 S    
P6    C40   1.874981 S    
P3    O9    1.546015 D    
P3    O8    1.760672 S    
C4    C5    1.564956 S    
C38   C40   1.410842 A    
O11   C2    1.406633 S    
O12   Ba2   2.826626 S    
P2    C44   1.895598 S    
C34   H49   1.075426 S    
C34   C35   1.411076 A    
Ba1   O20   2.979904 S    
C21   H19   1.080481 S    
C58   H29   1.084317 S    
C56   H54   1.076255 S    
C62   O30   1.221332 D    
C5    H25   1.086304 S    
O14   P8    1.740661 S    
C29   C36   1.423999 A    
C12   H37   1.112007 S    
C3    H5    1.110102 S    
C5    C57   1.507117 S    
C40   C41   1.411182 A    
C33   H46   1.068021 S    
P8    O23   1.537986 D    
C66   H50   1.074963 S    
C63   O31   1.221668 D    
C31   C32   1.402537 A    
O13   Ba2   2.999635 S    
P4    Ba2   3.429689 S    
C39   H21   1.079946 S    
C69   H53   1.079087 S    
P7    O21   1.575620 D    
C59   O27   1.221029 D    
C64   H42   1.084864 S    
C48   C49   1.434121 A    
Ba2   O20   2.861369 S    
C44   C49   1.455399 A    
C11   H35   1.109336 S    
C68   H52   1.079221 S    
C5    H27   1.110049 S    
C1    H39   1.110449 S    
C54   C55   1.390260 A    
C7    C58   1.495872 S    
C6    C7    1.517402 S    
C6    H28   1.110235 S    
P1    Ba1   3.429215 S    
C1    C10   1.522644 S    
C61   H36   1.082074 S    
O4    P6    1.543060 D    
C43   C49   1.438914 A    
C14   C64   1.507705 S    
P8    O24   1.748020 S    
C37   H23   1.075490 S    
C68   O36   1.202938 D    
C60   H33   1.084834 S    
H1    C10   1.113217 S    
C19   C20   1.412762 A    
C2    H44   1.110286 S    
C52   C53   1.399268 A    
P2    O7    1.545330 D    
C36   C37   1.411704 A    
O5    C6    1.398105 S    
C41   C65   1.477173 S    
P7    C52   1.870067 S    
P1    C42   1.904656 S    
C4    O15   1.425668 S    
C31   C42   1.437188 A    
C7    H8    1.105986 S    
C38   C39   1.399053 A    
C13   C14   1.542836 S    
O1    Ba1   2.826132 S    
C2    C3    1.521006 S    
H16   C16   1.108751 S    
O8    Ba1   2.831921 S    
C45   C46   1.391808 A    
C71   O39   1.223480 D    
C58   O26   1.220407 D    
C17   C29   1.418893 A    
C62   H38   1.085663 S    
C27   C28   1.442720 A    
C12   C62   1.513395 S    
P5    O19   1.753856 S    
C23   C28   1.432081 A    
C4    C70   1.451945 S    
C3    H4    1.110492 S    
C33   C34   1.387735 A    
C11   H11   1.108115 S    
C46   C47   1.398993 A    
O16   Ba2   2.979109 S    
C63   H40   1.081777 S    
C30   C31   1.427202 A    
C65   H47   1.060427 S    
C35   C36   1.431439 A    
C15   H43   1.108987 S    
C59   H30   1.078730 S    
C60   O28   1.220922 D    
