data_mof_unit_19887.cif
_audit_creation_date              2012-12-11T14:46:09-0500
_audit_creation_method            fapswitch 2.2
_symmetry_space_group_name_H-M    P1
_symmetry_Int_Tables_number       1
_space_group_crystal_system       triclinic
_cell_length_a                    10.904319
_cell_length_b                    11.003717
_cell_length_c                    18.80783
_cell_angle_alpha                 90.742881
_cell_angle_beta                  90.081753
_cell_angle_gamma                 119.73106
_cell_volume                      1959.4021283

loop_
_atom_site_label
_atom_site_type_symbol
_atom_type_description
_atom_site_fract_x
_atom_site_fract_y
_atom_site_fract_z
_atom_type_partial_charge
C1    C     C_R   0.862793 0.641865 0.601062 0.557107
C2    C     C_R   0.916443 0.099859 0.698046 -0.038377
C3    C     C_R   0.903644 0.064323 0.771178 -0.010922
C4    C     C_R   0.207738 0.595197 0.610733 0.559729
C5    C     C_R   0.748315 0.179822 0.718189 0.010215
C6    C     C_R   0.693804 0.092667 0.774947 -0.013393
C7    C     C_R   0.718056 0.290117 0.713974 0.299751
C8    C     C_R   0.591914 0.273076 0.741385 -0.016455
C9    C     C_R   0.510290 0.158074 0.782891 -0.147261
C10   C     C_R   0.563275 0.070728 0.801310 -0.106343
C11   C     C_R   0.841564 0.164513 0.672578 -0.036150
C12   C     C_R   0.242161 0.525183 0.802915 -0.099719
C13   C     C_R   0.693740 0.620177 0.695972 -0.119319
C14   C     C_R   0.671146 0.629686 0.769057 0.208792
C15   C     C_R   0.787324 0.685332 0.816542 0.077352
C16   C     C_R   0.862154 0.226713 0.602273 0.535920
C17   C     C_R   0.920961 0.720756 0.791921 -0.161989
C18   C     C_R   0.942364 0.717363 0.720749 -0.095929
C19   C     C_R   0.830433 0.666900 0.672306 0.058817
C20   C     C_R   0.253836 0.539412 0.275255 -0.116680
C21   C     C_R   0.267891 0.555624 0.202781 -0.114513
C22   C     C_R   0.336813 0.689908 0.174316 0.029415
C23   C     C_R   0.210157 0.503949 0.730422 -0.164337
C24   C     C_R   0.379123 0.807756 0.219006 -0.129683
C25   C     C_R   0.359939 0.790732 0.292227 -0.133950
C26   C     C_R   0.301976 0.656467 0.320598 0.031878
C27   C     C_R   0.754256 0.213231 0.278768 -0.128189
C28   C     C_R   0.863524 0.639637 0.398635 0.539843
C29   C     C_R   0.756126 0.206722 0.206109 -0.129889
C30   C     C_R   0.850276 0.173880 0.171976 0.022197
C31   C     C_R   0.956291 0.167876 0.211287 -0.156190
C32   C     C_R   0.956983 0.178301 0.285197 -0.152891
C33   C     C_R   0.853226 0.197479 0.319220 0.031623
C34   C     C_R   0.233464 0.616964 0.687882 0.009661
C35   C     C_R   0.888729 0.796876 0.301507 -0.142577
C36   C     C_R   0.876471 0.813242 0.229791 -0.170558
C37   C     C_R   0.788213 0.698520 0.186542 0.026957
C38   C     C_R   0.705855 0.564598 0.217156 0.230403
C39   C     C_R   0.717044 0.549901 0.289799 -0.076115
C40   C     C_R   0.266826 0.630758 0.395244 0.554368
C41   C     C_R   0.814601 0.663778 0.331159 -0.016450
C42   C     C_R   0.765848 0.035231 0.888210 0.551572
C43   C     C_R   0.385924 0.696313 0.899057 0.557310
C44   C     C_R   0.775962 0.723142 0.889569 0.571912
C45   C     C_R   0.786119 0.057176 0.810455 -0.014620
C46   C     C_R   0.810160 0.110609 0.101485 0.553630
C47   C     C_R   0.395115 0.705487 0.103444 0.538254
C48   C     C_R   0.777461 0.727972 0.112136 0.557791
C49   C     C_R   0.863652 0.233152 0.394247 0.544653
C50   C     C_R   0.270577 0.746083 0.720807 -0.136311
C51   C     C_R   0.289434 0.762346 0.794308 -0.151554
C52   C     C_R   0.297484 0.659915 0.833679 0.048460
C53   C     C_R   0.009844 0.040504 0.800181 -0.160378
C54   C     C_R   0.113256 0.038216 0.757710 -0.086383
C55   C     C_R   0.112226 0.053051 0.684686 0.250406
C56   C     C_R   0.011754 0.081206 0.654627 -0.090513
Cr1   Cr    Cr6+3 0.791660 0.390250 0.499930 1.037429
Cr2   Cr    Cr6+3 0.098520 0.708290 0.500540 1.027527
Cr3   Cr    Cr6+3 0.109770 0.401430 0.499480 1.003304
Cr4   Cr    Cr6+3 0.874790 0.925890 0.000070 0.997562
Cr5   Cr    Cr6+3 0.574120 0.948670 0.999300 1.004476
Cr6   Cr    Cr6+3 0.551420 0.625320 0.000920 1.065228
H1    H     H_    0.561433 0.351549 0.734622 0.140521
H2    H     H_    0.675917 0.233428 0.302911 0.140566
H3    H     H_    0.675255 0.216029 0.177193 0.161105
H4    H     H_    0.033525 0.148427 0.185285 0.123385
H5    H     H_    0.038138 0.172048 0.315521 0.118708
H6    H     H_    0.963439 0.887043 0.332705 0.141488
H7    H     H_    0.939273 0.915524 0.207454 0.135226
H8    H     H_    0.659123 0.446488 0.312249 0.143994
H9    H     H_    0.236027 0.439146 0.833062 0.151892
H10   H     H_    0.174188 0.401106 0.707081 0.134490
H11   H     H_    0.188632 0.014079 0.781480 0.109842
H12   H     H_    0.416394 0.146980 0.807871 0.111698
H13   H     H_    0.018420 0.021541 0.854861 0.178158
H14   H     H_    0.010354 0.089421 0.597552 0.121807
H15   H     H_    0.509580 0.996361 0.841318 0.170400
H16   H     H_    0.282230 0.833784 0.690180 0.177158
H17   H     H_    0.913861 0.427493 0.697161 0.307262
H18   H     H_    0.606234 0.575064 0.658445 0.103876
H19   H     H_    0.469704 0.531479 0.755772 0.318918
H20   H     H_    0.676241 0.444514 0.136394 0.337191
H21   H     H_    0.195723 0.052631 0.593573 0.321050
H22   H     H_    0.011773 0.758767 0.827113 0.138189
H23   H     H_    0.047509 0.751259 0.703284 0.158618
H24   H     H_    0.203547 0.434382 0.295785 0.142223
H25   H     H_    0.233111 0.463120 0.169352 0.141963
H26   H     H_    0.433915 0.912664 0.198036 0.138789
H27   H     H_    0.300431 0.855357 0.819693 0.094260
H28   H     H_    0.393050 0.881630 0.326616 0.124433
O1    O     O_R   0.766500 0.250040 0.579790 -0.474649
O2    O     O_R   0.413330 0.603360 0.920440 -0.478673
O3    O     O_R   0.676110 0.626250 0.926750 -0.442278
O4    O     O_R   0.798570 0.516780 0.574780 -0.454475
O5    O     O_R   0.895350 0.809870 0.080950 -0.514957
O6    O     O_R   0.872490 0.049760 0.073800 -0.511610
O7    O     O_R   0.691680 0.088070 0.079070 -0.517587
O8    O     O_R   0.451720 0.825250 0.074050 -0.507345
O9    O     O_R   0.413580 0.606370 0.080960 -0.511688
O10   O     O_R   0.676340 0.629040 0.075550 -0.476130
O11   O     O_3   0.666780 0.833290 0.000090 -0.302537
O12   O     O_R   0.218690 0.701900 0.425960 -0.492747
O13   O     O_R   0.984000 0.732950 0.581090 -0.529418
O14   O     O_R   0.218600 0.700890 0.574760 -0.489831
O15   O     O_R   0.249390 0.515350 0.579940 -0.512332
O16   O     O_R   0.982790 0.280900 0.573700 -0.537518
O17   O     O_R   0.766600 0.251130 0.419260 -0.527201
O18   O     O_R   0.798660 0.517790 0.425980 -0.515526
O19   O     O_R   0.984100 0.734040 0.420570 -0.520569
O20   O     O_3   0.819843 0.420717 0.694591 -0.694807
O21   O     O_3   0.537690 0.582679 0.794819 -0.696517
O22   O     O_3   0.620842 0.445196 0.177956 -0.702391
O23   O     O_R   0.249490 0.516440 0.419420 -0.520259
O24   O     O_3   0.210581 0.039757 0.644323 -0.712169
O25   O     O_R   0.982880 0.281910 0.424890 -0.510884
O26   O     O_3   0.999980 0.499990 0.499980 -0.270321
O27   O     O_R   0.895110 0.806860 0.920430 -0.561663
O28   O     O_R   0.872260 0.046970 0.925000 -0.524910
O29   O     O_R   0.691430 0.085060 0.918550 -0.506913
O30   O     O_R   0.451490 0.822460 0.925250 -0.545211

loop_
_geom_bond_atom_site_label_1
_geom_bond_atom_site_label_2
_ccdc_geom_bond_type
C8    C9    A    
C31   H4    S    
C55   C56   A    
C21   H25   S    
C56   H14   S    
C6    C45   A    
Cr5   O29   S    
Cr2   O19   S    
Cr5   O8    S    
C7    C8    A    
C39   C41   A    
C53   C54   A    
C27   C33   A    
C12   C23   A    
C25   H28   S    
Cr3   O15   S    
C47   O8    A    
C35   H6    S    
C36   C37   A    
C48   O5    A    
C15   C44   S    
C5    C11   A    
C30   C31   A    
C42   O29   A    
C27   C29   A    
C33   C49   S    
C28   C41   S    
C47   O9    A    
C18   C19   A    
C44   O3    A    
C40   O23   A    
C1    O4    A    
C20   H24   S    
Cr4   O28   S    
Cr2   O12   S    
C29   C30   A    
C9    C10   A    
C1    O13   A    
C16   O16   A    
C43   O30   A    
Cr6   O11   S    
C22   C47   S    
C13   H18   S    
C21   C22   A    
Cr5   O30   S    
Cr2   O26   S    
H21   O24   S    
C53   H13   S    
C35   C36   A    
C35   C41   A    
C2    C11   A    
C50   H16   S    
C12   C52   A    
C10   H15   S    
C50   C51   A    
Cr1   O26   S    
C14   O21   S    
C48   O10   A    
C4    C34   S    
C34   C50   A    
Cr3   O16   S    
C1    C19   S    
C13   C19   A    
C51   C52   A    
C18   H23   S    
H19   O21   S    
C38   C39   A    
C24   C25   A    
C49   O17   A    
C5    C7    A    
Cr3   O26   S    
C25   C26   A    
C3    C45   A    
Cr6   O2    S    
C42   C45   S    
H20   O22   S    
Cr5   O11   S    
C37   C38   A    
C54   H11   S    
C11   C16   S    
C31   C32   A    
Cr3   O23   S    
C23   C34   A    
C12   H9    S    
C17   C18   A    
Cr5   O7    S    
Cr4   O27   S    
C37   C48   S    
C24   H26   S    
C32   H5    S    
C29   H3    S    
Cr4   O6    S    
Cr1   O17   S    
C46   O7    A    
Cr1   O4    S    
Cr6   O10   S    
Cr2   O14   S    
C9    H12   S    
C38   O22   S    
Cr4   O11   S    
C36   H7    S    
C15   C17   A    
C54   C55   A    
Cr1   O1    S    
H17   O20   S    
C49   O25   A    
C23   H10   S    
C30   C46   S    
C42   O28   A    
C6    C10   A    
C55   O24   S    
C28   O19   A    
C4    O15   A    
C43   O2    A    
C7    O20   S    
C17   H22   S    
C32   C33   A    
C2    C3    A    
C2    C56   A    
C51   H27   S    
C3    C53   A    
C26   C40   S    
C5    C6    A    
C20   C26   A    
C44   O27   A    
C28   O18   A    
C4    O14   A    
C39   H8    S    
C22   C24   A    
C43   C52   S    
C27   H2    S    
C8    H1    S    
C40   O12   A    
Cr6   O9    S    
Cr4   O5    S    
Cr1   O18   S    
C46   O6    A    
C20   C21   A    
C16   O1    A    
Cr3   O25   S    
Cr6   O3    S    
C14   C15   A    
Cr2   O13   S    
C13   C14   A    
