data_mof_unit_63678.cif
_audit_creation_date              2012-12-10T20:12:40-0500
_audit_creation_method            fapswitch 2.2
_symmetry_space_group_name_H-M    P1
_symmetry_Int_Tables_number       1
_space_group_crystal_system       triclinic
_cell_length_a                    19.264773
_cell_length_b                    18.592879
_cell_length_c                    10.742279
_cell_angle_alpha                 90.400929
_cell_angle_beta                  91.286349
_cell_angle_gamma                 89.474059
_cell_volume                      3846.53054725

loop_
_atom_site_label
_atom_site_type_symbol
_atom_type_description
_atom_site_fract_x
_atom_site_fract_y
_atom_site_fract_z
_atom_type_partial_charge
C1    C     C_R   0.365788 0.500466 0.499874 0.965065
C2    C     C_R   0.962912 0.433141 0.426107 0.500340
C3    C     C_R   0.032747 0.564897 0.457318 0.422152
C4    C     C_R   0.035656 0.434047 0.422340 0.300397
C5    C     C_R   0.070780 0.499612 0.446032 -0.247694
C6    C     C_R   0.926148 0.498476 0.434590 -0.144528
C7    C     C_R   0.179497 0.452813 0.545072 -0.219436
C8    C     C_R   0.185272 0.548503 0.393501 -0.233633
C9    C     C_R   0.495849 0.499722 0.257619 1.013195
C10   C     C_R   0.251872 0.452149 0.558495 0.378494
C11   C     C_R   0.256952 0.552375 0.412287 0.416629
C12   C     C_3   0.571834 0.521701 0.935590 0.634090
C13   C     C_R   0.290404 0.501919 0.491060 -0.124283
C14   C     C_R   0.146545 0.499825 0.460950 0.027265
C15   C     C_R   0.536135 0.726044 0.412143 0.425964
C16   C     C_R   0.541528 0.274794 0.585332 0.385979
C17   C     C_R   0.534817 0.802047 0.407755 0.226181
C18   C     C_R   0.541165 0.198854 0.593738 0.227714
C19   C     C_R   0.502522 0.841916 0.502595 -0.130598
C20   C     C_R   0.502387 0.157894 0.506667 -0.130822
C21   C     C_R   0.472358 0.803954 0.599998 0.406564
C22   C     C_R   0.464857 0.194619 0.412893 0.408124
C23   C     C_R   0.734940 0.470367 0.375411 0.355827
C24   C     C_R   0.468000 0.727798 0.593399 0.392553
C25   C     C_R   0.461066 0.270898 0.415270 0.398668
C26   C     C_R   0.437807 0.962486 0.508014 0.385272
C27   C     C_R   0.438091 0.038521 0.516502 0.385661
C28   C     C_R   0.501180 0.076786 0.510431 0.078363
C29   C     C_R   0.500997 0.923093 0.503014 0.079226
C30   C     C_R   0.633988 0.499635 0.500093 1.012772
C31   C     C_R   0.563409 0.037102 0.502310 -0.140307
C32   C     C_R   0.563435 0.961665 0.501946 -0.139859
C33   C     C_R   0.500209 0.500188 0.742299 0.974868
C34   C     C_R   0.753313 0.524170 0.582898 0.340568
C35   C     C_3   0.441987 0.558290 0.066724 0.754892
C36   C     C_3   0.477030 0.421398 0.065978 0.740353
C37   C     C_3   0.441639 0.553386 0.922588 -0.533993
C38   C     C_3   0.479177 0.423985 0.923264 -0.481285
C39   C     C_3   0.568532 0.519424 0.079052 -0.545413
C40   C     C_3   0.494316 0.499202 0.120698 -0.276346
C41   C     C_3   0.499147 0.500324 0.878548 -0.205865
C42   C     C_R   0.806686 0.473009 0.355481 0.349742
C43   C     C_R   0.824623 0.519709 0.567116 0.398921
C44   C     C_R   0.851188 0.496591 0.452467 -0.185581
C45   C     C_R   0.708598 0.498458 0.486862 -0.313280
C46   C     C_R   0.961160 0.564802 0.440464 0.441528
Cl1   Cl    Cl    0.589728 0.679379 0.308246 -0.441236
Cl2   Cl    Cl    0.639118 0.461354 0.885232 -0.470886
Cl3   Cl    Cl    0.840723 0.451551 0.207689 -0.430877
Cl4   Cl    Cl    0.880274 0.543810 0.693651 -0.371899
Cl5   Cl    Cl    0.598596 0.322750 0.684123 -0.410164
Cl6   Cl    Cl    0.572677 0.846451 0.281375 -0.413641
Cl7   Cl    Cl    0.587998 0.155876 0.716060 -0.419084
Cl8   Cl    Cl    0.357473 0.917327 0.497370 -0.384819
Cl9   Cl    Cl    0.359028 0.085213 0.540145 -0.384947
Cl10  Cl    Cl    0.354833 0.547990 0.118009 -0.470629
Cl11  Cl    Cl    0.392560 0.389965 0.105705 -0.455123
Cl12  Cl    Cl    0.597432 0.610102 0.888388 -0.491881
H1    H     H_    0.148776 0.416339 0.599029 0.198784
H2    H     H_    0.607302 0.480966 0.117741 0.255193
H3    H     H_    0.498908 0.646571 0.057964 0.378087
H4    H     H_    0.569468 0.373230 0.071744 0.360449
H5    H     H_    0.104766 0.620827 0.541136 0.353763
H6    H     H_    0.115861 0.381395 0.360551 0.378994
H7    H     H_    0.250996 0.374259 0.678714 0.368095
H8    H     H_    0.263415 0.635946 0.304615 0.377535
H9    H     H_    0.430225 0.809958 0.764189 0.411389
H10   H     H_    0.411519 0.186317 0.255897 0.419297
H11   H     H_    0.412708 0.649370 0.647942 0.383280
H12   H     H_    0.159259 0.584682 0.328577 0.202053
H13   H     H_    0.413691 0.354433 0.351733 0.409554
H14   H     H_    0.713831 0.415290 0.223537 0.400657
H15   H     H_    0.679109 0.557649 0.690813 0.375393
H16   H     H_    0.878971 0.624368 0.407324 0.351452
H17   H     H_    0.958171 0.327890 0.423266 0.407500
H18   H     H_    0.612459 0.064722 0.496418 0.216763
H19   H     H_    0.612663 0.933154 0.499595 0.217319
H20   H     H_    0.390419 0.534582 0.885612 0.223548
H21   H     H_    0.427976 0.409351 0.880354 0.240286
H22   H     H_    0.448359 0.607651 0.882228 0.264412
H23   H     H_    0.516023 0.382574 0.888371 0.263749
H24   H     H_    0.584796 0.571556 0.120518 0.275904
N1    N     N_R   0.499980 0.689440 0.500020 -0.214189
N2    N     N_R   0.499980 0.310560 0.500020 -0.230348
O1    O     O_R   0.398180 0.560840 0.500010 -0.614323
O2    O     O_3   0.524070 0.368613 0.112295 -0.661402
O3    O     O_3   0.063361 0.629888 0.487095 -0.640577
O4    O     O_3   0.070519 0.370409 0.397235 -0.714390
O5    O     O_3   0.285728 0.405178 0.638995 -0.719206
O6    O     O_3   0.295144 0.604363 0.354071 -0.661806
O7    O     O_3   0.446772 0.842896 0.699531 -0.663261
O8    O     O_3   0.431871 0.154363 0.320578 -0.662349
O9    O     O_3   0.431800 0.693726 0.684208 -0.742175
O10   O     O_3   0.416575 0.303286 0.331153 -0.669217
O11   O     O_3   0.688636 0.442822 0.287593 -0.733612
O12   O     O_R   0.398180 0.439160 0.500010 -0.617682
O13   O     O_3   0.730083 0.552396 0.693992 -0.586059
O14   O     O_3   0.926782 0.630447 0.441213 -0.612572
O15   O     O_3   0.925919 0.369624 0.421701 -0.664194
O16   O     O_R   0.499990 0.560810 0.314820 -0.535155
O17   O     O_R   0.499990 0.439190 0.314820 -0.589191
O18   O     O_R   0.601820 0.560790 0.500050 -0.602903
O19   O     O_R   0.601820 0.439210 0.500050 -0.536135
O20   O     O_R   0.500010 0.560810 0.685230 -0.613335
O21   O     O_R   0.500010 0.439190 0.685230 -0.588384
O22   O     O_3   0.460563 0.628028 0.107974 -0.651393
Zn1   Zn    Zn3+2 0.500000 0.581210 0.500040 1.078612
Zn2   Zn    Zn3+2 0.500000 0.418790 0.500040 1.082531

loop_
_geom_bond_atom_site_label_1
_geom_bond_atom_site_label_2
_ccdc_geom_bond_type
C7    C10   A    
C23   C45   A    
C33   O20   A    
C30   C45   S    
C16   Cl5   S    
C15   Cl1   S    
C12   Cl2   S    
H8    O6    S    
H13   O10   S    
H7    O5    S    
H4    O2    S    
C26   C27   A    
C23   C42   A    
C35   C37   S    
C24   N1    A    
C29   C32   A    
H11   O9    S    
C8    C11   A    
C27   Cl9   S    
C38   H21   S    
C16   N2    A    
C34   O13   S    
C7    H1    S    
C18   Cl7   S    
H10   O8    S    
C32   H19   S    
H14   O11   S    
C7    C14   A    
C10   O5    S    
N1    Zn1   S    
C22   C25   A    
C30   O19   A    
C25   N2    A    
O19   Zn2   S    
C12   Cl12  S    
O17   Zn2   S    
C46   O14   S    
C25   O10   S    
C6    C44   S    
C2    C6    A    
C42   C44   A    
C26   Cl8   S    
C17   Cl6   S    
H17   O15   S    
C37   H22   S    
C1    O1    A    
O21   Zn2   S    
C3    O3    S    
C36   C40   S    
C33   O21   A    
C38   C41   S    
H16   O14   S    
C36   Cl11  S    
C39   C40   S    
C15   N1    A    
C20   C28   S    
C36   O2    S    
C9    C40   S    
C2    C4    A    
C43   C44   A    
C12   C41   S    
C31   C32   A    
C30   O18   A    
H9    O7    S    
O18   Zn1   S    
C34   C45   A    
H3    O22   S    
C5    C14   S    
C9    O17   A    
C20   C22   A    
C2    O15   S    
H15   O13   S    
C9    O16   A    
C38   H23   S    
C1    C13   S    
C19   C29   S    
C21   O7    S    
C15   C17   A    
O16   Zn1   S    
C8    C14   A    
C6    C46   A    
H5    O3    S    
C35   Cl10  S    
C28   C31   A    
C34   C43   A    
C39   H24   S    
C4    C5    A    
C3    C5    A    
C10   C13   A    
C43   Cl4   S    
C4    O4    S    
C37   H20   S    
C3    C46   A    
C8    H12   S    
C33   C41   S    
C12   C39   S    
C36   C38   S    
C35   C40   S    
C35   O22   S    
C24   O9    S    
C11   C13   A    
C11   O6    S    
C31   H18   S    
C1    O12   A    
C39   H2    S    
C17   C19   A    
C23   O11   S    
C18   C20   A    
C37   C41   S    
C42   Cl3   S    
N2    Zn2   S    
C26   C29   A    
C16   C18   A    
C21   C24   A    
C27   C28   A    
C22   O8    S    
O12   Zn2   S    
O1    Zn1   S    
H6    O4    S    
O20   Zn1   S    
C19   C21   A    
