data_mof_unit_44131.cif
_audit_creation_date              2012-12-11T15:47:02-0500
_audit_creation_method            fapswitch 2.2
_symmetry_space_group_name_H-M    P1
_symmetry_Int_Tables_number       1
_space_group_crystal_system       triclinic
_cell_length_a                    11.541008
_cell_length_b                    11.500926
_cell_length_c                    19.510146
_cell_angle_alpha                 90.615992
_cell_angle_beta                  90.192157
_cell_angle_gamma                 59.923746
_cell_volume                      2240.82109284

loop_
_atom_site_label
_atom_site_type_symbol
_atom_type_description
_atom_site_fract_x
_atom_site_fract_y
_atom_site_fract_z
_atom_type_partial_charge
C1    C     C_R   0.640685 0.117824 0.599110 0.546516
C2    C     C_1   0.653073 0.150258 0.668534 0.003793
C3    C     C_R   0.677304 0.641316 0.195947 0.020884
C4    C     C_R   0.612747 0.745605 0.598535 0.543975
C5    C     C_R   0.655963 0.764482 0.218900 0.003297
C6    C     C_R   0.644003 0.791147 0.287987 0.025238
C7    C     C_R   0.691126 0.565316 0.312449 -0.181851
C8    C     C_R   0.704935 0.537877 0.242472 -0.131471
C9    C     C_3   0.544805 0.901690 0.201738 -0.270780
C10   C     C_3   0.532645 0.932100 0.277975 -0.246182
C11   C     C_R   0.652481 0.695313 0.334456 0.025007
C12   C     C_1   0.641697 0.703523 0.667927 0.004400
C13   C     C_R   0.063795 0.237836 0.205362 0.016539
C14   C     C_R   0.037729 0.340239 0.252258 0.008235
C15   C     C_R   0.083444 0.311043 0.318747 0.032071
C16   C     C_R   0.240502 0.145626 0.598076 0.546892
C17   C     C_R   0.158186 0.077113 0.299081 -0.178842
C18   C     C_R   0.115085 0.106457 0.230987 -0.162040
C19   C     C_3   0.060614 0.456577 0.248519 -0.280394
C20   C     C_3   0.112135 0.424312 0.321574 -0.263912
C21   C     C_R   0.154684 0.177931 0.341775 0.015828
C22   C     C_R   0.689833 0.202733 0.201421 0.044044
C23   C     C_1   0.127198 0.198042 0.859400 0.001699
C24   C     C_R   0.799019 0.103942 0.237865 0.005058
C25   C     C_R   0.792113 0.085044 0.306126 -0.038885
C26   C     C_R   0.570222 0.278411 0.309550 -0.172559
C27   C     C_R   0.578334 0.302491 0.238959 0.218012
C28   C     C_R   0.645954 0.114223 0.403737 0.546880
C29   C     C_3   0.893754 0.958098 0.223763 0.162088
C30   C     C_3   0.884499 0.936153 0.299756 -0.214305
C31   C     C_R   0.673098 0.163080 0.341434 -0.032816
C32   C     C_R   0.082371 0.230645 0.928727 0.561316
C33   C     C_R   0.683692 0.604831 0.929635 0.547053
C34   C     C_1   0.171260 0.170356 0.727661 -0.031127
C35   C     C_R   0.708080 0.206252 0.930308 0.548003
C36   C     C_R   0.026582 0.267748 0.133272 0.554446
C37   C     C_R   0.683141 0.611614 0.125193 0.530401
C38   C     C_R   0.711560 0.214460 0.129091 0.572404
C39   C     C_R   0.618629 0.736819 0.403649 0.538052
C40   C     C_R   0.239750 0.142604 0.402509 0.537302
C41   C     C_1   0.670024 0.647002 0.860271 0.003202
C42   C     C_1   0.655067 0.683563 0.728445 -0.031671
C43   C     C_1   0.663326 0.667005 0.799769 -0.032329
C44   C     C_3   0.395614 0.523656 0.247149 -0.004127
C45   C     C_1   0.150366 0.181776 0.798959 -0.032150
C46   C     C_3   0.321434 0.650480 0.204748 -0.357984
C47   C     C_3   0.932629 0.777045 0.154183 -0.006673
C48   C     C_3   0.978325 0.797714 0.083984 -0.260193
C49   C     C_3   0.059144 0.664685 0.045283 -0.462749
C50   C     C_1   0.194806 0.161350 0.667268 0.003700
C51   C     C_1   0.678264 0.190787 0.860938 0.003936
C52   C     C_1   0.658443 0.167592 0.729029 -0.031580
C53   C     C_1   0.665368 0.180753 0.800405 -0.031897
Cr1   Cr    Cr6+3 0.404720 0.198220 0.499960 1.017782
Cr2   Cr    Cr6+3 0.698290 0.897110 0.500380 1.023230
Cr3   Cr    Cr6+3 0.396970 0.904720 0.499610 1.023000
Cr4   Cr    Cr6+3 0.926290 0.152010 0.028150 1.000648
Cr5   Cr    Cr6+3 0.921440 0.451830 0.027490 0.987553
Cr6   Cr    Cr6+3 0.626370 0.446880 0.028730 1.046479
H1    H     H_    0.703917 0.488585 0.348362 0.115285
H2    H     H_    0.456025 0.900945 0.179858 0.129224
H3    H     H_    0.579879 0.960387 0.172260 0.189235
H4    H     H_    0.561772 0.007450 0.292378 0.150810
H5    H     H_    0.436796 0.950088 0.300327 0.143473
H6    H     H_    0.207587 0.973448 0.315400 0.124842
H7    H     H_    0.132468 0.023986 0.197323 0.123043
H8    H     H_    0.965142 0.553498 0.244575 0.135992
H9    H     H_    0.455142 0.542028 0.286361 0.135358
H10   H     H_    0.319429 0.506757 0.272530 0.116562
H11   H     H_    0.269398 0.633474 0.161311 0.152564
H12   H     H_    0.139255 0.441137 0.210810 0.161313
H13   H     H_    0.246173 0.734029 0.237256 0.066260
H14   H     H_    0.392460 0.680162 0.184658 0.178843
H15   H     H_    0.886378 0.713619 0.147173 0.177323
H16   H     H_    0.020105 0.720522 0.188803 0.099809
H17   H     H_    0.889300 0.865413 0.052811 0.202224
H18   H     H_    0.040780 0.845534 0.090753 0.153733
H19   H     H_    0.145665 0.592019 0.076271 0.147703
H20   H     H_    0.097041 0.682163 0.996498 0.147197
H21   H     H_    0.994890 0.620834 0.033097 0.189129
H22   H     H_    0.220723 0.389539 0.325522 0.150127
H23   H     H_    0.047007 0.503636 0.359122 0.139095
H24   H     H_    0.479718 0.342076 0.338187 0.119756
H25   H     H_    0.993609 0.939099 0.206691 0.098368
H26   H     H_    0.835139 0.876552 0.310642 0.176599
H27   H     H_    0.980592 0.902618 0.327126 0.093595
H28   H     H_    0.730974 0.438354 0.224351 0.126110
O1    O     O_R   0.267750 0.231960 0.575440 -0.505228
O2    O     O_R   0.596230 0.579400 0.952760 -0.504369
O3    O     O_R   0.639160 0.321170 0.958690 -0.490261
O4    O     O_R   0.527290 0.186640 0.570530 -0.494040
O5    O     O_R   0.821370 0.124220 0.104400 -0.526825
O6    O     O_R   0.037020 0.167050 0.097880 -0.514318
O7    O     O_R   0.056310 0.349620 0.102920 -0.513587
O8    O     O_R   0.797790 0.564880 0.097980 -0.537294
O9    O     O_R   0.596000 0.584270 0.104310 -0.506871
O10   O     O_R   0.638950 0.325690 0.099180 -0.451445
O11   O     O_3   0.824700 0.350240 0.028120 -0.274795
O12   O     O_R   0.685950 0.784660 0.430010 -0.504714
O13   O     O_R   0.728110 0.003450 0.576380 -0.504155
O14   O     O_R   0.682980 0.789190 0.570500 -0.494426
O15   O     O_R   0.499300 0.771880 0.575540 -0.505119
O16   O     O_R   0.285350 0.030870 0.569740 -0.492277
O17   O     O_R   0.270960 0.227070 0.423890 -0.522392
O18   O     O_R   0.530270 0.182120 0.430040 -0.510701
O19   O     O_R   0.731320 0.998570 0.424830 -0.516811
O20   O     O_3   0.477546 0.412637 0.203944 -0.533003
O21   O     O_3   0.833803 0.901293 0.182379 -0.567672
O22   O     O_R   0.502510 0.767000 0.423980 -0.521132
O23   O     O_R   0.288320 0.026340 0.429250 -0.505949
O24   O     O_3   0.499990 0.000020 0.499980 -0.250468
O25   O     O_R   0.821590 0.119350 0.952850 -0.514059
O26   O     O_R   0.037230 0.162540 0.957390 -0.488469
O27   O     O_R   0.056530 0.344750 0.951370 -0.504033
O28   O     O_R   0.798000 0.560370 0.957490 -0.501612

loop_
_geom_bond_atom_site_label_1
_geom_bond_atom_site_label_2
_ccdc_geom_bond_type
C25   C31   A    
C26   H24   S    
C23   C45   T    
Cr4   O5    S    
C20   H23   S    
C48   H17   S    
C19   H12   S    
C10   H4    S    
Cr5   O11   S    
C7    C8    A    
C7    C11   A    
C26   C27   A    
C13   C18   A    
C9    H2    S    
Cr1   O17   S    
C16   C50   S    
C5    C6    A    
Cr4   O25   S    
C22   C38   S    
C38   O5    A    
C49   H19   S    
C37   O8    A    
C1    C2    S    
Cr6   O2    S    
C24   C29   S    
C12   C42   T    
C36   O6    A    
C19   C20   S    
C28   O19   A    
C4    O15   A    
Cr2   O13   S    
C29   O21   S    
C19   H8    S    
C32   O26   A    
C4    C12   S    
C9    C10   S    
Cr3   O24   S    
C46   H13   S    
C26   C31   A    
C1    O4    A    
Cr4   O6    S    
C20   H22   S    
C41   C43   T    
C38   O10   A    
C1    O13   A    
Cr3   O23   S    
C44   C46   S    
C39   O22   A    
C15   C20   S    
C34   C50   T    
C33   O28   A    
Cr2   O19   S    
C9    H3    S    
C24   C25   A    
Cr3   O16   S    
C13   C36   S    
C3    C8    A    
C6    C11   A    
Cr4   O26   S    
C17   C21   A    
C49   H20   S    
C37   O9    A    
C51   C53   T    
Cr6   O3    S    
C48   H18   S    
Cr5   O8    S    
C5    C9    S    
C29   C30   S    
C33   O2    A    
C40   O17   A    
C16   O16   A    
C39   O12   A    
C47   C48   S    
C27   O20   S    
C28   O18   A    
C4    O14   A    
C17   C18   A    
C44   H10   S    
C34   C45   S    
C30   H26   S    
C11   C39   S    
C2    C52   T    
C29   H25   S    
C48   C49   S    
C7    H1    S    
C22   C27   A    
C35   C51   S    
Cr5   O28   S    
Cr6   O10   S    
C22   C24   A    
C44   H9    S    
C30   H27   S    
C42   C43   S    
Cr3   O22   S    
C52   C53   S    
Cr5   O27   S    
C44   O20   S    
C25   C30   S    
Cr1   O18   S    
Cr2   O24   S    
C14   C19   S    
C28   C31   S    
C10   H5    S    
C47   H15   S    
C3    C5    A    
C6    C10   S    
C40   O23   A    
C18   H7    S    
Cr2   O14   S    
C17   H6    S    
C49   H21   S    
C8    H28   S    
C33   C41   S    
C23   C32   S    
Cr5   O7    S    
C47   H16   S    
Cr1   O4    S    
Cr1   O1    S    
C21   C40   S    
Cr4   O11   S    
Cr1   O24   S    
C46   H11   S    
Cr3   O15   S    
C35   O3    A    
C36   O7    A    
C15   C21   A    
C3    C37   S    
C47   O21   S    
Cr6   O9    S    
Cr2   O12   S    
C16   O1    A    
Cr6   O11   S    
C14   C15   A    
C32   O27   A    
C13   C14   A    
C46   H14   S    
C35   O25   A    
