data_mof_unit_6319.cif
_audit_creation_date              2012-12-10T17:53:24-0500
_audit_creation_method            fapswitch 2.2
_symmetry_space_group_name_H-M    P1
_symmetry_Int_Tables_number       1
_space_group_crystal_system       triclinic
_cell_length_a                    23.384099
_cell_length_b                    10.704205
_cell_length_c                    9.888672
_cell_angle_alpha                 89.505116
_cell_angle_beta                  90.168602
_cell_angle_gamma                 92.014317
_cell_volume                      2473.58518917

loop_
_atom_site_label
_atom_site_type_symbol
_atom_type_description
_atom_site_fract_x
_atom_site_fract_y
_atom_site_fract_z
_atom_type_partial_charge
C1    C     C_R   0.503053 0.259654 0.501692 0.872758
C2    C     C_R   0.121084 0.519402 0.378188 0.512671
C3    C     C_R   0.238597 0.597079 0.501123 -0.176783
C4    C     C_R   0.389882 0.500011 0.499912 0.928021
C5    C     C_R   0.298207 0.604032 0.502416 0.474791
C6    C     C_R   0.328276 0.492958 0.499348 -0.179980
C7    C     C_R   0.299278 0.375798 0.492979 -0.111898
C8    C     C_R   0.239821 0.370452 0.488539 -0.110756
C9    C     C_R   0.209652 0.480814 0.492471 0.217205
C10   C     C_R   0.758328 0.420408 0.395946 -0.082559
C11   C     C_R   0.699271 0.429104 0.395643 -0.216435
C12   C     C_R   0.970743 0.375896 0.717724 0.541553
C13   C     C_R   0.672389 0.492430 0.499901 -0.045475
C14   C     C_R   0.704867 0.547347 0.604183 -0.207283
C15   C     C_R   0.764088 0.541511 0.602413 -0.093678
C16   C     C_R   0.493235 0.738384 0.499890 0.913174
C17   C     C_R   0.790974 0.477761 0.498464 0.289119
C18   C     C_R   0.511876 0.107289 0.760473 -0.157701
C19   C     C_R   0.494597 0.044150 0.878276 -0.149547
C20   C     C_R   0.463931 0.931021 0.869474 -0.153613
C21   C     C_R   0.455848 0.875300 0.743785 -0.102294
C22   C     C_R   0.478297 0.933398 0.625047 0.111536
C23   C     C_R   0.030402 0.375390 0.713212 -0.248098
C24   C     C_R   0.498241 0.057709 0.631022 0.098649
C25   C     C_R   0.503616 0.125267 0.506667 -0.106937
C26   C     C_R   0.500003 0.063465 0.382724 -0.201599
C27   C     C_R   0.492367 0.936321 0.380210 -0.225601
C28   C     C_R   0.610516 0.499288 0.500093 0.883939
C29   C     C_R   0.484127 0.870365 0.501145 -0.119014
C30   C     C_R   0.425698 0.333149 0.140960 -0.224202
C31   C     C_R   0.389775 0.248780 0.071307 -0.046333
C32   C     C_R   0.389538 0.249753 0.930170 -0.036168
C33   C     C_R   0.425632 0.334059 0.860294 -0.203876
C34   C     C_R   0.060391 0.423952 0.601048 -0.089724
C35   C     C_R   0.463409 0.417808 0.928059 0.117896
C36   C     C_R   0.463411 0.417706 0.072654 0.151980
C37   C     C_R   0.534534 0.579450 0.071661 -0.156792
C38   C     C_R   0.534539 0.579855 0.928390 0.011749
C39   C     C_R   0.880728 0.522726 0.386378 0.509503
C40   C     C_R   0.879976 0.421699 0.602854 0.532862
C41   C     C_R   0.940082 0.421848 0.605339 -0.135460
C42   C     C_R   0.970288 0.470968 0.491763 -0.080605
C43   C     C_R   0.940289 0.520219 0.381095 0.014178
C44   C     C_3   0.947720 0.410176 0.937209 -0.211787
C45   C     C_R   0.030538 0.471597 0.489006 -0.029034
C46   C     C_1   0.353483 0.161029 0.146383 0.186278
C47   C     C_1   0.352921 0.163629 0.854828 0.213220
C48   C     C_1   0.571521 0.668602 0.858243 0.237255
C49   C     C_1   0.056232 0.615692 0.140788 0.259163
C50   C     C_3   0.330014 0.779015 0.390921 -0.275774
C51   C     C_1   0.329878 0.260798 0.493661 0.183471
C52   C     C_R   0.060797 0.519804 0.374662 -0.038986
C53   C     C_R   0.029567 0.566668 0.262851 -0.019382
C54   C     C_R   0.970056 0.567030 0.267894 -0.227959
C55   C     C_R   0.120014 0.427169 0.599277 0.559469
H1    H     H_    0.674555 0.384827 0.315331 0.161692
H2    H     H_    0.562506 0.644143 0.126391 0.154485
H3    H     H_    0.053087 0.336783 0.798719 0.209456
H4    H     H_    0.422840 0.330122 0.248307 0.218529
H5    H     H_    0.423332 0.330612 0.752973 0.217306
H6    H     H_    0.946898 0.604085 0.182078 0.182940
H7    H     H_    0.214715 0.681733 0.507207 0.165321
H8    H     H_    0.216718 0.281035 0.482936 0.165276
H9    H     H_    0.778845 0.370002 0.316076 0.155693
H10   H     H_    0.920888 0.374234 0.022328 0.207197
H11   H     H_    0.931964 0.503731 0.908176 0.156220
H12   H     H_    0.684595 0.596481 0.685264 0.171209
H13   H     H_    0.992561 0.418793 0.974551 0.140014
H14   H     H_    0.286679 0.801483 0.353060 0.187694
H15   H     H_    0.352760 0.722418 0.315423 0.165778
H16   H     H_    0.354787 0.868600 0.402661 0.211368
H17   H     H_    0.789164 0.586851 0.681369 0.154195
H18   H     H_    0.504217 0.112842 0.286923 0.168949
H19   H     H_    0.537466 0.192154 0.773744 0.173576
H20   H     H_    0.503932 0.084519 0.976261 0.140370
H21   H     H_    0.448155 0.884399 0.960238 0.139737
H22   H     H_    0.432067 0.786815 0.740377 0.179104
H23   H     H_    0.494506 0.889681 0.283602 0.169092
N1    N     N_R   0.851965 0.473392 0.495606 -0.362127
N2    N     N_R   0.148721 0.474913 0.489599 -0.341919
N3    N     N_R   0.499460 0.498800 0.142780 -0.119515
N4    N     N_R   0.499440 0.498720 0.857170 -0.141960
N5    N     N_1   0.324337 0.090222 0.205487 -0.195455
N6    N     N_1   0.323616 0.094310 0.795054 -0.152727
N7    N     N_1   0.601227 0.740713 0.802501 -0.209368
N8    N     N_1   0.077292 0.654879 0.042734 -0.152857
N9    N     N_1   0.354625 0.169049 0.494742 -0.196214
O1    O     O_R   0.500000 0.316780 0.614690 -0.657542
O2    O     O_R   0.583850 0.500050 0.614640 -0.613571
O3    O     O_R   0.583840 0.500030 0.385310 -0.612950
O4    O     O_2   0.851645 0.575554 0.283825 -0.562919
O5    O     O_3   0.942657 0.324986 0.829366 -0.552293
O6    O     O_3   0.327090 0.718070 0.517754 -0.622153
O7    O     O_2   0.849439 0.369806 0.705766 -0.495309
O8    O     O_2   0.149357 0.384570 0.707050 -0.541109
O9    O     O_2   0.152306 0.562647 0.272136 -0.544870
O10   O     O_R   0.500000 0.316750 0.385360 -0.641622
O11   O     O_R   0.416160 0.499970 0.614690 -0.629313
O12   O     O_R   0.416150 0.499950 0.385360 -0.643993
O13   O     O_R   0.500000 0.683250 0.614640 -0.623559
O14   O     O_R   0.500000 0.683220 0.385310 -0.623862
Zn1   Zn    Zn3+2 0.500000 0.500020 0.653130 0.947321
Zn2   Zn    Zn3+2 0.500000 0.499980 0.346870 0.939579

loop_
_geom_bond_atom_site_label_1
_geom_bond_atom_site_label_2
_ccdc_geom_bond_type
C23   H3    S    
O12   Zn2   S    
C22   C29   A    
C4    O11   A    
O2    Zn1   S    
C27   C29   A    
C41   C42   A    
C44   H11   S    
C35   C36   A    
C27   H23   S    
C7    C8    A    
C53   C54   A    
C15   H17   S    
C12   C23   A    
C26   C27   A    
C12   C41   A    
C18   C24   A    
C50   H14   S    
C30   C31   A    
C10   C17   A    
C17   N1    S    
C26   H18   S    
C20   H21   S    
C18   C19   A    
C19   C20   A    
C8    C9    A    
C31   C46   S    
C14   H12   S    
C13   C28   S    
C28   O2    A    
C38   C48   S    
C44   O5    S    
C1    O1    A    
C34   C55   A    
C18   H19   S    
C13   C14   A    
C38   N4    A    
C1    C25   S    
C37   N3    A    
C44   H10   S    
C39   O4    S    
C35   N4    A    
C24   C25   A    
C4    C6    S    
C51   N9    T    
C16   O13   A    
C39   C43   A    
C45   C52   A    
C16   C29   S    
O11   Zn1   S    
C9    N2    S    
C39   N1    A    
C50   H16   S    
C37   C38   A    
C3    C9    A    
C43   C54   A    
C5    O6    S    
C31   C32   A    
C36   N3    A    
C23   C34   A    
C30   H4    S    
O13   Zn1   S    
N4    Zn1   S    
C40   N1    A    
C34   C45   A    
C47   N6    T    
O10   Zn2   S    
C2    C52   A    
C55   O8    S    
C40   C41   A    
C33   H5    S    
C32   C47   S    
C22   C24   A    
C44   H13   S    
C42   C43   A    
C1    O10   A    
C52   C53   A    
N3    Zn2   S    
C3    H7    S    
C15   C17   A    
C14   C15   A    
C49   N8    T    
C12   O5    S    
C10   H9    S    
C40   O7    S    
C3    C5    A    
O1    Zn1   S    
C50   O6    S    
C6    C7    A    
C54   H6    S    
C30   C36   A    
C32   C33   A    
C2    O9    S    
C25   C26   A    
C7    C51   S    
C55   N2    A    
C11   C13   A    
C5    C6    A    
C49   C53   S    
C19   H20   S    
C33   C35   A    
C50   H15   S    
O3    Zn2   S    
C2    N2    A    
C10   C11   A    
C8    H8    S    
C46   N5    T    
C16   O14   A    
C20   C21   A    
O14   Zn2   S    
C4    O12   A    
C21   H22   S    
C48   N7    T    
C28   O3    A    
C21   C22   A    
C42   C45   A    
C37   H2    S    
C11   H1    S    
