data_mof_unit_20198.cif
_audit_creation_date              2012-12-11T20:55:28-0500
_audit_creation_method            fapswitch 2.2
_symmetry_space_group_name_H-M    P1
_symmetry_Int_Tables_number       1
_space_group_crystal_system       triclinic
_cell_length_a                    8.319046
_cell_length_b                    19.119447
_cell_length_c                    22.760897
_cell_angle_alpha                 99.708659
_cell_angle_beta                  89.827819
_cell_angle_gamma                 91.869223
_cell_volume                      3566.4877427

loop_
_atom_site_label
_atom_site_type_symbol
_atom_type_description
_atom_site_fract_x
_atom_site_fract_y
_atom_site_fract_z
_atom_type_partial_charge
Ba1   Ba    Ba6+2 0.157290 0.533910 0.474710 1.637200
Ba2   Ba    Ba6+2 0.652900 0.466090 0.525240 1.641464
C1    C     C_3   0.339675 0.681440 0.253171 -0.301119
C2    C     C_3   0.364417 0.667647 0.316315 0.332987
C3    C     C_3   0.482097 0.684093 0.620631 0.307533
C4    C     C_3   0.486169 0.764343 0.639030 -0.386747
C5    C     C_3   0.881184 0.283527 0.650003 0.356987
C6    C     C_3   0.873306 0.211567 0.670168 -0.361246
C7    C     C_3   0.390393 0.297825 0.680036 0.305474
C8    C     C_3   0.451530 0.282533 0.739267 -0.359026
C9    C     C_R   0.954439 0.197994 0.471099 -0.151200
C10   C     C_R   0.988847 0.272199 0.479810 0.055015
C11   C     C_R   0.136721 0.188708 0.551412 -0.155355
C12   C     C_3   0.923279 0.723567 0.342441 0.434242
C13   C     C_R   0.204106 0.255048 0.545154 0.000694
C14   C     C_R   0.672884 0.813191 0.452726 -0.140733
C15   C     C_R   0.602915 0.746949 0.458459 0.042101
C16   C     C_R   0.849550 0.802556 0.534016 -0.150923
C17   C     C_R   0.817462 0.728318 0.523059 0.059317
C18   C     C_R   0.018779 0.154432 0.510605 0.001163
C19   C     C_R   0.119491 0.299096 0.515020 -0.244714
C20   C     C_R   0.788519 0.846929 0.494754 -0.008887
C21   C     C_R   0.685254 0.702269 0.488612 -0.265264
C22   C     C_R   0.225864 0.035902 0.541665 -0.079792
C23   C     C_3   0.998923 0.794507 0.332837 -0.319964
C24   C     C_R   0.318597 0.984845 0.560720 -0.076199
C25   C     C_R   0.270554 0.914433 0.546665 -0.065056
C26   C     C_R   0.124539 0.896830 0.518112 -0.082855
C27   C     C_R   0.009552 0.947900 0.513266 0.017126
C28   C     C_R   0.064670 0.021161 0.521865 0.039034
C29   C     C_R   0.847194 0.925694 0.497031 -0.015938
C30   C     C_R   0.743642 0.980368 0.485162 0.037287
C31   C     C_R   0.798218 0.053651 0.494674 0.013751
C32   C     C_R   0.960927 0.075758 0.509777 -0.017344
C33   C     C_R   0.582778 0.965724 0.464947 -0.077390
C34   C     C_3   0.820035 0.374159 0.341815 0.299463
C35   C     C_R   0.490626 0.017198 0.446332 -0.078502
C36   C     C_R   0.537628 0.087588 0.462053 -0.066569
C37   C     C_R   0.682421 0.104882 0.491810 -0.075775
C38   C     C_R   0.643450 0.522138 0.334999 -0.300935
C39   C     C_R   0.376499 0.558990 0.946281 -0.024502
C40   C     C_R   0.325530 0.555614 0.886836 0.586012
C41   C     C_R   0.243310 0.432968 0.881309 0.581472
C42   C     C_R   0.294838 0.434345 0.940569 -0.022383
C43   C     C_R   0.361930 0.497812 0.973116 -0.052319
C44   C     C_R   0.442419 0.622104 0.979406 -0.077170
C45   C     C_3   0.816829 0.354914 0.274181 -0.355990
C46   C     C_R   0.493236 0.624498 0.038078 -0.076526
C47   C     C_R   0.480232 0.563782 0.065394 -0.016390
C48   C     C_R   0.414677 0.500166 0.032769 -0.053507
C49   C     C_R   0.282422 0.373610 0.967864 -0.076557
C50   C     C_R   0.336179 0.375729 0.026263 -0.073899
C51   C     C_R   0.402485 0.438847 0.059421 -0.024924
C52   C     C_R   0.456860 0.441990 0.118579 0.590449
C53   C     C_R   0.530191 0.565634 0.124777 0.573987
C54   C     C_2   0.066010 0.474586 0.772994 -0.068526
C55   C     C_3   0.022466 0.481178 0.709419 -0.056687
C56   C     C_3   0.000405 0.630468 0.659354 0.299390
C57   C     C_1   0.303573 0.509175 0.693475 0.016475
C58   C     C_2   0.344737 0.507439 0.749276 -0.094843
C59   C     C_2   0.219341 0.489958 0.792601 0.213524
C60   C     C_R   0.710361 0.540885 0.235182 -0.092294
C61   C     C_R   0.749482 0.547733 0.295718 -0.015793
C62   C     C_R   0.501090 0.486451 0.314136 0.025527
C63   C     C_R   0.457729 0.481433 0.253965 -0.109629
C64   C     C_R   0.561527 0.509284 0.213667 0.200656
C65   C     C_2   0.170575 0.476484 0.670500 -0.285666
C66   C     C_3   0.038375 0.659428 0.724533 -0.360301
C67   C     C_3   0.320225 0.317479 0.394369 0.317828
C68   C     C_3   0.317483 0.237028 0.377320 -0.378041
H1    H     H_    0.265010 0.633939 0.328746 0.125307
H2    H     H_    0.737235 0.307242 0.260328 0.138309
H3    H     H_    0.770800 0.399255 0.254200 0.073168
H4    H     H_    0.940214 0.343642 0.257170 0.130790
H5    H     H_    0.113154 0.613376 0.636237 0.026300
H6    H     H_    0.913426 0.584792 0.656319 0.036017
H7    H     H_    0.116546 0.708167 0.727839 0.147332
H8    H     H_    0.102432 0.620217 0.745516 0.083478
H9    H     H_    0.925240 0.672574 0.749396 0.118958
H10   H     H_    0.197083 0.334852 0.405497 0.001798
H11   H     H_    0.400194 0.332798 0.433699 0.082137
H12   H     H_    0.317439 0.630309 0.222691 0.102521
H13   H     H_    0.234444 0.219826 0.339130 0.127043
H14   H     H_    0.276021 0.212098 0.415492 0.057793
H15   H     H_    0.440251 0.218826 0.364741 0.128692
H16   H     H_    0.475114 0.637831 0.317141 -0.041284
H17   H     H_    0.448157 0.709043 0.238498 0.146632
H18   H     H_    0.606392 0.666970 0.609790 0.021981
H19   H     H_    0.404820 0.670501 0.580335 0.064879
H20   H     H_    0.565053 0.780189 0.678629 0.134594
H21   H     H_    0.533811 0.789833 0.601919 0.053334
H22   H     H_    0.362820 0.782988 0.649927 0.122783
H23   H     H_    0.235408 0.715531 0.250934 0.140062
H24   H     H_    0.935990 0.838904 0.360362 0.080422
H25   H     H_    0.785867 0.283867 0.615957 0.098791
H26   H     H_    0.000593 0.291540 0.630557 -0.050292
H27   H     H_    0.880042 0.168466 0.631055 0.071058
H28   H     H_    0.975019 0.207503 0.700778 0.120252
H29   H     H_    0.758175 0.204564 0.693582 0.141015
H30   H     H_    0.262263 0.279334 0.675059 -0.021519
H31   H     H_    0.399853 0.356184 0.681001 0.048147
H32   H     H_    0.375594 0.308966 0.775961 0.134738
H33   H     H_    0.577255 0.303125 0.746980 0.156503
H34   H     H_    0.943564 0.719553 0.390107 0.056634
H35   H     H_    0.446653 0.224445 0.739418 0.114418
H36   H     H_    0.871534 0.175961 0.435823 0.075280
H37   H     H_    0.176578 0.165893 0.588872 0.065348
H38   H     H_    0.635587 0.836907 0.415387 0.095545
H39   H     H_    0.929551 0.823868 0.570457 0.071427
H40   H     H_    0.161669 0.353423 0.516089 0.060544
H41   H     H_    0.643417 0.647745 0.486689 0.069125
H42   H     H_    0.291133 0.084090 0.539073 0.075699
H43   H     H_    0.437623 0.998945 0.578985 0.079666
H44   H     H_    0.351266 0.873421 0.553923 0.084160
H45   H     H_    0.101726 0.842707 0.499488 0.133194
H46   H     H_    0.517412 0.917281 0.466800 0.074455
H47   H     H_    0.372180 0.003321 0.427435 0.080339
H48   H     H_    0.456149 0.128313 0.455120 0.097801
H49   H     H_    0.705061 0.158623 0.512750 0.127191
H50   H     H_    0.324868 0.327697 0.045489 0.124250
H51   H     H_    0.231858 0.323996 0.943996 0.122226
H52   H     H_    0.543008 0.674238 0.062011 0.123125
H53   H     H_    0.795906 0.559704 0.204997 0.116882
H54   H     H_    0.455061 0.669998 0.960036 0.124575
H55   H     H_    0.126832 0.798687 0.346422 0.144054
H56   H     H_    0.467794 0.519792 0.764119 0.108813
H57   H     H_    0.971815 0.464469 0.803891 0.098451
H58   H     H_    0.344176 0.455626 0.238636 0.124711
H59   H     H_    0.676577 0.526394 0.381437 0.080367
H60   H     H_    0.168195 0.447249 0.625223 0.065186
H61   H     H_    0.990195 0.800197 0.285189 0.119731
H62   H     H_    0.696318 0.384921 0.357896 0.015002
H63   H     H_    0.899301 0.422190 0.354546 0.065215
N1    N     N_R   0.261628 0.492876 0.854826 -0.428360
N2    N     N_R   0.516219 0.505426 0.151343 -0.424681
O1    O     O_2   0.108070 0.674980 0.540650 -0.471333
O2    O     O_3   0.375766 0.347355 0.345820 -0.624365
O3    O     O_3   0.995487 0.667813 0.303879 -0.617765
O4    O     O_2   0.702240 0.324970 0.459330 -0.461566
O5    O     O_3   0.948380 0.413820 0.464520 -0.490501
O6    O     O_3   0.443920 0.371740 0.566130 -0.463757
O7    O     O_3   0.878422 0.316709 0.364987 -0.631763
O8    O     O_3   0.358830 0.538360 0.571050 -0.479573
O9    O     O_3   0.852160 0.408490 0.597560 -0.487904
O10   O     O_2   0.691390 0.446432 0.698343 -0.482556
O11   O     O_3   0.859798 0.336731 0.699423 -0.595597
O12   O     O_3   0.861930 0.586170 0.535430 -0.482579
O13   O     O_3   0.451480 0.461630 0.428900 -0.493549
O14   O     O_2   0.599240 0.538720 0.642170 -0.457295
O15   O     O_3   0.420465 0.652442 0.667748 -0.632725
O16   O     O_2   0.525388 0.247117 0.517918 -0.507168
O17   O     O_3   0.483540 0.261732 0.633688 -0.598869
O18   O     O_2   0.336943 0.608725 0.863585 -0.593829
O19   O     O_2   0.183636 0.378310 0.853090 -0.602891
O20   O     O_2   0.453175 0.387955 0.140654 -0.595639
O21   O     O_2   0.584810 0.621293 0.153038 -0.622602
O22   O     O_3   0.366390 0.628250 0.433820 -0.485486
O23   O     O_2   0.272877 0.756190 0.466357 -0.510382
O24   O     O_3   0.931541 0.684481 0.634827 -0.635740
O25   O     O_3   0.372358 0.732551 0.355612 -0.612325
O26   O     O_2   0.211060 0.461230 0.357810 -0.458625
O27   O     O_3   0.958150 0.591500 0.402390 -0.485736
O28   O     O_2   0.075372 0.535908 0.295748 -0.502401
P1    P     P_3+3 0.933470 0.664380 0.557030 0.982009
P2    P     P_3+3 0.383600 0.440030 0.365120 0.989243
P3    P     P_3+3 0.943731 0.585527 0.324717 0.918452
P4    P     P_3+3 0.876840 0.335610 0.442930 0.982361
P5    P     P_3+3 0.857088 0.419212 0.675759 0.970044
P6    P     P_3+3 0.404575 0.716544 0.428020 0.923291
P7    P     P_3+3 0.417939 0.560117 0.645747 0.961248
P8    P     P_3+3 0.411816 0.282146 0.566804 0.920867
N3    N     N_3   0.751809 0.724193 0.329995 -0.504448
H64   H     H_    0.732318 0.710093 0.284072 0.203861
H65   H     H_    0.697770 0.685060 0.350691 0.106802

loop_
_geom_bond_atom_site_label_1
_geom_bond_atom_site_label_2
_ccdc_geom_bond_type
C54   C59   D    
C38   H59   S    
C7    O17   S    
Ba2   O8    S    
Ba2   O9    S    
C39   C40   A    
C22   H42   S    
C16   H39   S    
C11   H37   S    
C34   H63   S    
C10   P4    S    
O2    P2    S    
C19   H40   S    
C56   H6    S    
C5    C6    S    
C55   P5    S    
O15   P7    S    
C51   C52   A    
N3    H64   S    
C5    H26   S    
C24   C25   A    
C31   C37   A    
C38   C61   A    
O9    P5    S    
C67   H10   S    
Ba2   O4    S    
C8    H33   S    
C33   C35   A    
C6    H29   S    
C22   C24   A    
Ba1   Ba2   S    
C56   O24   S    
C34   H62   S    
C46   H52   S    
C3    C4    S    
C37   H49   S    
C2    H16   S    
Ba2   O13   S    
C4    H21   S    
O6    P8    S    
O16   P8    D    
C54   C55   S    
C34   C45   S    
C16   C17   A    
C54   H57   S    
C23   H55   S    
C6    H28   S    
O22   P6    S    
O7    P4    S    
O27   P3    S    
C3    H18   S    
C61   P3    S    
C12   O3    S    
Ba1   P1    S    
C14   C15   A    
C41   O19   D    
C59   N1    S    
O25   P6    S    
Ba1   O1    S    
C68   H14   S    
C7    C8    S    
C5    O11   S    
C18   C32   S    
Ba2   O14   S    
Ba1   O26   S    
C57   C58   D    
C67   O2    S    
O13   P2    S    
C44   H54   S    
C67   C68   S    
C1    H12   S    
C60   H53   S    
C62   P2    S    
N3    H65   S    
C56   H5    S    
C53   N2    Am   
C66   H8    S    
C53   O21   D    
C44   C46   A    
C9    C18   A    
C48   C51   A    
C20   C29   S    
C60   C64   A    
C1    H17   S    
C49   C50   A    
C63   H58   S    
C8    H32   S    
C40   O18   D    
C36   C37   A    
C45   H3    S    
C12   N3    S    
C52   O20   D    
O17   P8    S    
C28   C32   A    
Ba2   O12   S    
C47   C53   A    
C10   C19   A    
C3    O15   S    
O14   P7    D    
C58   C59   S    
C35   C36   A    
C41   N1    Am   
C17   C21   A    
C6    H27   S    
C30   C33   A    
C60   C61   A    
Ba1   O8    S    
C26   H45   S    
C57   C65   D    
C12   H34   S    
C29   C30   A    
Ba1   P2    S    
C39   C44   A    
O28   P3    D    
C9    H36   S    
C31   C32   A    
C13   P8    S    
C33   H46   S    
C1    H23   S    
C15   C21   A    
O4    P4    D    
C68   H13   S    
Ba1   O5    S    
C50   H50   S    
C42   C49   A    
C56   C66   S    
C46   C47   A    
Ba1   O27   S    
C47   C48   A    
C7    H30   S    
C11   C13   A    
C41   C42   A    
O26   P2    D    
C49   H51   S    
Ba1   O12   S    
C65   H60   S    
C1    C2    S    
C57   P7    S    
C5    H25   S    
C50   C51   A    
O1    P1    D    
C66   H7    S    
O11   P5    S    
C26   C27   A    
C14   C20   A    
C11   C18   A    
C16   C20   A    
C42   C43   A    
O8    P7    S    
Ba1   O13   S    
C9    C10   A    
O23   P6    D    
C21   H41   S    
C38   C62   A    
O3    P3    S    
C40   N1    Am   
Ba2   O5    S    
C62   C63   A    
C34   O7    S    
Ba1   O22   S    
C24   H43   S    
C23   H24   S    
C27   C29   A    
C4    H20   S    
C30   C31   A    
C55   C65   S    
C2    O25   S    
C43   C48   A    
O5    P4    S    
C4    H22   S    
C52   N2    Am   
C58   H56   S    
O12   P1    S    
C15   P6    S    
C17   P1    S    
C12   C23   S    
C45   H4    S    
C22   C28   A    
C45   H2    S    
C67   H11   S    
C14   H38   S    
C27   C28   A    
C64   N2    S    
C36   H48   S    
C25   H44   S    
C13   C19   A    
C35   H47   S    
C66   H9    S    
C7    H31   S    
C63   C64   A    
C25   C26   A    
Ba2   O6    S    
C39   C43   A    
O24   P1    S    
C8    H35   S    
C68   H15   S    
Ba2   P4    S    
C2    H1    S    
C3    H19   S    
O10   P5    D    
C23   H61   S    
