data_mof_unit_11553.cif
_audit_creation_date              2012-12-10T18:32:57-0500
_audit_creation_method            fapswitch 2.2
_symmetry_space_group_name_H-M    P1
_symmetry_Int_Tables_number       1
_space_group_crystal_system       triclinic
_cell_length_a                    14.931162
_cell_length_b                    15.54927
_cell_length_c                    15.74287
_cell_angle_alpha                 90.790726
_cell_angle_beta                  104.572676
_cell_angle_gamma                 80.243505
_cell_volume                      3484.66128047

loop_
_atom_site_label
_atom_site_type_symbol
_atom_type_description
_atom_site_fract_x
_atom_site_fract_y
_atom_site_fract_z
_atom_type_partial_charge
C1    C     C_R   0.440698 0.662115 0.486140 0.865213
C2    C     C_R   0.599323 0.243871 0.532721 -0.195349
C3    C     C_R   0.293754 0.877186 0.393002 -0.101274
C4    C     C_R   0.500992 0.500380 0.661500 0.923618
C5    C     C_R   0.321007 0.787490 0.408872 -0.155316
C6    C     C_R   0.463913 0.812465 0.510169 -0.179218
C7    C     C_R   0.447113 0.899236 0.480728 0.044964
C8    C     C_R   0.355033 0.934577 0.431815 0.005497
C9    C     C_R   0.518115 0.951963 0.501550 0.069144
C10   C     C_R   0.490745 0.043602 0.488835 0.002252
C11   C     C_R   0.394302 0.078632 0.455363 -0.307391
C12   C     C_3   0.429243 0.580706 0.034686 -0.429540
C13   C     C_R   0.327255 0.025528 0.424743 0.372422
C14   C     C_R   0.615747 0.916683 0.530461 0.067597
C15   C     C_R   0.680490 0.971639 0.562475 -0.220351
C16   C     C_R   0.560115 0.337663 0.516333 0.914803
C17   C     C_R   0.653170 0.062271 0.557543 0.099375
C18   C     C_R   0.559931 0.098022 0.513599 0.093648
C19   C     C_R   0.718317 0.117385 0.594002 -0.015905
C20   C     C_R   0.689364 0.209489 0.588077 0.340213
C21   C     C_R   0.538900 0.187268 0.493836 -0.291493
C22   C     C_R   0.853277 0.596612 0.661386 0.010203
C23   C     C_3   0.493862 0.497096 0.081289 0.207730
C24   C     C_R   0.758691 0.596761 0.622935 0.033182
C25   C     C_R   0.793337 0.510732 0.506427 0.036765
C26   C     C_R   0.890667 0.507380 0.540488 -0.007762
C27   C     C_R   0.921923 0.549031 0.621869 0.131838
C28   C     C_R   0.498880 0.499638 0.338418 0.874046
C29   C     C_R   0.957219 0.464993 0.495726 0.023310
C30   C     C_R   0.052126 0.473108 0.528065 0.109789
C31   C     C_R   0.083076 0.500917 0.613864 -0.108165
C32   C     C_R   0.019842 0.540009 0.660366 0.094649
C33   C     C_R   0.932826 0.416523 0.419097 -0.301159
C34   C     C_3   0.454729 0.416108 0.036971 -0.153103
C35   C     C_R   0.999840 0.379529 0.374581 0.487299
C36   C     C_R   0.093002 0.395681 0.403567 -0.028194
C37   C     C_R   0.115509 0.450799 0.475056 -0.161168
C38   C     C_R   0.164203 0.360915 0.362666 -0.115570
C39   C     C_R   0.253071 0.383778 0.391390 -0.079391
C40   C     C_3   0.432062 0.584514 0.937071 -0.062406
C41   C     C_R   0.197941 0.487569 0.486460 0.520337
C42   C     C_3   0.594603 0.496693 0.973722 -0.509826
C43   C     C_3   0.594541 0.497259 0.071625 -0.384680
C44   C     C_1   0.496283 0.498593 0.248859 -0.144606
C45   C     C_3   0.460330 0.413492 0.939192 0.284381
C46   C     C_3   0.493264 0.498778 0.915179 0.127689
C47   C     C_1   0.494705 0.497776 0.173140 -0.019705
C48   C     C_1   0.499213 0.500273 0.825178 -0.014608
C49   C     C_1   0.502328 0.500910 0.750665 -0.077910
C50   C     C_R   0.404561 0.755274 0.470988 -0.053650
H1    H     H_    0.452727 0.639799 0.067639 0.177856
H2    H     H_    0.308910 0.354236 0.362414 0.164968
H3    H     H_    0.706118 0.628030 0.655054 0.142873
H4    H     H_    0.764120 0.477427 0.448466 0.140202
H5    H     H_    0.642466 0.437436 0.961241 0.213160
H6    H     H_    0.157562 0.496543 0.643808 0.188570
H7    H     H_    0.862496 0.404199 0.393721 0.186445
H8    H     H_    0.153233 0.314769 0.310687 0.248289
H9    H     H_    0.623743 0.554099 0.957828 0.206297
H10   H     H_    0.620420 0.556597 0.101585 0.195307
H11   H     H_    0.644310 0.440064 0.107119 0.216376
H12   H     H_    0.356248 0.581857 0.040506 0.197238
H13   H     H_    0.516555 0.358569 0.932918 0.109367
H14   H     H_    0.380372 0.424182 0.040350 0.229724
H15   H     H_    0.296398 0.559020 0.889446 0.274336
H16   H     H_    0.339004 0.603970 0.813599 0.233757
H17   H     H_    0.469220 0.283780 0.057624 0.235843
H18   H     H_    0.572413 0.319675 0.078275 0.203312
H19   H     H_    0.201466 0.167313 0.490965 0.362696
H20   H     H_    0.846591 0.278895 0.554385 0.347710
H21   H     H_    0.691430 0.800322 0.582179 0.180306
H22   H     H_    0.696504 0.822983 0.478962 0.207717
H23   H     H_    0.474626 0.214501 0.446817 0.178007
H24   H     H_    0.860125 0.108067 0.614549 0.234532
H25   H     H_    0.822752 0.084022 0.705099 0.252557
H26   H     H_    0.099278 0.518327 0.785038 0.222407
H27   H     H_    0.099857 0.616250 0.739958 0.217429
H28   H     H_    0.095352 0.709851 0.539119 0.389101
H29   H     H_    0.990410 0.187944 0.238802 0.404868
H30   H     H_    0.916635 0.690380 0.731512 0.216121
H31   H     H_    0.910491 0.601519 0.792729 0.239280
H32   H     H_    0.211184 0.383393 0.869579 0.395060
H33   H     H_    0.753402 0.942237 0.588438 0.180352
H34   H     H_    0.227133 0.900351 0.346928 0.210792
H35   H     H_    0.278086 0.744164 0.371161 0.205455
H36   H     H_    0.524095 0.787818 0.563197 0.170553
H37   H     H_    0.467568 0.640201 0.928646 0.173407
H38   H     H_    0.368675 0.147756 0.453506 0.192357
N1    N     N_R   0.731690 0.552720 0.548990 -0.118206
N2    N     N_R   0.268300 0.447240 0.450950 -0.144228
N3    N     N_3   0.336726 0.604486 0.879393 -0.437136
N4    N     N_3   0.503799 0.334484 0.085393 -0.445830
N5    N     N_3   0.651591 0.826474 0.520729 -0.458063
N6    N     N_3   0.812676 0.078084 0.637355 -0.447160
N7    N     N_3   0.057080 0.571068 0.745886 -0.476439
N8    N     N_3   0.875460 0.644691 0.739990 -0.463676
O1    O     O_R   0.383120 0.605620 0.475300 -0.523855
O2    O     O_2   0.144422 0.023785 0.416027 -0.278769
O3    O     O_3   0.192326 0.176637 0.427021 -0.532842
O4    O     O_2   0.707183 0.348989 0.690708 -0.255443
O5    O     O_2   0.842377 0.232656 0.721285 -0.294625
O6    O     O_3   0.811405 0.327683 0.580227 -0.536469
O7    O     O_2   0.268723 0.613848 0.587821 -0.318338
O8    O     O_2   0.202856 0.644794 0.429391 -0.311720
O9    O     O_3   0.087845 0.648807 0.524921 -0.577654
O10   O     O_2   0.856603 0.327711 0.254107 -0.316923
O11   O     O_2   0.990426 0.358303 0.203336 -0.296163
O12   O     O_R   0.531890 0.639510 0.506740 -0.636367
O13   O     O_3   0.011587 0.215720 0.295666 -0.447057
O14   O     O_2   0.333393 0.427085 0.776942 -0.319858
O15   O     O_2   0.371855 0.286945 0.856933 -0.273231
O16   O     O_3   0.260842 0.411483 0.907843 -0.603314
O17   O     O_R   0.425580 0.483050 0.607130 -0.559253
O18   O     O_R   0.574360 0.516930 0.638570 -0.606311
O19   O     O_R   0.468110 0.360490 0.493260 -0.637631
O20   O     O_R   0.616880 0.394380 0.524700 -0.530086
O21   O     O_R   0.425640 0.483070 0.361430 -0.616993
O22   O     O_R   0.574420 0.516950 0.392870 -0.623264
O23   O     O_2   0.182743 0.082600 0.288533 -0.249705
S1    S     S_3+6 0.208128 0.075983 0.387089 0.039683
S2    S     S_3+6 0.764077 0.279728 0.649216 0.037541
S3    S     S_3+6 0.191810 0.600513 0.509054 0.025015
S4    S     S_3+6 0.961627 0.321249 0.278115 0.034923
S5    S     S_3+6 0.355033 0.384274 0.866460 -0.022058
Zn1   Zn    Zn3+2 0.400660 0.477370 0.479010 1.042677
Zn2   Zn    Zn3+2 0.599340 0.522630 0.520990 1.011978

loop_
_geom_bond_atom_site_label_1
_geom_bond_atom_site_label_2
_ccdc_geom_bond_type
C8    C13   A    
C29   C33   A    
C18   C21   A    
H24   N6    S    
C19   C20   A    
O11   S4    D    
C24   N1    A    
C13   S1    S    
C7    C8    A    
C45   C46   S    
C40   C46   S    
C12   C23   S    
C26   C27   A    
H28   O9    S    
C40   H37   S    
C4    O18   A    
C36   C37   A    
O16   S5    S    
C28   O21   A    
H26   N7    S    
C30   C31   A    
O18   Zn2   S    
O17   Zn1   S    
C21   H23   S    
C23   C43   S    
C15   C17   A    
O4    S2    D    
C42   C46   S    
H18   N4    S    
O3    S1    S    
C38   H8    S    
H27   N7    S    
C35   C36   A    
O10   S4    D    
C31   H6    S    
H30   N8    S    
O6    S2    S    
C2    C16   S    
C9    C10   A    
C14   N5    S    
C44   C47   T    
C5    H35   S    
C39   H2    S    
O15   S5    D    
O20   Zn2   S    
C16   O20   A    
N1    Zn2   S    
C45   S5    S    
C46   C48   S    
C23   C47   S    
H29   O13   S    
C2    C20   A    
C4    O17   A    
C25   H4    S    
O1    Zn1   S    
C3    C8    A    
C1    O1    A    
H31   N8    S    
O13   S4    S    
C15   H33   S    
C24   H3    S    
C28   C44   S    
O5    S2    D    
C30   C37   A    
H32   O16   S    
C41   S3    S    
C12   C40   S    
C9    C14   A    
C29   C30   A    
C42   H5    S    
C12   H12   S    
C31   C32   A    
C11   H38   S    
C23   C34   S    
C2    C21   A    
C34   H14   S    
C17   C18   A    
C34   C45   S    
C6    C50   A    
C20   S2    S    
H16   N3    S    
C19   N6    S    
C43   H10   S    
H22   N5    S    
H19   O3    S    
C48   C49   T    
C22   C27   A    
C22   C24   A    
C5    C50   A    
C42   C43   S    
C17   C19   A    
C16   O19   A    
C12   H1    S    
C43   H11   S    
C1    C50   S    
H15   N3    S    
C33   H7    S    
C39   N2    A    
C27   C32   A    
C22   N8    S    
C3    C5    A    
C6    H36   S    
C42   H9    S    
O23   S1    D    
H20   O6    S    
O2    S1    D    
C6    C7    A    
H21   N5    S    
C25   N1    A    
O19   Zn1   S    
C4    C49   S    
C35   S4    S    
C25   C26   A    
C28   O22   A    
C11   C13   A    
C38   C39   A    
C10   C18   A    
C36   C38   A    
H17   N4    S    
C33   C35   A    
N2    Zn1   S    
C45   H13   S    
O9    S3    S    
C41   N2    A    
C40   N3    S    
C37   C41   A    
C34   N4    S    
C10   C11   A    
C1    O12   A    
C7    C9    A    
C32   N7    S    
O8    S3    D    
C26   C29   A    
C3    H34   S    
C14   C15   A    
O14   S5    D    
O22   Zn2   S    
O12   Zn2   S    
O7    S3    D    
O21   Zn1   S    
H25   N6    S    
