data_mof_unit_40138.cif
_audit_creation_date              2012-12-11T15:34:28-0500
_audit_creation_method            fapswitch 2.2
_symmetry_space_group_name_H-M    P1
_symmetry_Int_Tables_number       1
_space_group_crystal_system       triclinic
_cell_length_a                    15.037364
_cell_length_b                    15.042452
_cell_length_c                    34.96539
_cell_angle_alpha                 90.382215
_cell_angle_beta                  89.961203
_cell_angle_gamma                 60.128054
_cell_volume                      6858.10329194

loop_
_atom_site_label
_atom_site_type_symbol
_atom_type_description
_atom_site_fract_x
_atom_site_fract_y
_atom_site_fract_z
_atom_type_partial_charge
Br1   Br    Br    0.093763 0.862162 0.674914 -0.451763
Br2   Br    Br    0.150298 0.846698 0.582010 -0.391586
Br3   Br    Br    0.485044 0.862745 0.068225 -0.325760
Br4   Br    Br    0.424572 0.851625 0.159457 -0.276689
Br5   Br    Br    0.456699 0.209571 0.317630 -0.342182
Br6   Br    Br    0.828064 0.223623 0.415900 -0.421269
Br7   Br    Br    0.926149 0.750917 0.217062 -0.471695
Br8   Br    Br    0.150129 0.476135 0.332864 -0.273447
C1    C     C_R   0.301843 0.608397 0.555701 0.568668
C2    C     C_R   0.232038 0.714381 0.388105 -0.148463
C3    C     C_R   0.742643 0.110269 0.268347 -0.072010
C4    C     C_R   0.748574 0.102827 0.228593 -0.055216
C5    C     C_R   0.675038 0.182794 0.206267 0.054726
C6    C     C_R   0.730310 0.203225 0.349767 -0.105640
C7    C     C_R   0.715762 0.225762 0.388852 0.152546
C8    C     C_R   0.547595 0.240446 0.384310 -0.108550
C9    C     C_R   0.737888 0.580190 0.648577 -0.118038
C10   C     C_R   0.562541 0.217945 0.345403 0.169120
C11   C     C_R   0.652382 0.204130 0.327639 -0.009780
C12   C     C_R   0.620804 0.250514 0.406123 -0.009098
C13   C     C_R   0.203437 0.722980 0.350106 -0.118968
C14   C     C_R   0.082084 0.707998 0.094497 0.023640
C15   C     C_R   0.072401 0.631495 0.113921 -0.146593
C16   C     C_R   0.100366 0.610916 0.152012 -0.074048
C17   C     C_R   0.138578 0.666243 0.171256 0.005495
C18   C     C_R   0.158832 0.734584 0.151339 -0.057004
C19   C     C_R   0.131342 0.755718 0.112978 0.248813
C20   C     C_R   0.247126 0.622004 0.228625 -0.084728
C21   C     C_R   0.183411 0.650290 0.333500 0.014792
C22   C     C_R   0.566203 0.727260 0.649353 -0.117027
C23   C     C_R   0.241317 0.632587 0.410248 0.000318
C24   C     C_R   0.735992 0.025547 0.943294 0.539380
C25   C     C_R   0.745562 0.722667 0.945089 0.573428
C26   C     C_R   0.038449 0.734007 0.948372 0.538745
C27   C     C_R   0.723074 0.039001 0.052882 0.567931
C28   C     C_R   0.733401 0.734331 0.054807 0.572696
C29   C     C_R   0.656707 0.660569 0.668836 0.029942
C30   C     C_R   0.028217 0.744301 0.057788 0.565263
C31   C     C_R   0.553881 0.708451 0.611155 -0.123509
C32   C     C_R   0.669589 0.676744 0.788043 0.345313
C33   C     C_R   0.663355 0.668784 0.710623 0.343144
C34   C     C_R   0.746294 0.596735 0.850682 -0.083826
C35   C     C_R   0.764192 0.605296 0.889374 0.229853
C36   C     C_R   0.636097 0.786259 0.887500 -0.164912
C37   C     C_R   0.618397 0.776735 0.849057 -0.138034
C38   C     C_R   0.676566 0.683006 0.829899 -0.009813
C39   C     C_R   0.610775 0.588359 0.555227 0.541066
C40   C     C_R   0.259190 0.617774 0.268141 0.266075
C41   C     C_R   0.712499 0.702334 0.907754 0.033011
C42   C     C_R   0.723239 0.072590 0.905375 0.024526
C43   C     C_R   0.633107 0.101559 0.884556 -0.118612
C44   C     C_R   0.629435 0.121850 0.845644 -0.118209
C45   C     C_R   0.715373 0.114439 0.826906 0.027786
C46   C     C_R   0.802509 0.093940 0.848185 -0.106893
C47   C     C_R   0.806555 0.072904 0.887190 -0.110486
C48   C     C_R   0.747966 0.183802 0.767052 -0.098418
C49   C     C_R   0.741614 0.194825 0.727383 -0.094550
C50   C     C_R   0.703777 0.142923 0.705015 0.037572
C51   C     C_R   0.172786 0.650850 0.292003 0.025521
C52   C     C_R   0.590389 0.300237 0.553533 0.539129
C53   C     C_R   0.676300 0.076762 0.722895 -0.096794
C54   C     C_R   0.681892 0.066438 0.762501 -0.104562
C55   C     C_R   0.715687 0.121526 0.784923 0.026644
C56   C     C_R   0.591085 0.181534 0.647987 -0.116763
C57   C     C_R   0.563803 0.218765 0.610954 -0.120737
C58   C     C_R   0.724026 0.219012 0.604048 -0.108097
C59   C     C_R   0.751475 0.181376 0.641088 -0.095244
C60   C     C_R   0.683657 0.165676 0.663849 0.031992
C61   C     C_R   0.628318 0.241429 0.589151 0.021287
C62   C     C_R   0.075391 0.687937 0.276215 -0.082758
C63   C     C_R   0.094551 0.696254 0.911850 0.019185
C64   C     C_R   0.298621 0.610916 0.446435 0.577314
C65   C     C_R   0.128157 0.755544 0.892324 -0.114612
C66   C     C_R   0.157990 0.734959 0.854090 -0.110623
C67   C     C_R   0.155640 0.654150 0.834656 0.028675
C68   C     C_R   0.130202 0.589651 0.855051 -0.113421
C69   C     C_R   0.099861 0.610523 0.893334 -0.114176
C70   C     C_R   0.243028 0.662864 0.774930 -0.102331
C71   C     C_R   0.249891 0.662735 0.735176 -0.073319
C72   C     C_R   0.184700 0.642985 0.712568 0.056277
C73   C     C_R   0.063126 0.692428 0.236706 0.176637
C74   C     C_R   0.114154 0.620917 0.729949 -0.091101
C75   C     C_R   0.106488 0.621968 0.769753 -0.104796
C76   C     C_R   0.607889 0.589964 0.445286 0.547322
C77   C     C_R   0.170391 0.643713 0.792663 0.026953
C78   C     C_R   0.166922 0.730205 0.649801 0.196712
C79   C     C_R   0.193291 0.722786 0.610706 0.184036
C80   C     C_R   0.268377 0.537469 0.613970 -0.164439
C81   C     C_R   0.241306 0.545322 0.652299 -0.167837
C82   C     C_R   0.194827 0.640473 0.670768 -0.001380
C83   C     C_R   0.249557 0.624809 0.593144 -0.000774
C84   C     C_R   0.149707 0.658851 0.212761 -0.010709
C85   C     C_R   0.695277 0.719352 0.091898 -0.003043
C86   C     C_R   0.591294 0.777617 0.103731 0.175585
C87   C     C_R   0.564553 0.772010 0.142038 0.245834
C88   C     C_R   0.588404 0.302040 0.443859 0.564401
C89   C     C_R   0.641211 0.708236 0.167951 0.066683
C90   C     C_R   0.742042 0.646678 0.155405 -0.084094
C91   C     C_R   0.768727 0.651786 0.117911 -0.133362
C92   C     C_R   0.614213 0.624971 0.224683 0.233535
C93   C     C_R   0.614668 0.614095 0.264267 -0.013950
C94   C     C_R   0.622238 0.684467 0.288574 -0.027166
C95   C     C_R   0.181970 0.573802 0.355918 0.218078
C96   C     C_R   0.623194 0.769604 0.273169 -0.064063
C97   C     C_R   0.623158 0.781171 0.233562 0.254868
C98   C     C_R   0.620776 0.707517 0.209054 0.052926
C99   C     C_R   0.550133 0.738751 0.353788 -0.131345
C100  C     C_R   0.632007 0.622821 0.591869 0.020006
C101  C     C_R   0.547265 0.717163 0.392337 -0.126765
C102  C     C_R   0.707808 0.557713 0.384783 -0.065162
C103  C     C_R   0.710746 0.578785 0.346117 0.250737
C104  C     C_R   0.629399 0.668020 0.330128 0.035357
C105  C     C_R   0.624015 0.624493 0.407836 -0.021984
C106  C     C_R   0.209508 0.565593 0.394686 0.244184
C107  C     C_R   0.699834 0.099340 0.088746 -0.019855
C108  C     C_R   0.768855 0.127336 0.104955 0.230030
C109  C     C_R   0.756244 0.160315 0.142969 -0.100252
C110  C     C_R   0.674826 0.168204 0.164883 -0.015122
C111  C     C_R   0.600710 0.150005 0.147924 0.255202
C112  C     C_R   0.725740 0.561607 0.610423 -0.121608
C113  C     C_R   0.613292 0.116341 0.110090 -0.108741
C114  C     C_R   0.598030 0.272024 0.223767 -0.013450
C115  C     C_R   0.592325 0.279544 0.263488 -0.032325
C116  C     C_R   0.662889 0.197602 0.285896 0.042867
Cl1   Cl    Cl    0.853563 0.492322 0.912774 -0.556148
Cl2   Cl    Cl    0.816170 0.490395 0.318352 -0.507601
Cl3   Cl    Cl    0.609124 0.531874 0.195396 -0.563569
Cl4   Cl    Cl    0.632048 0.885592 0.215512 -0.456018
Cl5   Cl    Cl    0.874127 0.119888 0.079836 -0.467834
Cl6   Cl    Cl    0.496946 0.158090 0.174287 -0.445830
Cl7   Cl    Cl    0.158068 0.844053 0.090188 -0.432502
Cl8   Cl    Cl    0.383283 0.570957 0.286868 -0.622554
Cl9   Cl    Cl    0.204670 0.470552 0.422691 -0.482189
Cr1   Cr    Cr6+3 0.421670 0.426920 0.499620 1.096821
Cr2   Cr    Cr6+3 0.427030 0.651190 0.500980 1.068245
Cr3   Cr    Cr6+3 0.651280 0.421870 0.499380 1.092601
Cr4   Cr    Cr6+3 0.910810 0.908010 0.001130 1.136346
Cr5   Cr    Cr6+3 0.682800 0.909890 0.998370 1.083933
Cr6   Cr    Cr6+3 0.908370 0.682300 0.002180 1.081919
H1    H     H_    0.787784 0.495658 0.596190 0.144770
H2    H     H_    0.489508 0.235364 0.600306 0.135765
H3    H     H_    0.869507 0.088239 0.834229 0.123144
H4    H     H_    0.480910 0.757306 0.597531 0.155212
H5    H     H_    0.775734 0.234976 0.587781 0.146086
H6    H     H_    0.125131 0.822056 0.905787 0.145538
H7    H     H_    0.074820 0.563123 0.907661 0.162360
H8    H     H_    0.262150 0.476092 0.668200 0.129256
H9    H     H_    0.306184 0.677832 0.721958 0.135390
H10   H     H_    0.294235 0.678361 0.791790 0.116807
H11   H     H_    0.176502 0.786529 0.839159 0.119843
H12   H     H_    0.877110 0.050745 0.902467 0.142099
H13   H     H_    0.064147 0.604534 0.712692 0.126459
H14   H     H_    0.048587 0.608655 0.782534 0.119772
H15   H     H_    0.129880 0.525457 0.840992 0.121560
H16   H     H_    0.310332 0.461467 0.601372 0.150138
H17   H     H_    0.848822 0.606178 0.109914 0.154677
H18   H     H_    0.611426 0.549401 0.276152 0.201372
H19   H     H_    0.627701 0.824876 0.291908 0.171258
H20   H     H_    0.809311 0.528626 0.662636 0.138644
H21   H     H_    0.487478 0.808030 0.341927 0.150773
H22   H     H_    0.481839 0.770335 0.409408 0.150398
H23   H     H_    0.824120 0.167967 0.652412 0.140964
H24   H     H_    0.801260 0.597105 0.175217 0.174443
H25   H     H_    0.768335 0.486272 0.396165 0.198762
H26   H     H_    0.558500 0.096810 0.098351 0.197241
H27   H     H_    0.531632 0.348168 0.276854 0.196444
H28   H     H_    0.541220 0.334292 0.206712 0.175819
H29   H     H_    0.502634 0.790490 0.664132 0.147944
H30   H     H_    0.812347 0.176169 0.155980 0.180027
H31   H     H_    0.798112 0.047015 0.285383 0.135476
H32   H     H_    0.808215 0.033389 0.215205 0.162863
H33   H     H_    0.800899 0.189635 0.336228 0.170289
H34   H     H_    0.761967 0.247490 0.714432 0.115111
H35   H     H_    0.475289 0.256084 0.396857 0.199671
H36   H     H_    0.036846 0.591911 0.100544 0.147925
H37   H     H_    0.202922 0.782948 0.332926 0.159532
H38   H     H_    0.789386 0.522788 0.836612 0.165799
H39   H     H_    0.313574 0.596894 0.210221 0.177926
H40   H     H_    0.086721 0.556121 0.167109 0.172609
H41   H     H_    0.008863 0.714819 0.294693 0.170016
H42   H     H_    0.191358 0.775198 0.166163 0.175232
H43   H     H_    0.253860 0.768106 0.399264 0.162454
H44   H     H_    0.593885 0.861567 0.900627 0.148603
H45   H     H_    0.774294 0.226868 0.783877 0.122359
H46   H     H_    0.562967 0.844356 0.833919 0.145663
H47   H     H_    0.567370 0.102700 0.897762 0.139205
H48   H     H_    0.560635 0.139757 0.829833 0.114406
H49   H     H_    0.648616 0.034509 0.706302 0.120515
H50   H     H_    0.658913 0.016015 0.775717 0.118944
H51   H     H_    0.536746 0.171128 0.664962 0.110409
N1    N     N_R   0.742422 0.594549 0.768378 -0.234118
N2    N     N_R   0.739208 0.590548 0.730452 -0.234342
N3    N     N_R   0.590403 0.751074 0.730268 -0.232534
N4    N     N_R   0.593841 0.755257 0.768232 -0.230698
O1    O     O_R   0.502070 0.323090 0.541280 -0.518141
O2    O     O_R   0.831550 0.656950 0.958960 -0.441924
O3    O     O_R   0.998590 0.685540 0.963930 -0.500254
O4    O     O_R   0.338340 0.520690 0.539540 -0.505112
O5    O     O_R   0.008220 0.831200 0.045060 -0.421001
O6    O     O_R   0.813270 0.997930 0.038810 -0.433593
O7    O     O_R   0.657500 0.016560 0.039940 -0.508952
O8    O     O_R   0.685680 0.820940 0.038120 -0.457001
O9    O     O_R   0.822130 0.666070 0.043610 -0.509318
O10   O     O_R   0.989860 0.694000 0.042400 -0.521583
O11   O     O_3   0.833990 0.833400 0.000560 -0.282573
O12   O     O_R   0.520720 0.641670 0.461580 -0.503626
O13   O     O_R   0.324760 0.674070 0.543580 -0.463187
O14   O     O_R   0.522400 0.640310 0.540110 -0.501702
O15   O     O_R   0.675940 0.500630 0.542210 -0.511931
O16   O     O_R   0.641790 0.337020 0.538150 -0.497990
O17   O     O_R   0.500260 0.324550 0.456580 -0.499742
O18   O     O_R   0.336660 0.522040 0.461020 -0.441152
O19   O     O_R   0.322940 0.675540 0.458880 -0.516270
O20   O     O_R   0.674120 0.502090 0.457500 -0.484889
O21   O     O_R   0.640110 0.338380 0.459630 -0.449269
O22   O     O_3   0.499990 0.499990 0.499990 -0.273253
O23   O     O_R   0.017640 0.822070 0.960410 -0.509570
O24   O     O_R   0.822000 0.989470 0.960340 -0.498306
O25   O     O_R   0.666920 0.007430 0.955290 -0.518440
O26   O     O_R   0.694410 0.812480 0.959650 -0.511374

loop_
_geom_bond_atom_site_label_1
_geom_bond_atom_site_label_2
_ccdc_geom_bond_type
C36   C41   A    
C76   C105  S    
C107  C113  A    
C79   C83   A    
C92   Cl3   S    
C19   Cl7   S    
C65   C66   A    
C100  C112  A    
C94   C104  S    
C3    C116  A    
C59   H23   S    
C62   H41   S    
C1    C83   S    
C5    C110  S    
C26   O23   A    
C115  C116  A    
C30   O5    A    
Cr4   O11   S    
C37   C38   A    
C44   C45   A    
C32   C38   S    
N3    N4    A    
C18   C19   A    
C93   C94   A    
C88   O21   A    
C106  Cl9   S    
C39   O14   A    
C56   C60   A    
C103  C104  A    
Cr2   O19   S    
Cr6   O10   S    
C34   C38   A    
Cr5   O7    S    
C58   C61   A    
C58   H5    S    
C34   H38   S    
C25   C41   S    
C107  C108  A    
C14   C30   S    
C111  Cl6   S    
Cr1   O22   S    
C108  C109  A    
C21   C95   A    
Cr1   O4    S    
C10   C11   A    
C99   C104  A    
C62   C73   A    
C110  C111  A    
C45   C55   S    
C33   N3    A    
Cr6   O11   S    
C9    C112  A    
Br6   C7    S    
C102  C103  A    
C115  H27   S    
C28   C85   S    
C67   C77   S    
C20   C40   A    
C108  Cl5   S    
Cr4   O5    S    
C25   O2    A    
Cr4   O24   S    
C15   C16   A    
Cr4   O6    S    
C27   C107  S    
C112  H1    S    
C44   H48   S    
C4    H32   S    
C85   C91   A    
C23   C106  A    
C53   C54   A    
C33   N2    A    
C101  C105  A    
Cr3   O21   S    
C80   C81   A    
C50   C53   A    
C64   O19   A    
C12   C88   S    
Cr5   O26   S    
C88   O17   A    
C30   O10   A    
C72   C82   S    
C99   C101  A    
C35   Cl1   S    
C7    C12   A    
C28   O8    A    
C16   H40   S    
C9    H20   S    
C2    C23   A    
C8    H35   S    
C96   C97   A    
Cr5   O11   S    
C76   O20   A    
C27   O6    A    
C89   C90   A    
C54   H50   S    
Cr3   O20   S    
C111  C113  A    
C2    C13   A    
C31   C100  A    
C11   C116  S    
Cr1   O18   S    
C66   C67   A    
C66   H11   S    
C59   C60   A    
C80   H16   S    
C21   C51   S    
C95   C106  A    
C16   C17   A    
C6    H33   S    
C1    O13   A    
C63   C65   A    
C102  H25   S    
C70   C71   A    
C35   C41   A    
C32   N4    A    
Br5   C10   S    
C48   H45   S    
C17   C18   A    
C45   C46   A    
C13   C21   A    
C53   H49   S    
N1    N2    A    
C22   C29   A    
C65   H6    S    
C67   C68   A    
C54   C55   A    
C90   H24   S    
C76   O12   A    
Br4   C87   S    
C57   H2    S    
Cr2   O22   S    
C102  C105  A    
C80   C83   A    
C8    C12   A    
C13   H37   S    
C91   H17   S    
C103  Cl2   S    
Cr6   O3    S    
C42   C43   A    
C48   C55   A    
Br2   C79   S    
C20   C84   A    
C85   C86   A    
C9    C29   A    
C68   C69   A    
C94   C96   A    
C36   H44   S    
C24   C42   S    
Cr2   O12   S    
C49   H34   S    
C89   C98   S    
C46   H3    S    
C70   C77   A    
C72   C74   A    
C23   C64   S    
C75   C77   A    
C31   H4    S    
Cr5   O25   S    
C39   C100  S    
C14   C19   A    
C39   O15   A    
C78   C82   A    
C2    H43   S    
Cr3   O16   S    
C71   C72   A    
C48   C49   A    
C63   C69   A    
C1    O4    A    
C40   C51   A    
Cr2   O13   S    
C25   O26   A    
C50   C60   S    
Br1   C78   S    
C81   H8    S    
C46   C47   A    
Cr1   O1    S    
C17   C84   S    
C114  H28   S    
C97   Cl4   S    
Br7   C73   S    
C78   C79   A    
C6    C11   A    
C14   C15   A    
C27   O7    A    
C36   C37   A    
C96   H19   S    
C56   H51   S    
C3    C4    A    
C87   C89   A    
C47   H12   S    
C71   H9    S    
C75   H14   S    
C113  H26   S    
C97   C98   A    
C92   C98   A    
C42   C47   A    
C28   O9    A    
C56   C57   A    
C114  C115  A    
C22   H29   S    
C43   C44   A    
C43   H47   S    
Cr6   O9    S    
C109  C110  A    
C5    C114  A    
Cr5   O8    S    
C26   O3    A    
C37   H46   S    
C49   C50   A    
C64   O18   A    
C32   N1    A    
C20   H39   S    
C52   C61   S    
C73   C84   A    
C57   C61   A    
Cr6   O2    S    
C26   C63   S    
C68   H15   S    
C92   C93   A    
C90   C91   A    
C22   C31   A    
C58   C59   A    
Br3   C86   S    
C29   C33   S    
C86   C87   A    
Cr1   O17   S    
Br8   C95   S    
C24   O24   A    
C24   O25   A    
C51   C62   A    
C93   H18   S    
Cr3   O15   S    
C18   H42   S    
C109  H30   S    
C15   H36   S    
C4    C5    A    
C52   O1    A    
C3    H31   S    
C8    C10   A    
C74   C75   A    
C34   C35   A    
Cr4   O23   S    
C99   H21   S    
C6    C7    A    
C40   Cl8   S    
C101  H22   S    
C81   C82   A    
C52   O16   A    
C69   H7    S    
C74   H13   S    
C70   H10   S    
Cr2   O14   S    
Cr3   O22   S    
