data_mof_unit_45417.cif
_audit_creation_date              2012-12-10T16:38:35-0500
_audit_creation_method            fapswitch 2.2
_symmetry_space_group_name_H-M    P1
_symmetry_Int_Tables_number       1
_space_group_crystal_system       triclinic
_cell_length_a                    10.939969
_cell_length_b                    10.807678
_cell_length_c                    18.030479
_cell_angle_alpha                 98.469573
_cell_angle_beta                  73.26725
_cell_angle_gamma                 98.852957
_cell_volume                      2005.27636207

loop_
_atom_site_label
_atom_site_type_symbol
_atom_type_description
_atom_site_fract_x
_atom_site_fract_y
_atom_site_fract_z
_atom_type_partial_charge
C1    C     C_R   0.159256 0.480958 0.515702 0.964669
C2    C     C_R   0.423911 0.343010 0.966296 -0.220756
C3    C     C_R   0.470551 0.267187 0.004748 -0.177255
C4    C     C_R   0.842404 0.521346 0.483379 0.825637
C5    C     C_R   0.524689 0.320683 0.064670 0.117086
C6    C     C_R   0.521601 0.450976 0.090747 -0.035210
C7    C     C_R   0.572480 0.243492 0.102462 -0.144942
C8    C     C_R   0.604855 0.290974 0.170675 -0.247213
C9    C     C_R   0.530542 0.492476 0.168096 0.340155
C10   C     C_2   0.978549 0.537318 0.481236 0.065314
C11   C     C_2   0.024633 0.468415 0.522861 0.115916
C12   C     C_R   0.389628 0.716193 0.828362 -0.309624
C13   C     C_2   0.542357 0.966573 0.476659 -0.324270
C14   C     C_2   0.453958 0.035830 0.523323 -0.249280
C15   C     C_R   0.467447 0.168424 0.517610 0.866006
C16   C     C_R   0.530333 0.832692 0.482747 0.929051
C17   C     C_R   0.564766 0.434167 0.288694 0.895510
C18   C     C_R   0.435286 0.561821 0.711969 0.847835
C19   C     C_R   0.415192 0.593722 0.796665 -0.031357
C20   C     C_R   0.577669 0.411567 0.205769 -0.118555
C21   C     C_R   0.403776 0.763701 0.901902 0.008811
C22   C     C_2   0.376368 0.895168 0.930853 0.363704
C23   C     C_R   0.435829 0.509314 0.843779 -0.076744
C24   C     C_2   0.470017 0.382014 0.807742 0.432510
C25   C     C_R   0.441283 0.553847 0.921421 -0.027949
C26   C     C_R   0.443495 0.685682 0.944851 0.141983
C27   C     C_R   0.455672 0.474841 0.974668 0.065250
C28   C     C_R   0.502045 0.529826 0.039528 0.112407
C29   C     C_R   0.536258 0.660543 0.047680 -0.143093
C30   C     C_R   0.498011 0.737631 0.005666 -0.132075
H1    H     H_    0.520013 0.838352 0.017750 0.179941
H2    H     H_    0.052533 0.822853 0.382345 0.398327
H3    H     H_    0.984371 0.206117 0.638734 0.388178
H4    H     H_    0.514153 0.814546 0.265770 0.387604
H5    H     H_    0.381979 0.961259 0.889764 0.071687
H6    H     H_    0.555692 0.349707 0.813496 0.090839
H7    H     H_    0.580181 0.145133 0.080854 0.162568
H8    H     H_    0.623981 0.009193 0.433996 0.162932
H9    H     H_    0.370774 0.995502 0.565829 0.178512
H10   H     H_    0.636991 0.228194 0.200980 0.162522
H11   H     H_    0.458300 0.166042 0.990319 0.182356
H12   H     H_    0.367376 0.778527 0.793335 0.171470
H13   H     H_    0.590694 0.704608 0.087720 0.208546
H14   H     H_    0.365326 0.296260 0.929154 0.181888
O1    O     O_3   0.500000 0.500000 0.500000 -0.546383
O2    O     O_R   0.470800 0.371790 0.332500 -0.621512
O3    O     O_R   0.380610 0.619380 0.674980 -0.657224
O4    O     O_R   0.632640 0.524780 0.317540 -0.600153
O5    O     O_R   0.515950 0.484050 0.674980 -0.605350
O6    O     O_2   0.200284 0.700867 0.442617 -0.290100
O7    O     O_2   0.112484 0.587118 0.337643 -0.215445
O8    O     O_3   0.997444 0.771826 0.423612 -0.517052
O9    O     O_2   0.841637 0.397953 0.650529 -0.280978
O10   O     O_2   0.868509 0.248545 0.531567 -0.276513
O11   O     O_3   0.039246 0.273610 0.608634 -0.564396
O12   O     O_R   0.535460 0.243030 0.556410 -0.586996
O13   O     O_2   0.353051 0.656673 0.190615 -0.243997
O14   O     O_2   0.383882 0.592714 0.306722 -0.254948
O15   O     O_3   0.562497 0.748459 0.230626 -0.578623
O16   O     O_2   0.340498 0.929238 0.000489 -0.554987
O17   O     O_2   0.400169 0.311085 0.773959 -0.554854
O18   O     O_R   0.437420 0.784080 0.535340 -0.632560
O19   O     O_R   0.223560 0.397520 0.472140 -0.600232
O20   O     O_R   0.803560 0.575360 0.436110 -0.586757
O21   O     O_R   0.209690 0.568800 0.556400 -0.619582
O22   O     O_R   0.763190 0.458310 0.535350 -0.587263
O23   O     O_R   0.414000 0.207090 0.472140 -0.633116
O24   O     O_R   0.613120 0.765800 0.436110 -0.610235
S1    S     S_3+6 0.078957 0.650047 0.419776 0.063982
S2    S     S_3+6 0.937243 0.344747 0.579495 0.044652
S3    S     S_3+6 0.451682 0.623423 0.225336 0.043919
Zn1   Zn    Zn3+2 0.577310 0.422690 0.565550 1.073098
Zn2   Zn    Zn3+2 0.403760 0.371330 0.445150 1.079910
Zn3   Zn    Zn3+2 0.634990 0.589920 0.423760 1.081395
Zn4   Zn    Zn3+2 0.383940 0.616050 0.565540 1.051408

loop_
_geom_bond_atom_site_label_1
_geom_bond_atom_site_label_2
_ccdc_geom_bond_type
H3    O11   S    
C21   C26   A    
C24   O17   D    
C1    C11   S    
C17   O4    A    
C18   O3    A    
C6    C9    A    
C11   S2    S    
C7    C8    A    
C22   H5    S    
C24   H6    S    
C28   C29   A    
O6    S1    D    
C22   O16   D    
C5    C6    A    
O14   S3    D    
O24   Zn3   S    
C17   C20   S    
O1    Zn2   S    
C18   C19   S    
H2    O8    S    
C12   H12   S    
O8    S1    S    
C14   H9    S    
O22   Zn1   S    
C2    H14   S    
O12   Zn1   S    
O5    Zn1   S    
C1    O21   A    
C23   C24   S    
C2    C27   A    
C16   O24   A    
C21   C22   S    
C29   H13   S    
O1    Zn1   S    
C16   O18   A    
O9    S2    D    
C1    O19   A    
C6    C28   A    
O4    Zn3   S    
C17   O2    A    
C5    C7    A    
O19   Zn2   S    
C25   C26   A    
C12   C21   A    
O1    Zn3   S    
C19   C23   A    
C29   C30   A    
C9    C20   A    
O10   S2    D    
C15   O23   A    
C7    H7    S    
C8    C20   A    
O13   S3    D    
C13   H8    S    
O23   Zn2   S    
C26   C30   A    
H4    O15   S    
O18   Zn4   S    
C4    C10   S    
C3    H11   S    
C9    S3    S    
C3    C5    A    
C25   C27   A    
O7    S1    D    
C4    O20   A    
O21   Zn4   S    
O1    Zn4   S    
C15   O12   A    
C2    C3    A    
O3    Zn4   S    
C4    O22   A    
C30   H1    S    
C12   C19   A    
C23   C25   A    
O11   S2    S    
C10   C11   D    
C10   S1    S    
C13   C16   S    
C27   C28   A    
O20   Zn3   S    
C14   C15   S    
C8    H10   S    
C13   C14   D    
O2    Zn2   S    
C18   O5    A    
O15   S3    S    
