data_mof_unit_13082.cif
_audit_creation_date              2012-10-26T19:48:08-0400
_audit_creation_method            fapswitch 2.2
_symmetry_space_group_name_H-M    P1
_symmetry_Int_Tables_number       1
_space_group_crystal_system       triclinic
_cell_length_a                    10.741359
_cell_length_b                    9.420087
_cell_length_c                    10.632564
_cell_angle_alpha                 90.218639
_cell_angle_beta                  89.627413
_cell_angle_gamma                 90.112196
_cell_volume                      1075.81846675

loop_
_atom_site_label
_atom_site_type_symbol
_atom_type_description
_atom_site_fract_x
_atom_site_fract_y
_atom_site_fract_z
_atom_type_partial_charge
C1    C     C_R   0.259869 0.499716 0.504024 0.559619
C2    C     C_3   0.930165 0.548420 0.376829 -0.237431
C3    C     C_3   0.610556 0.084235 0.568465 -0.105938
C4    C     C_3   0.610549 0.916693 0.568470 -0.105949
C5    C     C_3   0.388548 0.083725 0.567326 -0.098213
C6    C     C_3   0.388529 0.916257 0.567397 -0.103335
C7    C     C_3   0.501754 0.083078 0.373344 -0.105689
C8    C     C_3   0.501741 0.915961 0.373337 -0.103046
C9    C     C_R   0.500821 0.499693 0.259397 0.560170
C10   C     C_R   0.739945 0.499942 0.502200 0.552642
C11   C     C_R   0.499756 0.500301 0.740727 0.572193
C12   C     C_3   0.501713 0.499076 0.122622 0.022337
C13   C     C_3   0.395002 0.558298 0.043389 -0.120144
C14   C     C_3   0.510015 0.365159 0.040003 -0.137963
C15   C     C_3   0.403132 0.424404 0.958840 -0.106013
C16   C     C_3   0.500464 0.500960 0.877439 0.037149
C17   C     C_3   0.492238 0.635224 0.959565 -0.113485
C18   C     C_3   0.607596 0.441570 0.956108 -0.138622
C19   C     C_3   0.597670 0.574435 0.040119 -0.006920
C20   C     C_1   0.704013 0.657164 0.086069 0.178705
C21   C     C_1   0.123675 0.601513 0.731022 0.200265
C22   C     C_1   0.111617 0.290069 0.660538 0.187726
C23   C     C_3   0.069209 0.611169 0.604295 -0.105363
C24   C     C_3   0.069387 0.346473 0.538477 -0.102563
C25   C     C_3   0.925461 0.600032 0.610610 -0.231827
C26   C     C_3   0.926295 0.347312 0.532983 -0.231170
C27   C     C_3   0.073630 0.540528 0.376341 -0.267400
C28   C     C_3   0.121658 0.498672 0.508666 0.029576
C29   C     C_3   0.877680 0.499242 0.505496 0.015647
Cu1   Cu    Cu3+1 0.499860 0.642410 0.500060 0.888034
Cu2   Cu    Cu3+1 0.499860 0.357590 0.500060 0.885059
H1    H     H_    0.323197 0.362228 0.922458 0.161509
H2    H     H_    0.419245 0.121322 0.320667 0.115868
H3    H     H_    0.419182 0.877022 0.320664 0.117006
H4    H     H_    0.585412 0.121823 0.321505 0.119481
H5    H     H_    0.585399 0.877209 0.321448 0.135955
H6    H     H_    0.302652 0.120266 0.519861 0.120697
H7    H     H_    0.302474 0.878786 0.520182 0.115995
H8    H     H_    0.308142 0.605493 0.082106 0.128220
H9    H     H_    0.516990 0.254697 0.075301 0.112958
H10   H     H_    0.485586 0.745780 0.924373 0.114119
H11   H     H_    0.694723 0.394837 0.917520 0.109094
H12   H     H_    0.900629 0.659523 0.358285 0.153106
H13   H     H_    0.093509 0.718989 0.569105 0.100658
H14   H     H_    0.103504 0.271127 0.465061 0.099153
H15   H     H_    0.892981 0.559667 0.703650 0.125769
H16   H     H_    0.883952 0.307796 0.622332 0.124092
H17   H     H_    0.885410 0.708123 0.599510 0.111005
H18   H     H_    0.895985 0.273237 0.457147 0.111277
H19   H     H_    0.112519 0.645198 0.347447 0.124436
H20   H     H_    0.105066 0.461288 0.304995 0.119936
H21   H     H_    0.892699 0.480582 0.299857 0.134201
H22   H     H_    0.613448 0.124372 0.666917 0.117588
H23   H     H_    0.613353 0.877403 0.666929 0.116504
H24   H     H_    0.697621 0.121237 0.522053 0.115056
H25   H     H_    0.697610 0.879499 0.522075 0.118251
H26   H     H_    0.383509 0.123880 0.665717 0.140666
H27   H     H_    0.383488 0.876919 0.665816 0.125994
N1    N     N_3   0.500250 0.143650 0.502780 -0.231509
N2    N     N_3   0.500250 0.856350 0.502780 -0.231034
N3    N     N_1   0.787785 0.722688 0.122148 -0.342080
N4    N     N_1   0.166111 0.594791 0.830530 -0.314579
N5    N     N_1   0.144418 0.245324 0.755935 -0.333833
O1    O     O_R   0.317570 0.620260 0.500070 -0.518252
O2    O     O_R   0.317570 0.379740 0.500070 -0.510747
O3    O     O_R   0.499850 0.620240 0.316900 -0.510120
O4    O     O_R   0.499850 0.379760 0.316900 -0.516302
O5    O     O_R   0.682190 0.620260 0.500030 -0.512168
O6    O     O_R   0.682190 0.379740 0.500030 -0.518658
O7    O     O_R   0.499910 0.620280 0.683200 -0.509532
O8    O     O_R   0.499910 0.379720 0.683200 -0.507831

loop_
_geom_bond_atom_site_label_1
_geom_bond_atom_site_label_2
_ccdc_geom_bond_type
Cu1   O1    S    
C14   C18   S    
C19   C20   S    
C11   O7    A    
C15   H1    S    
Cu2   O4    S    
C2    C29   S    
C24   H14   S    
C24   C26   S    
C5    H6    S    
C18   H11   S    
Cu1   Cu2   S    
C11   O8    A    
C15   C16   S    
C18   C19   S    
C8    H5    S    
Cu2   N1    S    
C20   N3    T    
C6    H27   S    
C9    O3    A    
C22   N5    T    
C3    H24   S    
C16   C17   S    
Cu1   N2    S    
C1    C28   S    
C1    O2    A    
C6    H7    S    
C2    C27   S    
C27   H19   S    
Cu2   O8    S    
C4    H25   S    
C7    H2    S    
C7    N1    S    
Cu1   O7    S    
C27   H20   S    
C25   C29   S    
C5    N1    S    
C6    N2    S    
C7    C8    S    
C26   H18   S    
C23   H13   S    
C9    O4    A    
C11   C16   S    
C2    H12   S    
C4    N2    S    
C8    H3    S    
C23   C28   S    
C25   H17   S    
C21   N4    T    
Cu1   O3    S    
C2    H21   S    
C26   H16   S    
C12   C14   S    
C13   C15   S    
C22   C24   S    
C3    C4    S    
C1    O1    A    
Cu2   O2    S    
C4    H23   S    
C7    H4    S    
C24   C28   S    
C10   O5    A    
C5    H26   S    
C21   C23   S    
C8    N2    S    
C3    H22   S    
C10   C29   S    
C5    C6    S    
C12   C19   S    
C17   C19   S    
C23   C25   S    
C9    C12   S    
C17   H10   S    
C13   H8    S    
C14   H9    S    
C13   C17   S    
C10   O6    A    
Cu2   O6    S    
C12   C13   S    
C26   C29   S    
C16   C18   S    
C27   C28   S    
C14   C15   S    
C25   H15   S    
Cu1   O5    S    
C3    N1    S    
