data_mof_unit_51431.cif
_audit_creation_date              2012-10-26T20:40:15-0400
_audit_creation_method            fapswitch 2.2
_symmetry_space_group_name_H-M    P1
_symmetry_Int_Tables_number       1
_space_group_crystal_system       triclinic
_cell_length_a                    15.011577
_cell_length_b                    10.84992
_cell_length_c                    9.624586
_cell_angle_alpha                 90.170697
_cell_angle_beta                  89.840353
_cell_angle_gamma                 93.169104
_cell_volume                      1565.18912267

loop_
_atom_site_label
_atom_site_type_symbol
_atom_type_description
_atom_site_fract_x
_atom_site_fract_y
_atom_site_fract_z
_atom_type_partial_charge
C1    C     C_R   0.507227 0.263326 0.500570 0.553886
C2    C     C_R   0.183326 0.382259 0.455263 0.034031
C3    C     C_R   0.232367 0.488966 0.502853 -0.002497
C4    C     C_R   0.329140 0.496995 0.500556 0.534713
C5    C     C_R   0.189568 0.587271 0.562141 -0.112596
C6    C     C_R   0.552907 0.121213 0.756549 -0.110710
C7    C     C_R   0.538857 0.062373 0.883816 -0.145497
C8    C     C_R   0.494069 0.947131 0.888402 -0.115591
C9    C     C_R   0.471389 0.885663 0.765082 -0.087384
C10   C     C_R   0.494241 0.938740 0.634158 0.026189
C11   C     C_R   0.521703 0.064891 0.631318 0.029194
C12   C     C_R   0.910553 0.585469 0.570726 0.006001
C13   C     C_R   0.515634 0.129537 0.503774 0.011616
C14   C     C_R   0.505305 0.063655 0.379135 -0.147559
C15   C     C_R   0.497151 0.936249 0.380127 -0.151924
C16   C     C_R   0.494984 0.737341 0.501274 0.529409
C17   C     C_R   0.491379 0.872045 0.506169 -0.004749
C18   C     C_R   0.620067 0.663217 0.143737 -0.099412
C19   C     C_R   0.678680 0.743330 0.071643 -0.177864
C20   C     C_R   0.678699 0.743304 0.928396 -0.163852
C21   C     C_R   0.620057 0.663227 0.856343 -0.080944
C22   C     C_R   0.559361 0.579639 0.925378 0.130607
C23   C     C_R   0.944856 0.299470 0.366978 -0.136556
C24   C     C_R   0.559360 0.579603 0.074679 0.130520
C25   C     C_R   0.441348 0.426199 0.073728 0.103028
C26   C     C_R   0.441378 0.426207 0.925476 0.100580
C27   C     C_R   0.670894 0.499217 0.499527 0.569898
C28   C     C_R   0.817791 0.585180 0.572403 -0.187028
C29   C     C_R   0.767354 0.495751 0.497752 0.003685
C30   C     C_R   0.808869 0.404952 0.419835 0.244014
C31   C     C_R   0.901900 0.397112 0.429066 0.015013
C32   C     C_R   0.952953 0.489587 0.501592 0.020662
C33   C     C_2   0.375769 0.343948 0.146975 0.278730
C34   C     C_R   0.037089 0.293950 0.374647 -0.095322
C35   C     C_3   0.758084 0.356494 0.202522 0.009021
C36   C     C_3   0.687141 0.279481 0.123513 -0.363602
C37   C     C_2   0.376572 0.343212 0.850743 0.306208
C38   C     C_2   0.230823 0.266533 0.431387 0.268124
C39   C     C_R   0.089374 0.385917 0.445142 0.043022
C40   C     C_R   0.046542 0.486732 0.504748 0.042412
C41   C     C_R   0.097030 0.585092 0.567861 0.019960
C42   C     C_R   0.054295 0.681076 0.633558 -0.107595
C43   C     C_R   0.961528 0.680045 0.637226 -0.113127
Cu1   Cu    Cu3+1 0.499990 0.499990 0.640660 0.927938
Cu2   Cu    Cu3+1 0.500010 0.500010 0.359340 0.935294
H1    H     H_    0.784611 0.656538 0.628477 0.103248
H2    H     H_    0.624412 0.672058 0.746734 0.182829
H3    H     H_    0.907388 0.226298 0.312402 0.152123
H4    H     H_    0.066679 0.219321 0.319903 0.184195
H5    H     H_    0.228876 0.665328 0.604872 0.122059
H6    H     H_    0.092673 0.756483 0.682979 0.128861
H7    H     H_    0.929650 0.754267 0.690040 0.115443
H8    H     H_    0.503695 0.110421 0.280002 0.115544
H9    H     H_    0.396591 0.262439 0.199325 0.083318
H10   H     H_    0.823935 0.341968 0.153837 0.124910
H11   H     H_    0.743551 0.455563 0.190706 0.148216
H12   H     H_    0.589644 0.209687 0.757908 0.147513
H13   H     H_    0.620292 0.293056 0.168707 0.177571
H14   H     H_    0.686999 0.307955 0.012757 0.091703
H15   H     H_    0.701045 0.180157 0.129495 0.147984
H16   H     H_    0.397318 0.258383 0.804605 0.108085
H17   H     H_    0.301494 0.270628 0.408119 0.126791
H18   H     H_    0.560225 0.107830 0.979179 0.094742
H19   H     H_    0.478475 0.904056 0.987518 0.121477
H20   H     H_    0.433285 0.798898 0.775164 0.158757
H21   H     H_    0.494118 0.888113 0.281312 0.139638
H22   H     H_    0.624879 0.671520 0.253382 0.182366
H23   H     H_    0.724151 0.806384 0.127654 0.124050
H24   H     H_    0.724080 0.806447 0.872350 0.121397
N1    N     N_R   0.500860 0.501210 0.147910 -0.279938
N2    N     N_R   0.500890 0.501290 0.852040 -0.282927
O1    O     O_R   0.499990 0.319640 0.618810 -0.536100
O2    O     O_3   0.757320 0.319379 0.343437 -0.558201
O3    O     O_2   0.298147 0.367119 0.845334 -0.449137
O4    O     O_2   0.193468 0.164827 0.447950 -0.516981
O5    O     O_R   0.500000 0.319660 0.381240 -0.534572
O6    O     O_R   0.370250 0.499960 0.618800 -0.466254
O7    O     O_R   0.370260 0.499980 0.381230 -0.476692
O8    O     O_R   0.500000 0.680340 0.618760 -0.539231
O9    O     O_R   0.500010 0.680360 0.381190 -0.520476
O10   O     O_R   0.629740 0.500020 0.618770 -0.528591
O11   O     O_R   0.629750 0.500040 0.381200 -0.509322
O12   O     O_2   0.296641 0.364262 0.143406 -0.474343

loop_
_geom_bond_atom_site_label_1
_geom_bond_atom_site_label_2
_ccdc_geom_bond_type
C37   O3    D    
C27   C29   S    
C41   C42   A    
C19   C20   A    
C36   H14   S    
C24   N1    A    
C7    C8    A    
C28   H1    S    
C12   C28   A    
Cu2   O5    S    
C18   C24   A    
Cu1   O6    S    
C12   C43   A    
C36   H13   S    
C30   C31   A    
C43   H7    S    
C10   C17   A    
Cu1   N2    S    
C18   C19   A    
C2    C39   A    
C35   O2    S    
Cu2   O11   S    
C8    C9    A    
Cu2   O7    S    
C9    C10   A    
C42   H6    S    
C35   H11   S    
C13   C14   A    
C12   C32   A    
C26   N2    A    
C6    H12   S    
C38   O4    D    
C27   O11   A    
C1    O1    A    
C35   H10   S    
C34   C39   A    
C27   O10   A    
Cu1   O10   S    
C39   C40   A    
C30   O2    S    
C16   C17   S    
C3    C5    A    
C18   H22   S    
C15   H21   S    
C16   O9    A    
C35   C36   S    
C23   C31   A    
C4    O7    A    
C29   C30   A    
C2    C38   S    
C31   C32   A    
C23   C34   A    
C19   H23   S    
C33   O12   D    
C7    H18   S    
C8    H19   S    
C40   C41   A    
C22   C24   A    
C5    H5    S    
C1    C13   S    
C42   C43   A    
C3    C4    S    
C22   N2    A    
C6    C11   A    
Cu1   Cu2   S    
C33   H9    S    
C15   C17   A    
C5    C41   A    
C28   C29   A    
C34   H4    S    
C23   H3    S    
Cu2   N1    S    
C1    O5    A    
Cu1   O8    S    
C36   H15   S    
C37   H16   S    
C26   C37   S    
C6    C7    A    
C16   O8    A    
C2    C3    A    
C25   C26   A    
C4    O6    A    
C11   C13   A    
Cu1   O1    S    
Cu2   O9    S    
C32   C40   A    
C20   H24   S    
C9    H20   S    
C10   C11   A    
C14   H8    S    
C20   C21   A    
C14   C15   A    
C25   N1    A    
C38   H17   S    
C21   C22   A    
C25   C33   S    
C21   H2    S    
