data_mof_unit_27130.cif
_audit_creation_date              2012-12-10T17:28:32-0500
_audit_creation_method            fapswitch 2.2
_symmetry_space_group_name_H-M    P1
_symmetry_Int_Tables_number       1
_space_group_crystal_system       triclinic
_cell_length_a                    10.607079
_cell_length_b                    11.934515
_cell_length_c                    12.913586
_cell_angle_alpha                 93.177569
_cell_angle_beta                  90.018797
_cell_angle_gamma                 85.402402
_cell_volume                      1626.95594269

loop_
_atom_site_label
_atom_site_type_symbol
_atom_type_description
_atom_site_fract_x
_atom_site_fract_y
_atom_site_fract_z
_atom_type_partial_charge
C1    C     C_R   0.497709 0.522019 0.700527 0.896464
C2    C     C_R   0.512882 0.560206 0.132630 -0.267653
C3    C     C_R   0.493017 0.446691 0.974300 0.114288
C4    C     C_R   0.506983 0.553309 0.025700 0.114288
C5    C     C_R   0.363370 0.957844 0.420133 -0.079595
C6    C     C_R   0.636627 0.042156 0.579869 -0.079595
C7    C     C_R   0.379732 0.840677 0.425873 -0.028989
C8    C     C_R   0.620266 0.159323 0.574129 -0.028990
C9    C     C_R   0.561354 0.855423 0.531265 -0.044691
C10   C     C_R   0.438646 0.144577 0.468735 -0.044691
C11   C     C_R   0.550449 0.974018 0.528257 0.031872
C12   C     C_R   0.502291 0.477981 0.299473 0.896471
C13   C     C_R   0.449550 0.025982 0.471743 0.031872
C14   C     C_R   0.739945 0.497035 0.484204 0.894155
C15   C     C_R   0.260056 0.502965 0.515799 0.894156
C16   C     C_R   0.910229 0.283972 0.470694 -0.145293
C17   C     C_R   0.089773 0.716028 0.529318 -0.145290
C18   C     C_R   0.975397 0.190339 0.511469 -0.181097
C19   C     C_R   0.024607 0.809662 0.488543 -0.181097
C20   C     C_R   0.081958 0.204003 0.572467 0.052080
C21   C     C_R   0.918047 0.795998 0.427543 0.052077
C22   C     C_R   0.128343 0.310165 0.585417 -0.175502
C23   C     C_R   0.503126 0.464709 0.188388 -0.079695
C24   C     C_R   0.871661 0.689836 0.414592 -0.175503
C25   C     C_R   0.068169 0.403980 0.537324 0.069569
C26   C     C_R   0.931833 0.596021 0.462686 0.069568
C27   C     C_R   0.950437 0.393468 0.491001 0.085765
C28   C     C_R   0.049565 0.606533 0.509010 0.085765
C29   C     C_R   0.123703 0.507228 0.532403 -0.239620
C30   C     C_R   0.876299 0.492772 0.467606 -0.239616
C31   C     C_1   0.853947 0.891341 0.380763 0.142693
C32   C     C_1   0.146061 0.108660 0.619245 0.142692
C33   C     C_1   0.257177 0.005141 0.362410 0.124583
C34   C     C_R   0.496874 0.535291 0.811612 -0.079694
C35   C     C_1   0.742815 0.994860 0.637599 0.124583
C36   C     C_1   0.527285 0.761004 0.017815 0.153190
C37   C     C_1   0.472716 0.238996 0.982185 0.153190
C38   C     C_R   0.514167 0.650488 0.968889 0.000863
C39   C     C_R   0.485833 0.349511 0.031111 0.000863
C40   C     C_R   0.509145 0.640462 0.861672 -0.226523
C41   C     C_R   0.490855 0.359538 0.138328 -0.226523
C42   C     C_R   0.487118 0.439794 0.867370 -0.267654
H1    H     H_    0.829468 0.269578 0.421964 0.170682
H2    H     H_    0.516436 0.714290 0.817330 0.173420
H3    H     H_    0.363666 0.187294 0.425523 0.150508
H4    H     H_    0.636334 0.812706 0.574477 0.150508
H5    H     H_    0.686019 0.212477 0.612707 0.150421
H6    H     H_    0.313978 0.787523 0.387296 0.150422
H7    H     H_    0.170534 0.730420 0.578048 0.170678
H8    H     H_    0.941307 0.107781 0.496922 0.153724
H9    H     H_    0.058696 0.892219 0.503092 0.153724
H10   H     H_    0.211002 0.319299 0.633570 0.155455
H11   H     H_    0.789005 0.680702 0.366436 0.155456
H12   H     H_    0.524219 0.640638 0.173169 0.175923
H13   H     H_    0.475781 0.359361 0.826831 0.175923
H14   H     H_    0.483564 0.285710 0.182670 0.173420
N1    N     N_R   0.523130 0.207800 0.519340 -0.115006
N2    N     N_R   0.476870 0.792200 0.480660 -0.115006
N3    N     N_1   0.802366 0.967940 0.343185 -0.196186
N4    N     N_1   0.197645 0.032062 0.656822 -0.196188
N5    N     N_1   0.171964 0.042959 0.316298 -0.185044
N6    N     N_1   0.828023 0.957042 0.683717 -0.185044
N7    N     N_1   0.537735 0.849399 0.056898 -0.174116
N8    N     N_1   0.462265 0.150601 0.943101 -0.174116
O1    O     O_R   0.506170 0.421700 0.658830 -0.628420
O2    O     O_R   0.493830 0.578300 0.341170 -0.628418
O3    O     O_R   0.491330 0.609310 0.646410 -0.624338
O4    O     O_R   0.508670 0.390690 0.353590 -0.624336
O5    O     O_R   0.690650 0.406190 0.506220 -0.625769
O6    O     O_R   0.309350 0.593810 0.493780 -0.625767
O7    O     O_R   0.675800 0.593810 0.493800 -0.620338
O8    O     O_R   0.324200 0.406190 0.506200 -0.620337
Zn1   Zn    Zn3+2 0.509910 0.374730 0.508290 0.942212
Zn2   Zn    Zn3+2 0.490090 0.625270 0.491710 0.942212

loop_
_geom_bond_atom_site_label_1
_geom_bond_atom_site_label_2
_ccdc_geom_bond_type
C3    C42   A    
C14   O7    A    
C34   C42   A    
C39   C41   A    
C15   O8    A    
C21   C31   S    
C12   C23   S    
N2    Zn2   S    
C34   C40   A    
C28   C29   A    
C19   C21   A    
C24   C26   A    
C42   H13   S    
N1    Zn1   S    
O2    Zn2   S    
O1    Zn1   S    
C6    C35   S    
C9    N2    A    
C31   N3    T    
C1    O3    A    
C22   C25   A    
C5    C33   S    
O6    Zn2   S    
C1    O1    A    
O5    Zn1   S    
C36   N7    T    
C7    N2    A    
C5    C13   A    
C16   C27   A    
C3    C39   A    
C9    H4    S    
C27   C30   A    
C14   C30   S    
C1    C34   S    
C15   C29   S    
C25   C29   A    
C10   N1    A    
C2    H12   S    
C17   H7    S    
C6    C11   A    
C5    C7    A    
C6    C8    A    
O4    Zn1   S    
C12   O2    A    
C2    C4    A    
C41   H14   S    
C8    N1    A    
C12   O4    A    
C10   H3    S    
O3    Zn2   S    
C9    C11   A    
C16   H1    S    
C16   C18   A    
C20   C22   A    
C26   C30   A    
C14   O5    A    
C32   N4    T    
C3    C4    A    
C37   N8    T    
C18   H8    S    
C22   H10   S    
C20   C32   S    
C15   O6    A    
C17   C28   A    
C4    C38   A    
O8    Zn1   S    
C10   C13   A    
O7    Zn2   S    
C25   C27   A    
C26   C28   A    
C23   C41   A    
C7    H6    S    
C36   C38   S    
C24   H11   S    
C8    H5    S    
C37   C39   S    
C38   C40   A    
C11   C13   A    
C17   C19   A    
C35   N6    T    
C18   C20   A    
C19   H9    S    
C40   H2    S    
C33   N5    T    
C21   C24   A    
C2    C23   A    
