data_mof_unit_41567.cif
_audit_creation_date              2012-12-11T14:51:43-0500
_audit_creation_method            fapswitch 2.2
_symmetry_space_group_name_H-M    P1
_symmetry_Int_Tables_number       1
_space_group_crystal_system       triclinic
_cell_length_a                    6.938572
_cell_length_b                    16.70766
_cell_length_c                    16.921411
_cell_angle_alpha                 101.448249
_cell_angle_beta                  90.315343
_cell_angle_gamma                 90.3516
_cell_volume                      1922.54378892

loop_
_atom_site_label
_atom_site_type_symbol
_atom_type_description
_atom_site_fract_x
_atom_site_fract_y
_atom_site_fract_z
_atom_type_partial_charge
O1    O     O_R   0.506340 0.439070 0.579550 -0.506922
O2    O     O_R   0.170010 0.404890 0.412100 -0.538760
O3    O     O_R   0.005010 0.560930 0.420450 -0.543144
C1    C     C_R   0.339270 0.381684 0.383082 0.696177
O4    O     O_R   0.176280 0.429360 0.578400 -0.535827
O5    O     O_R   0.011320 0.585570 0.587940 -0.545049
C2    C     C_R   0.344444 0.412363 0.604149 0.762352
O6    O     O_R   0.500030 0.414430 0.412060 -0.534363
O7    O     O_3   0.340950 0.551220 0.502940 -0.382510
V1    V     V_3+5 0.064020 0.490500 0.499460 1.481741
O8    O     O_R   0.681910 0.595110 0.587900 -0.546203
C3    C     C_R   0.851604 0.618407 0.616684 0.671840
O9    O     O_R   0.675640 0.570640 0.421600 -0.545570
C4    C     C_R   0.842763 0.586714 0.395062 0.702984
V2    V     V_3+5 0.564670 0.509500 0.500540 1.478207
O10   O     O_3   0.837610 0.448780 0.497060 -0.338042
C5    C     C_R   0.925613 0.862590 0.168175 -0.077802
C6    C     C_R   0.839406 0.639420 0.333493 -0.077134
C7    C     C_R   0.656701 0.689389 0.229041 -0.029404
C8    C     C_R   0.675961 0.636975 0.283552 -0.139442
C9    C     C_R   0.984680 0.697003 0.328905 -0.221527
C10   C     C_R   0.965333 0.753207 0.276431 0.116725
C11   C     C_R   0.799647 0.749149 0.225545 0.109974
C12   C     C_R   0.781287 0.804595 0.172366 -0.216418
C13   C     C_R   0.086369 0.866999 0.219867 -0.179005
C14   C     C_R   0.106674 0.813949 0.273845 -0.019609
H1    H     H_    0.658314 0.801292 0.132131 0.130310
H2    H     H_    0.198511 0.912048 0.217723 0.121250
H3    H     H_    0.560580 0.593928 0.287428 0.145660
H4    H     H_    0.108779 0.699584 0.368443 0.130036
C15   C     C_3   0.808235 0.817620 0.731047 -0.136788
C16   C     C_3   0.978150 0.768329 0.687008 -0.137736
H5    H     H_    0.056179 0.783044 0.634533 0.111224
H6    H     H_    0.746832 0.873952 0.715898 0.106860
C17   C     C_3   0.865824 0.688670 0.687459 -0.011073
C18   C     C_3   0.695752 0.737138 0.730683 -0.116337
C19   C     C_3   0.787930 0.731611 0.813034 -0.135168
C20   C     C_3   0.957847 0.682322 0.768996 -0.136725
C21   C     C_3   0.070329 0.762803 0.769359 -0.116921
C22   C     C_3   0.900259 0.811270 0.812584 -0.011716
H7    H     H_    0.541403 0.726212 0.714235 0.107194
H8    H     H_    0.709899 0.716895 0.865508 0.111870
H9    H     H_    0.019250 0.625992 0.784148 0.105220
H10   H     H_    0.224680 0.773728 0.785805 0.108994
C23   C     C_3   0.474703 0.233627 0.315098 -0.128156
C24   C     C_3   0.311252 0.180664 0.267831 -0.121830
H11   H     H_    0.252852 0.123298 0.282319 0.110149
H12   H     H_    0.549252 0.220407 0.369250 0.144713
C25   C     C_3   0.409565 0.188247 0.187901 -0.027488
C26   C     C_3   0.573183 0.240140 0.234305 -0.157644
C27   C     C_3   0.453986 0.317231 0.232194 -0.000596
C28   C     C_3   0.291287 0.265500 0.184640 -0.163202
C29   C     C_3   0.193445 0.258889 0.265537 -0.119635
C30   C     C_3   0.356620 0.311219 0.312184 -0.055093
H13   H     H_    0.728751 0.232414 0.220477 0.111688
H14   H     H_    0.217179 0.278975 0.130484 0.115738
H15   H     H_    0.037887 0.266855 0.279213 0.116099
C31   C     C_R   0.425967 0.136675 0.831587 -0.062247
C32   C     C_R   0.343984 0.357898 0.664374 -0.141767
C33   C     C_R   0.160374 0.305255 0.766361 -0.164843
C34   C     C_R   0.181102 0.359531 0.714095 -0.174953
C35   C     C_R   0.490432 0.300156 0.668971 0.298195
C36   C     C_R   0.469597 0.244933 0.722567 0.085184
C37   C     C_R   0.302463 0.247489 0.771100 0.101776
C38   C     C_R   0.280658 0.192961 0.824565 -0.210102
C39   C     C_R   0.589651 0.133790 0.782407 -0.186235
C40   C     C_R   0.611197 0.186634 0.728772 -0.135079
H16   H     H_    0.154621 0.196410 0.862654 0.119738
H17   H     H_    0.704068 0.090815 0.786154 0.126622
H18   H     H_    0.031946 0.308349 0.802995 0.135653
H19   H     H_    0.741373 0.181793 0.693338 0.181834
H20   H     H_    0.066668 0.402916 0.712002 0.160572
O11   O     O_R   0.266070 0.085680 0.087850 -0.539715
O12   O     O_R   0.590090 0.070660 0.921580 -0.542334
O13   O     O_R   0.754780 0.914400 0.912080 -0.539256
C41   C     C_R   0.422590 0.085866 0.894447 0.698789
O14   O     O_R   0.596110 0.095130 0.087880 -0.539903
O15   O     O_R   0.760850 0.939050 0.079570 -0.538421
C42   C     C_R   0.426892 0.118130 0.116984 0.688854
O16   O     O_R   0.260010 0.061030 0.920360 -0.539362
O17   O     O_3   0.425070 0.948840 0.997010 -0.366951
V3    V     V_3+5 0.702100 0.009490 0.000550 1.412097
O18   O     O_R   0.090200 0.929250 0.078500 -0.539570
C43   C     C_R   0.923055 0.914029 0.105617 0.708265
O19   O     O_R   0.084180 0.904770 0.912200 -0.541235
C44   C     C_R   0.914489 0.881525 0.883369 0.682145
V4    V     V_3+5 0.201420 0.990350 0.999580 1.417196
O20   O     O_3   0.928580 0.051150 0.002990 -0.368933
C45   C     C_1   0.534340 0.390794 0.209669 0.264733
N1    N     N_1   0.598501 0.448346 0.191135 -0.369114
Cl1   Cl    Cl    0.693276 0.293656 0.604883 -0.685629
C46   C     C_1   0.486764 0.680640 0.178093 0.294349
N2    N     N_1   0.350796 0.673516 0.137301 -0.347364
C47   C     C_1   0.275418 0.823296 0.325481 0.269000
N3    N     N_1   0.410498 0.830847 0.366799 -0.356158

loop_
_geom_bond_atom_site_label_1
_geom_bond_atom_site_label_2
_ccdc_geom_bond_type
C14   C47   S    
O18   V4    S    
V4    O20   S    
C6    C9    A    
C4    C6    S    
O2    C1    A    
C7    C8    A    
C12   H1    S    
C1    O6    A    
O17   V3    S    
C31   C41   S    
O19   C44   A    
C13   H2    S    
C24   C25   S    
C35   C36   A    
O12   C41   A    
O14   V3    S    
C18   C19   S    
C19   C22   S    
O5    C3    A    
C20   C21   S    
C39   H17   S    
V2    O10   S    
C15   C22   S    
C16   C21   S    
C22   C44   S    
C19   H8    S    
O11   V4    S    
C7    C46   S    
O13   C44   A    
O8    V2    S    
C31   C39   A    
O18   C43   A    
C11   C12   A    
O1    V2    S    
O7    V1    S    
C40   H19   S    
C25   C28   S    
O14   C42   A    
C39   C40   A    
O9    C4    A    
C18   H7    S    
O12   V3    S    
C2    C32   S    
C8    H3    S    
O19   V4    S    
C36   C40   A    
C32   C34   A    
C5    C12   A    
C27   C28   S    
C16   C17   S    
C17   C20   S    
C21   C22   S    
O4    C2    A    
C29   H15   S    
C13   C14   A    
C23   C24   S    
C25   C42   S    
C33   C34   A    
C17   C18   S    
C7    C11   A    
C19   C20   S    
O15   V3    S    
C31   C38   A    
C15   C16   S    
C33   H18   S    
C38   H16   S    
C35   Cl1   S    
C26   C27   S    
O11   C42   A    
C15   H6    S    
C3    C17   S    
O17   V4    S    
O3    C4    A    
C34   H20   S    
C23   C30   S    
O6    V2    S    
O9    V2    S    
O2    V1    S    
C28   C29   S    
C23   H12   S    
C24   H11   S    
C32   C35   A    
C1    C30   S    
O1    C2    A    
C10   C11   A    
C41   O16   A    
O5    V1    S    
O8    C3    A    
O13   V3    S    
C29   C30   S    
C21   H10   S    
O16   V4    S    
C9    H4    S    
C26   H13   S    
C33   C37   A    
C27   C30   S    
C5    C13   A    
C37   C38   A    
C5    C43   S    
O7    V2    S    
O4    V1    S    
O3    V1    S    
V1    O10   S    
C16   H5    S    
C23   C26   S    
V3    O20   S    
C24   C29   S    
C46   N2    T    
C6    C8    A    
C47   N3    T    
C36   C37   A    
O15   C43   A    
C20   H9    S    
C25   C26   S    
C10   C14   A    
C15   C18   S    
C45   N1    T    
C9    C10   A    
C27   C45   S    
C28   H14   S    
