data_mof_unit_68149.cif
_audit_creation_date              2013-03-05T15:59:44-0500
_audit_creation_method            fapswitch 2.2
_symmetry_space_group_name_H-M    P1
_symmetry_Int_Tables_number       1
_space_group_crystal_system       triclinic
_cell_length_a                    6.988245
_cell_length_b                    14.567847
_cell_length_c                    15.72284
_cell_angle_alpha                 89.856599
_cell_angle_beta                  89.169919
_cell_angle_gamma                 89.188908
_cell_volume                      1600.31046606

loop_
_atom_site_label
_atom_site_type_symbol
_atom_site_description
_atom_site_fract_x
_atom_site_fract_y
_atom_site_fract_z
_atom_type_partial_charge
O1    O     O_R   0.638960 0.835150 0.161940 -0.580470
O2    O     O_R   0.361040 0.164850 0.838060 -0.580471
O3    O     O_R   0.309170 0.846340 0.337470 -0.588781
O4    O     O_R   0.690830 0.153660 0.662530 -0.588781
O5    O     O_R   0.138810 0.664830 0.338070 -0.618512
O6    O     O_R   0.861190 0.335170 0.661930 -0.618491
C1    C     C_R   0.476655 0.867765 0.366746 1.126616
C2    C     C_R   0.523345 0.132235 0.633254 1.126619
O7    O     O_R   0.309250 0.846350 0.162570 -0.581865
O8    O     O_R   0.690750 0.153650 0.837430 -0.581865
O9    O     O_R   0.138880 0.664840 0.161920 -0.587148
O10   O     O_R   0.861120 0.335160 0.838080 -0.587150
C3    C     C_R   0.478007 0.865327 0.131370 1.090117
C4    C     C_R   0.521992 0.134673 0.868630 1.090114
O11   O     O_R   0.638880 0.835150 0.338090 -0.568470
O12   O     O_R   0.361120 0.164850 0.661910 -0.568470
O13   O     O_3   0.472380 0.690440 0.250000 -0.286853
O14   O     O_3   0.527620 0.309560 0.750000 -0.286846
V1    V     V_3+5 0.197550 0.761040 0.250010 1.274226
V2    V     V_3+5 0.802450 0.238960 0.749990 1.274234
O15   O     O_R   0.809160 0.653640 0.162540 -0.610580
O16   O     O_R   0.190840 0.346360 0.837460 -0.610581
C5    C     C_R   0.979973 0.635592 0.130851 1.117938
C6    C     C_R   0.020027 0.364409 0.869149 1.117936
O17   O     O_R   0.809090 0.653640 0.337440 -0.559785
O18   O     O_R   0.190910 0.346360 0.662560 -0.559787
C7    C     C_R   0.978038 0.630734 0.365191 1.128516
C8    C     C_R   0.021962 0.369266 0.634810 1.128518
V3    V     V_3+5 0.697540 0.738950 0.250000 1.285138
V4    V     V_3+5 0.302460 0.261050 0.750000 1.285143
O19   O     O_3   0.972580 0.809550 0.250010 -0.258480
O20   O     O_3   0.027420 0.190450 0.749990 -0.258483
C9    C     C_3   0.175392 0.526599 0.477832 0.347753
C10   C     C_3   0.824609 0.473402 0.522169 0.347760
C11   C     C_3   0.082939 0.539849 0.566674 0.431008
C12   C     C_3   0.917062 0.460151 0.433327 0.430995
C13   C     C_3   0.011619 0.439445 0.565126 -0.585374
C14   C     C_3   0.988382 0.560555 0.434875 -0.585391
C15   C     C_3   0.104336 0.427275 0.475722 0.317384
C16   C     C_3   0.895665 0.572725 0.524279 0.317388
C17   C     C_3   0.916149 0.425855 0.032705 0.398987
C18   C     C_3   0.083851 0.574145 0.967295 0.398987
C19   C     C_3   0.093995 0.472436 0.069137 0.259178
C20   C     C_3   0.906005 0.527564 0.930863 0.259178
C21   C     C_3   0.996436 0.567604 0.059071 -0.571517
C22   C     C_3   0.003564 0.432396 0.940929 -0.571515
C23   C     C_3   0.819040 0.520983 0.021279 0.406313
C24   C     C_3   0.180960 0.479018 0.978720 0.406312
C25   C     C_3   0.627145 0.018484 0.438553 0.326985
C26   C     C_3   0.372855 0.981516 0.561446 0.326983
C27   C     C_3   0.464351 0.083802 0.468560 0.324928
C28   C     C_3   0.535650 0.916198 0.531440 0.324927
C29   C     C_3   0.514132 0.062786 0.562792 -0.481332
C30   C     C_3   0.485868 0.937214 0.437208 -0.481330
C31   C     C_3   0.676161 0.996961 0.531736 0.312937
C32   C     C_3   0.323839 0.003039 0.468264 0.312938
C33   C     C_3   0.624918 0.932164 0.981184 0.313209
C34   C     C_3   0.375082 0.067836 0.018816 0.313209
C35   C     C_3   0.458157 0.964304 0.924526 0.350057
C36   C     C_3   0.541843 0.035696 0.075474 0.350057
C37   C     C_3   0.510971 0.065705 0.939769 -0.465315
C38   C     C_3   0.489029 0.934295 0.060231 -0.465316
C39   C     C_3   0.677246 0.032698 0.996981 0.321366
C40   C     C_3   0.322754 0.967302 0.003019 0.321366
O21   O     O_3   0.176758 0.578394 0.636620 -0.589351
C41   C     C_3   0.177696 0.674883 0.628954 -0.151173
H1    H     H_    0.040981 0.704446 0.653905 0.130577
H2    H     H_    0.203957 0.699515 0.562858 0.134634
H3    H     H_    0.294367 0.701571 0.668299 0.144768
O22   O     O_3   0.823242 0.421606 0.363382 -0.589351
C42   C     C_3   0.822316 0.325117 0.371045 -0.151209
H4    H     H_    0.796071 0.300481 0.437140 0.134629
H5    H     H_    0.959031 0.295558 0.346088 0.130587
H6    H     H_    0.705641 0.298427 0.331702 0.144774
O23   O     O_3   0.411658 0.935564 0.842006 -0.594492
C43   C     C_3   0.383851 0.840463 0.841851 -0.227386
H7    H     H_    0.290161 0.817565 0.895218 0.202884
H8    H     H_    0.523339 0.803155 0.843216 0.134012
H9    H     H_    0.312027 0.822384 0.781902 0.153038
O24   O     O_3   0.588342 0.064436 0.157994 -0.594491
C44   C     C_3   0.616149 0.159537 0.158148 -0.227386
H10   H     H_    0.476661 0.196845 0.156784 0.134012
H11   H     H_    0.709839 0.182435 0.104782 0.202884
H12   H     H_    0.687973 0.177616 0.218097 0.153039
O25   O     O_3   0.753911 0.860576 0.962669 -0.732484
H13   H     H_    0.801942 0.872986 0.904211 0.323661
O26   O     O_3   0.246089 0.139424 0.037331 -0.732484
H14   H     H_    0.198058 0.127014 0.095788 0.323661
O27   O     O_3   0.859978 0.069737 0.993445 -0.683333
H15   H     H_    0.913076 0.058332 0.050582 0.369049
O28   O     O_3   0.140022 0.930262 0.006555 -0.683333
H16   H     H_    0.086924 0.941668 0.949418 0.369049
O29   O     O_3   0.361785 0.550162 0.453497 -0.622162
H17   H     H_    0.371123 0.617149 0.462399 0.340660
O30   O     O_3   0.638218 0.449838 0.546507 -0.622156
H18   H     H_    0.628862 0.382856 0.537578 0.340667
O31   O     O_3   0.218278 0.352096 0.451337 -0.693476
H19   H     H_    0.274860 0.369390 0.395506 0.347234
O32   O     O_3   0.781724 0.647904 0.548665 -0.693470
H20   H     H_    0.725145 0.630611 0.604496 0.347236
O33   O     O_3   0.192595 0.445783 0.142267 -0.719709
H21   H     H_    0.200058 0.377849 0.140722 0.305255
O34   O     O_3   0.807405 0.554217 0.857733 -0.719708
H22   H     H_    0.799942 0.622151 0.859278 0.305255
O35   O     O_3   0.826039 0.348939 0.068675 -0.646693
C45   C     C_3   0.790175 0.364287 0.156407 -0.128097
H23   H     H_    0.797142 0.437178 0.177412 0.193039
H24   H     H_    0.893404 0.322593 0.193488 0.137054
H25   H     H_    0.643724 0.341969 0.173058 0.124813
O36   O     O_3   0.173961 0.651061 0.931324 -0.646694
C46   C     C_3   0.209825 0.635713 0.843592 -0.128095
H26   H     H_    0.106596 0.677407 0.806511 0.137055
H27   H     H_    0.202859 0.562822 0.822588 0.193040
H28   H     H_    0.356276 0.658031 0.826941 0.124812
O37   O     O_3   0.630127 0.542256 0.048005 -0.579914
C47   C     C_3   0.572914 0.628124 0.014434 0.088128
H29   H     H_    0.528390 0.619908 0.947961 0.168772
H30   H     H_    0.685917 0.680995 0.016479 0.081074
H31   H     H_    0.448535 0.654379 0.052013 0.157409
O38   O     O_3   0.369872 0.457744 0.951994 -0.579914
C48   C     C_3   0.427086 0.371876 0.985566 0.088128
H32   H     H_    0.551465 0.345621 0.947987 0.157409
H33   H     H_    0.314082 0.319005 0.983521 0.081074
H34   H     H_    0.471610 0.380092 0.052039 0.168773
O39   O     O_3   0.434038 0.173523 0.436923 -0.594938
C49   C     C_3   0.359803 0.169665 0.353982 -0.112844
H35   H     H_    0.201588 0.165428 0.356877 0.151011
H36   H     H_    0.419957 0.111902 0.315375 0.169984
H37   H     H_    0.394978 0.234082 0.320008 0.121522
O40   O     O_3   0.565962 0.826477 0.563077 -0.594938
C50   C     C_3   0.640198 0.830336 0.646018 -0.112838
H38   H     H_    0.580044 0.888098 0.684625 0.169982
H39   H     H_    0.798412 0.834573 0.643123 0.151010
H40   H     H_    0.605024 0.765919 0.679992 0.121521
O41   O     O_3   0.758553 0.037419 0.373157 -0.673416
H41   H     H_    0.793381 0.102587 0.380646 0.313891
O42   O     O_3   0.241447 0.962582 0.626843 -0.673417
H42   H     H_    0.206619 0.897413 0.619353 0.313891
O43   O     O_3   0.858891 0.993467 0.565862 -0.687738
H43   H     H_    0.918185 0.936905 0.541837 0.356557
O44   O     O_3   0.141109 0.006533 0.434138 -0.687737
H44   H     H_    0.081815 0.063095 0.458162 0.356557

loop_
_geom_bond_atom_site_label_1
_geom_bond_atom_site_label_2
_geom_bond_distance
_ccdc_geom_bond_type
C41   H2    1.112143 S    
O26   H14   0.990998 S    
O33   H21   0.990634 S    
C5    C21   1.505490 S    
C10   C13   1.553821 S    
O13   V3    1.733984 S    
O35   C45   1.416144 S    
O30   H18   0.989392 S    
C43   H9    1.108341 S    
O4    C2    1.306088 A    
C50   H40   1.107529 S    
V1    O19   1.714525 S    
C34   O26   1.397213 S    
C16   O32   1.396081 S    
O31   H19   0.990981 S    
C26   O42   1.398212 S    
O41   H41   0.991118 S    
C24   O38   1.410127 S    
O25   H13   0.990998 S    
C23   O37   1.410127 S    
O9    V1    2.023075 S    
C35   C40   1.544535 S    
C9    C15   1.536986 S    
C17   O35   1.406551 S    
C36   C39   1.544535 S    
C10   C16   1.536988 S    
C11   C13   1.552279 S    
C43   H8    1.109771 S    
O3    C1    1.306087 A    
C15   O31   1.396083 S    
C41   H3    1.106078 S    
C45   H23   1.114749 S    
C11   O21   1.410316 S    
C7    C14   1.498480 S    
O12   V4    2.006822 S    
O37   C47   1.411344 S    
C31   O43   1.392481 S    
C47   H29   1.102071 S    
C36   C38   1.547757 S    
C27   C32   1.543154 S    
C37   C39   1.550114 S    
O7    C3    1.303709 A    
O36   C46   1.416144 S    
C48   H34   1.102072 S    
C38   C40   1.550114 S    
C9    C11   1.541928 S    
O5    C7    1.300649 A    
O7    V1    2.007919 S    
O6    C8    1.300650 A    
C3    C38   1.503490 S    
C46   H26   1.107811 S    
C28   C30   1.555481 S    
C25   C27   1.542180 S    
C26   C28   1.542180 S    
C17   C22   1.562010 S    
O3    V1    2.027465 S    
O22   C42   1.410595 S    
O14   V4    1.733985 S    
V4    O20   2.192722 S    
C19   C24   1.541240 S    
C10   C12   1.541930 S    
C28   C31   1.543153 S    
C34   C37   1.553248 S    
C21   C23   1.548666 S    
C41   H1    1.109284 S    
C25   O41   1.398212 S    
C2    O12   1.298064 A    
C34   C40   1.536226 S    
C17   C19   1.542619 S    
O10   V2    2.023074 S    
C18   C20   1.542618 S    
C44   H11   1.110336 S    
C20   O34   1.400266 S    
C12   O22   1.410316 S    
O11   V3    2.006822 S    
C22   C24   1.548665 S    
C29   C31   1.547788 S    
O17   V3    2.009315 S    
C30   C32   1.547788 S    
C35   C37   1.547757 S    
C26   C29   1.552640 S    
C27   O39   1.411601 S    
C33   C38   1.553248 S    
C10   O30   1.399449 S    
O8    C4    1.303710 A    
O8    V2    2.007917 S    
O28   H16   0.989691 S    
C42   H5    1.109284 S    
C1    O11   1.298064 A    
C20   C22   1.545055 S    
C49   H37   1.107528 S    
C25   C31   1.539913 S    
C4    C37   1.503490 S    
O15   V3    1.998484 S    
C44   H10   1.109771 S    
C27   C29   1.555481 S    
C18   C21   1.562011 S    
O23   C43   1.401704 S    
C19   O33   1.400265 S    
O32   H20   0.990979 S    
C39   O27   1.393631 S    
O1    V3    2.009737 S    
C17   C23   1.545614 S    
C46   H27   1.114750 S    
O29   H17   0.989379 S    
C18   C24   1.545614 S    
C43   H7    1.110337 S    
C19   C21   1.545055 S    
C48   H32   1.108030 S    
C32   O44   1.392481 S    
O18   V4    2.009317 S    
O15   C5    1.310265 A    
O39   C49   1.411968 S    
O16   C6    1.310264 A    
O1    C3    1.300006 A    
C50   H38   1.112842 S    
C35   O23   1.408210 S    
C44   H12   1.108341 S    
O38   C48   1.411345 S    
V2    O20   1.714524 S    
C36   O24   1.408210 S    
C49   H36   1.112841 S    
O16   V4    1.998485 S    
C12   C15   1.546724 S    
C33   C39   1.536226 S    
O24   C44   1.401704 S    
C50   H39   1.108505 S    
C9    O29   1.399450 S    
C2    C29   1.504858 S    
C42   H6    1.106079 S    
O43   H43   0.990303 S    
C20   C23   1.541241 S    
O5    V1    2.009977 S    
O17   C7    1.303343 A    
O6    V2    2.009975 S    
O42   H42   0.991118 S    
O10   C6    1.297498 A    
O18   C8    1.303342 A    
C9    C14   1.553826 S    
C1    C30   1.504860 S    
C47   H31   1.108030 S    
O2    V4    2.009735 S    
C28   O40   1.411600 S    
C12   C14   1.552282 S    
O40   C50   1.411968 S    
C18   O36   1.406551 S    
C6    C22   1.505490 S    
C42   H4    1.112146 S    
C13   C15   1.548806 S    
O44   H44   0.990303 S    
C14   C16   1.548808 S    
C45   H24   1.107811 S    
C8    C13   1.498477 S    
C49   H35   1.108504 S    
O9    C5    1.297499 A    
O13   V1    2.165753 S    
C47   H30   1.111736 S    
C11   C16   1.546723 S    
C46   H28   1.105854 S    
O14   V2    2.165753 S    
O2    C4    1.300007 A    
C26   C32   1.539913 S    
C48   H33   1.111736 S    
C33   C35   1.543834 S    
O4    V2    2.027467 S    
V3    O19   2.192723 S    
O21   C41   1.410594 S    
O34   H22   0.990634 S    
C40   O28   1.393631 S    
O27   H15   0.989690 S    
C34   C36   1.543834 S    
C33   O25   1.397213 S    
C25   C30   1.552640 S    
C45   H25   1.105854 S    
