data_mof_unit_54703.cif
_audit_creation_date              2012-12-11T15:50:21-0500
_audit_creation_method            fapswitch 2.2
_symmetry_space_group_name_H-M    P1
_symmetry_Int_Tables_number       1
_space_group_crystal_system       triclinic
_cell_length_a                    18.940868
_cell_length_b                    10.906248
_cell_length_c                    18.770895
_cell_angle_alpha                 90.1788
_cell_angle_beta                  91.482083
_cell_angle_gamma                 89.911021
_cell_volume                      3876.2549049

loop_
_atom_site_label
_atom_site_type_symbol
_atom_type_description
_atom_site_fract_x
_atom_site_fract_y
_atom_site_fract_z
_atom_type_partial_charge
C1    C     C_R   0.273978 0.039532 0.854921 0.554161
C2    C     C_R   0.726002 0.039298 0.145028 0.540623
C3    C     C_R   0.773978 0.539532 0.854921 0.554161
C4    C     C_R   0.226002 0.539298 0.145028 0.540623
C5    C     C_3   0.523192 0.725879 0.965860 -0.106014
C6    C     C_3   0.478462 0.724496 0.033080 -0.109875
C7    C     C_3   0.023192 0.225879 0.965860 -0.106014
C8    C     C_3   0.978462 0.224496 0.033080 -0.109875
C9    C     C_R   0.239991 0.573453 0.071901 0.018259
C10   C     C_R   0.759976 0.573876 0.928078 0.018733
C11   C     C_R   0.739991 0.073453 0.071901 0.018259
C12   C     C_R   0.259976 0.073876 0.928078 0.018734
C13   C     C_R   0.304621 0.551561 0.039783 0.003648
C14   C     C_R   0.695402 0.551777 0.960125 0.006494
C15   C     C_R   0.804620 0.051561 0.039783 0.003648
C16   C     C_R   0.195402 0.051777 0.960125 0.006494
C17   C     C_R   0.310870 0.562389 0.966366 0.015018
C18   C     C_R   0.689187 0.562300 0.033578 0.017521
C19   C     C_R   0.810870 0.062389 0.966366 0.015018
C20   C     C_R   0.189188 0.062300 0.033578 0.017521
C21   C     C_R   0.186959 0.612040 0.955096 -0.174780
C22   C     C_R   0.813076 0.611656 0.044959 -0.175705
C23   C     C_R   0.686959 0.112040 0.955096 -0.174780
C24   C     C_R   0.313076 0.111656 0.044959 -0.175705
C25   C     C_R   0.181780 0.608460 0.028391 -0.173401
C26   C     C_R   0.818185 0.608593 0.971672 -0.174422
C27   C     C_R   0.681780 0.108460 0.028391 -0.173401
C28   C     C_R   0.318185 0.108593 0.971672 -0.174422
C29   C     C_3   0.350196 0.440197 0.043214 -0.268506
C30   C     C_3   0.650074 0.440308 0.956231 -0.268798
C31   C     C_3   0.850196 0.940196 0.043214 -0.268507
C32   C     C_3   0.150074 0.940308 0.956231 -0.268798
C33   C     C_3   0.357664 0.452105 0.963390 -0.276963
C34   C     C_3   0.642606 0.451994 0.036093 -0.278148
C35   C     C_3   0.857664 0.952105 0.963390 -0.276964
C36   C     C_3   0.142605 0.951994 0.036093 -0.278148
C37   C     C_R   0.251517 0.588576 0.922861 0.018236
C38   C     C_R   0.748561 0.588157 0.077111 0.017692
C39   C     C_R   0.751518 0.088576 0.922861 0.018236
C40   C     C_R   0.248561 0.088157 0.077111 0.017692
C41   C     C_R   0.492119 0.827682 0.419674 0.006374
C42   C     C_R   0.453277 0.827247 0.563618 0.030997
C43   C     C_R   0.992117 0.327681 0.419673 0.006371
C44   C     C_R   0.953271 0.327246 0.563616 0.030980
C45   C     C_R   0.443436 0.817975 0.863081 0.560965
C46   C     C_R   0.556801 0.817574 0.136951 0.552525
C47   C     C_R   0.943436 0.317975 0.863081 0.560966
C48   C     C_R   0.056801 0.317574 0.136951 0.552525
C49   C     C_R   0.490841 0.719515 0.459301 0.045961
C50   C     C_R   0.474962 0.721349 0.529778 -0.001896
C51   C     C_R   0.990846 0.219518 0.459303 0.045968
C52   C     C_R   0.974967 0.221354 0.529779 -0.001885
C53   C     C_R   0.444369 0.934212 0.522255 -0.154158
C54   C     C_R   0.465239 0.935397 0.450494 -0.166561
C55   C     C_R   0.944356 0.434205 0.522250 -0.154161
C56   C     C_R   0.965228 0.435391 0.450490 -0.166557
C57   C     C_3   0.548299 0.627258 0.472341 0.042554
C58   C     C_3   0.532011 0.633635 0.550821 0.045261
C59   C     C_3   0.048312 0.127275 0.472345 0.042557
C60   C     C_3   0.032026 0.133656 0.550825 0.045269
C61   C     C_R   0.250877 0.610118 0.417560 0.020532
C62   C     C_R   0.749618 0.584706 0.576601 0.066250
C63   C     C_R   0.750879 0.110124 0.417559 0.020532
C64   C     C_R   0.249618 0.084705 0.576601 0.066246
C65   C     C_R   0.199533 0.676546 0.453690 0.024619
C66   C     C_R   0.778531 0.688351 0.546065 0.050309
C67   C     C_R   0.699537 0.176564 0.453686 0.024616
C68   C     C_R   0.278529 0.188351 0.546066 0.050319
C69   C     C_R   0.208409 0.703204 0.524232 -0.000031
C70   C     C_R   0.779461 0.696350 0.473837 0.030907
C71   C     C_R   0.708414 0.203223 0.524229 -0.000035
C72   C     C_R   0.279459 0.196352 0.473837 0.030906
C73   C     C_R   0.324194 0.610759 0.524205 -0.165667
C74   C     C_R   0.710117 0.512850 0.459789 -0.167304
C75   C     C_R   0.824198 0.110763 0.524205 -0.165659
C76   C     C_R   0.210119 0.012846 0.459788 -0.167292
C77   C     C_R   0.316427 0.588328 0.451112 -0.161113
C78   C     C_R   0.708819 0.504047 0.533567 -0.131827
C79   C     C_R   0.816429 0.088326 0.451112 -0.161105
C80   C     C_R   0.208821 0.004043 0.533566 -0.131831
C81   C     C_3   0.122261 0.650341 0.461599 -0.248867
C82   C     C_3   0.847615 0.754093 0.555241 -0.269592
C83   C     C_3   0.622261 0.150375 0.461594 -0.248866
C84   C     C_3   0.347613 0.254093 0.555241 -0.269592
C85   C     C_3   0.132311 0.679749 0.539553 -0.255314
C86   C     C_3   0.850249 0.756119 0.474586 -0.248352
C87   C     C_3   0.632313 0.179786 0.539548 -0.255315
C88   C     C_3   0.350247 0.256121 0.474587 -0.248353
C89   C     C_R   0.260867 0.635173 0.851301 0.553293
C90   C     C_R   0.739173 0.634999 0.148720 0.533753
C91   C     C_R   0.760867 0.135173 0.851301 0.553293
C92   C     C_R   0.239173 0.134999 0.148720 0.533753
C93   C     C_R   0.268578 0.664256 0.561531 0.014191
C94   C     C_R   0.749627 0.605939 0.429558 0.007774
C95   C     C_R   0.768582 0.164268 0.561529 0.014186
C96   C     C_R   0.249628 0.105938 0.429558 0.007771
C97   C     C_R   0.271203 0.045274 0.646122 0.566561
C98   C     C_R   0.729102 0.048821 0.352789 0.550923
C99   C     C_R   0.771204 0.545274 0.646122 0.566561
C100  C     C_R   0.229102 0.548820 0.352789 0.550924
C101  C     C_R   0.437932 0.819725 0.639328 0.563246
C102  C     C_R   0.528924 0.823487 0.352382 0.548880
C103  C     C_R   0.937931 0.319724 0.639328 0.563246
C104  C     C_R   0.028923 0.323487 0.352381 0.548874
C105  C     C_R   0.273669 0.688253 0.636786 0.543135
C106  C     C_R   0.740766 0.636840 0.356151 0.546094
C107  C     C_R   0.773670 0.188258 0.636786 0.543135
C108  C     C_R   0.240766 0.136840 0.356151 0.546091
C109  C     C_3   0.477536 0.925887 0.034546 -0.115679
C110  C     C_3   0.521828 0.927263 0.966395 -0.112700
C111  C     C_3   0.977536 0.425887 0.034546 -0.115679
C112  C     C_3   0.021828 0.427263 0.966395 -0.112700
C113  C     C_3   0.429364 0.824800 0.001745 -0.138657
C114  C     C_3   0.571150 0.826964 0.998222 -0.133450
C115  C     C_3   0.929364 0.324800 0.001745 -0.138657
C116  C     C_3   0.071150 0.326964 0.998222 -0.133450
C117  C     C_3   0.474230 0.825824 0.935080 0.054933
C118  C     C_3   0.526261 0.825233 0.064866 0.055540
C119  C     C_3   0.974230 0.325824 0.935080 0.054934
C120  C     C_3   0.026261 0.325233 0.064866 0.055540
Cr1   Cr    Cr6+3 0.229640 0.835880 0.747370 1.019270
Cr2   Cr    Cr6+3 0.770360 0.835880 0.252630 1.025064
Cr3   Cr    Cr6+3 0.729640 0.335880 0.747370 1.019273
Cr4   Cr    Cr6+3 0.270360 0.335880 0.252630 1.025070
Cr5   Cr    Cr6+3 0.387390 0.989720 0.750850 1.016649
Cr6   Cr    Cr6+3 0.612610 0.989720 0.249150 1.019675
Cr7   Cr    Cr6+3 0.887390 0.489720 0.750850 1.016650
Cr8   Cr    Cr6+3 0.112610 0.489720 0.249150 1.019674
Cr9   Cr    Cr6+3 0.385770 0.677220 0.749340 1.023951
Cr10  Cr    Cr6+3 0.614230 0.677220 0.250660 1.052511
Cr11  Cr    Cr6+3 0.885770 0.177220 0.749340 1.023945
Cr12  Cr    Cr6+3 0.114230 0.177220 0.250660 1.052511
H1    H     H_    0.370725 0.824199 0.001640 0.114458
H2    H     H_    0.629788 0.827907 0.998355 0.116794
H3    H     H_    0.870725 0.324199 0.001640 0.114458
H4    H     H_    0.129788 0.327907 0.998355 0.116794
H5    H     H_    0.425299 0.017127 0.546246 0.126743
H6    H     H_    0.463922 0.020295 0.420813 0.127331
H7    H     H_    0.925281 0.517115 0.546239 0.126744
H8    H     H_    0.963906 0.520285 0.420808 0.127329
H9    H     H_    0.100929 0.163513 0.458777 0.178842
H10   H     H_    0.011450 0.047145 0.573497 0.164067
H11   H     H_    0.600919 0.663487 0.458777 0.178847
H12   H     H_    0.511427 0.547129 0.573488 0.164061
H13   H     H_    0.371190 0.578961 0.552214 0.139522
H14   H     H_    0.680788 0.448106 0.426783 0.174672
H15   H     H_    0.871194 0.078960 0.552215 0.139523
H16   H     H_    0.180793 0.948099 0.426781 0.174680
H17   H     H_    0.358595 0.544424 0.422799 0.166039
H18   H     H_    0.679800 0.430143 0.556811 0.161095
H19   H     H_    0.858596 0.044415 0.422801 0.166027
H20   H     H_    0.179804 0.930136 0.556809 0.161097
H21   H     H_    0.108428 0.552463 0.452073 0.165594
H22   H     H_    0.891099 0.700513 0.580400 0.153980
H23   H     H_    0.608422 0.052496 0.452070 0.165593
H24   H     H_    0.391096 0.200512 0.580400 0.153978
H25   H     H_    0.088209 0.717435 0.432497 0.189415
H26   H     H_    0.840601 0.846844 0.578763 0.158441
H27   H     H_    0.588213 0.217475 0.432490 0.189421
H28   H     H_    0.340599 0.346843 0.578764 0.158444
H29   H     H_    0.103405 0.763565 0.555816 0.156021
H30   H     H_    0.848104 0.848940 0.451776 0.176249
H31   H     H_    0.603414 0.263611 0.555809 0.156017
H32   H     H_    0.348102 0.348942 0.451777 0.176257
H33   H     H_    0.124575 0.598657 0.574308 0.186040
H34   H     H_    0.891888 0.695841 0.452882 0.145950
H35   H     H_    0.624570 0.098696 0.574306 0.186030
H36   H     H_    0.391886 0.195845 0.452882 0.145956
H37   H     H_    0.460408 0.007851 0.064611 0.116957
H38   H     H_    0.538058 0.010401 0.937245 0.118158
H39   H     H_    0.960408 0.507851 0.064611 0.116957
H40   H     H_    0.038058 0.510401 0.937245 0.118158
H41   H     H_    0.541426 0.643871 0.936627 0.133410
H42   H     H_    0.461246 0.641224 0.061387 0.130332
H43   H     H_    0.041426 0.143871 0.936627 0.133410
H44   H     H_    0.961246 0.141224 0.061387 0.130332
H45   H     H_    0.140625 0.638383 0.923727 0.133687
H46   H     H_    0.859386 0.637909 0.076410 0.132384
H47   H     H_    0.640625 0.138383 0.923727 0.133687
H48   H     H_    0.359386 0.137909 0.076410 0.132384
H49   H     H_    0.130282 0.625780 0.050172 0.144003
H50   H     H_    0.869638 0.625988 0.949936 0.143044
H51   H     H_    0.630282 0.125780 0.050172 0.144004
H52   H     H_    0.369638 0.125988 0.949936 0.143044
H53   H     H_    0.820253 0.857725 0.058697 0.172917
H54   H     H_    0.180205 0.857919 0.940419 0.171392
H55   H     H_    0.320253 0.357725 0.058697 0.172917
H56   H     H_    0.680205 0.357920 0.940419 0.171392
H57   H     H_    0.400283 0.455428 0.073955 0.128997
H58   H     H_    0.599927 0.455422 0.925585 0.129724
H59   H     H_    0.900283 0.955428 0.073955 0.128996
H60   H     H_    0.099927 0.955422 0.925585 0.129723
H61   H     H_    0.412141 0.476259 0.947821 0.137856
H62   H     H_    0.588091 0.476086 0.051787 0.138842
H63   H     H_    0.912141 0.976259 0.947821 0.137856
H64   H     H_    0.088091 0.976085 0.051787 0.138842
H65   H     H_    0.333236 0.375124 0.932620 0.148608
H66   H     H_    0.667186 0.374960 0.066520 0.146144
H67   H     H_    0.833236 0.875124 0.932620 0.148608
H68   H     H_    0.167186 0.874960 0.066520 0.146144
O1    O     O_R   0.214300 0.709080 0.827500 -0.524757
O2    O     O_R   0.785700 0.709080 0.172500 -0.531805
O3    O     O_R   0.714300 0.209080 0.827500 -0.524757
O4    O     O_R   0.285700 0.209080 0.172500 -0.531804
O5    O     O_R   0.445900 0.919370 0.676500 -0.478887
O6    O     O_R   0.554100 0.919370 0.323500 -0.507155
O7    O     O_R   0.945900 0.419370 0.676500 -0.478878
O8    O     O_R   0.054100 0.419370 0.323500 -0.507156
O9    O     O_R   0.456660 0.717710 0.669820 -0.478140
O10   O     O_R   0.543340 0.717710 0.330180 -0.473590
O11   O     O_R   0.956660 0.217710 0.669820 -0.478152
O12   O     O_R   0.043340 0.217710 0.330180 -0.473590
O13   O     O_R   0.320590 0.625770 0.672930 -0.517551
O14   O     O_R   0.679410 0.625770 0.327070 -0.488907
O15   O     O_R   0.820590 0.125770 0.672930 -0.517551
O16   O     O_R   0.179410 0.125770 0.327070 -0.488902
O17   O     O_3   0.334270 0.834280 0.749190 -0.317534
O18   O     O_3   0.665730 0.834280 0.250810 -0.272933
O19   O     O_3   0.834270 0.334280 0.749190 -0.317537
O20   O     O_3   0.165730 0.334280 0.250810 -0.272934
O21   O     O_R   0.236190 0.958390 0.823150 -0.494736
O22   O     O_R   0.763810 0.958390 0.176850 -0.501857
O23   O     O_R   0.736190 0.458390 0.823150 -0.494735
O24   O     O_R   0.263810 0.458390 0.176850 -0.501856
O25   O     O_R   0.332090 0.075280 0.831290 -0.530595
O26   O     O_R   0.667910 0.075280 0.168710 -0.533328
O27   O     O_R   0.832090 0.575280 0.831290 -0.530595
O28   O     O_R   0.167910 0.575280 0.168710 -0.533328
O29   O     O_R   0.446280 0.918040 0.826620 -0.491833
O30   O     O_R   0.553720 0.918040 0.173380 -0.505409
O31   O     O_R   0.946280 0.418040 0.826620 -0.491833
O32   O     O_R   0.053720 0.418040 0.173380 -0.505409
O33   O     O_R   0.457080 0.716270 0.831760 -0.505825
O34   O     O_R   0.542920 0.716270 0.168240 -0.517385
O35   O     O_R   0.957080 0.216270 0.831760 -0.505827
O36   O     O_R   0.042920 0.216270 0.168240 -0.517386
O37   O     O_R   0.320980 0.624440 0.823040 -0.505289
O38   O     O_R   0.679020 0.624440 0.176960 -0.509910
O39   O     O_R   0.820980 0.124440 0.823040 -0.505289
O40   O     O_R   0.179020 0.124440 0.176960 -0.509910
O41   O     O_R   0.213880 0.710510 0.665560 -0.506128
O42   O     O_R   0.786120 0.710510 0.334440 -0.514505
O43   O     O_R   0.713880 0.210510 0.665560 -0.506127
O44   O     O_R   0.286120 0.210510 0.334440 -0.514502
O45   O     O_R   0.235800 0.959720 0.673040 -0.510896
O46   O     O_R   0.764200 0.959720 0.326960 -0.498805
O47   O     O_R   0.735800 0.459720 0.673040 -0.510891
O48   O     O_R   0.264200 0.459720 0.326960 -0.498803
O49   O     O_R   0.331670 0.076720 0.669350 -0.540463
O50   O     O_R   0.668330 0.076720 0.330650 -0.517852
O51   O     O_R   0.831670 0.576720 0.669350 -0.540466
O52   O     O_R   0.168330 0.576720 0.330650 -0.517852
Br1   Br    Br    0.522818 0.470434 0.429590 -0.636513
Br2   Br    Br    0.604929 0.715764 0.608522 -0.520439
Br3   Br    Br    0.022836 0.970441 0.429601 -0.636500
Br4   Br    Br    0.104940 0.215813 0.608519 -0.520448

loop_
_geom_bond_atom_site_label_1
_geom_bond_atom_site_label_2
_ccdc_geom_bond_type
Cr12  O40   S    
C87   H31   S    
C55   C56   A    
Cr4   O20   S    
C67   C83   S    
C29   C33   S    
C5    C114  S    
Cr1   O21   S    
C85   H29   S    
C14   C18   A    
C89   O1    A    
C111  C112  S    
Cr12  O12   S    
C73   C93   A    
C22   H46   S    
C29   H57   S    
C115  H3    S    
Cr3   O43   S    
C28   H52   S    
C84   H28   S    
Cr7   O19   S    
C7    C8    S    
C48   C120  S    
C63   C79   A    
C53   C54   A    
C15   C19   A    
C108  O16   A    
C8    C120  S    
C33   H65   S    
Cr8   O52   S    
C75   C79   A    
C17   C33   S    
C12   C28   A    
C53   H5    S    
C32   C36   S    
C13   C29   S    
C16   C20   A    
Cr6   O30   S    
C74   H14   S    
C45   O33   A    
C98   O46   A    
C63   C98   S    
Cr5   O29   S    
C42   C53   A    
C97   O45   A    
C5    C6    S    
C82   H26   S    
C72   C96   A    
C23   C39   A    
C83   H23   S    
C103  O7    A    
C45   C117  S    
C22   C38   A    
C31   H59   S    
Cr12  O16   S    
C60   Br4   S    
C91   O3    A    
C55   H7    S    
C41   C102  S    
C46   C118  S    
C1    O21   A    
Cr1   O17   S    
C105  O41   A    
Cr10  O18   S    
C9    C13   A    
C43   C104  S    
Cr9   O17   S    
C83   H27   S    
C52   C60   S    
C8    C115  S    
C93   C105  S    
C64   C80   A    
Cr5   O5    S    
C11   C15   A    
C41   C49   A    
Cr10  O38   S    
C24   C40   A    
C12   C16   A    
Cr11  O39   S    
C88   H36   S    
C7    H43   S    
C24   H48   S    
C58   Br2   S    
C86   H30   S    
C104  O8    A    
C23   C27   A    
Cr4   O44   S    
C24   C28   A    
C4    C9    S    
Cr8   O20   S    
C23   H47   S    
C92   O4    A    
C2    O22   A    
C109  C113  S    
Cr2   O46   S    
C60   H10   S    
C34   H62   S    
C47   C119  S    
C75   C95   A    
Cr2   O22   S    
C33   H61   S    
C59   C60   S    
Cr8   O32   S    
C113  H1    S    
Cr7   O27   S    
C21   H45   S    
C46   O30   A    
C112  C119  S    
C107  O43   A    
Cr8   O8    S    
Cr6   O26   S    
C1    C12   S    
C45   O29   A    
C106  O42   A    
C2    O26   A    
Cr5   O25   S    
C2    C11   S    
C101  O5    A    
C110  C117  S    
C39   C91   S    
C72   C88   S    
C44   C103  S    
C25   H49   S    
C109  C118  S    
C47   O35   A    
C106  O14   A    
C63   C67   A    
C81   H25   S    
C90   O38   A    
C35   H67   S    
C51   C52   A    
C68   C84   S    
C7    C119  S    
Cr11  O19   S    
Cr7   O7    S    
C99   O51   A    
C21   C25   A    
C10   C14   A    
C3    O27   A    
C103  O11   A    
C37   C89   S    
C98   O50   A    
C30   C34   S    
C102  O10   A    
C97   O49   A    
C6    H42   S    
C101  O9    A    
C14   C30   S    
C111  C120  S    
C59   Br3   S    
Cr3   O19   S    
Cr10  O34   S    
C116  C120  S    
C5    C117  S    
C68   C72   A    
Cr12  O20   S    
C20   C36   S    
C7    C116  S    
Cr4   O48   S    
Cr1   O41   S    
C31   H53   S    
C36   H64   S    
C6    C113  S    
C73   H13   S    
C100  O48   A    
Cr9   O9    S    
C89   O37   A    
C66   C82   S    
C102  O6    A    
C38   C90   S    
C34   H66   S    
C44   C52   A    
C65   C81   S    
C56   H8    S    
C11   C27   A    
C88   H32   S    
Cr8   O28   S    
C108  O44   A    
Cr7   O31   S    
C10   C26   A    
C114  H2    S    
C50   C58   S    
C21   C37   A    
C17   C37   A    
C40   C92   S    
C92   O40   A    
C112  H40   S    
C18   C34   S    
C75   H15   S    
C114  C118  S    
Cr11  O35   S    
C95   C107  S    
C42   C50   A    
Cr9   O13   S    
C71   C87   S    
C110  H38   S    
C47   O31   A    
C64   C97   S    
Cr4   O4    S    
C115  C119  S    
C46   O34   A    
Cr11  O11   S    
C31   C35   S    
Cr10  O10   S    
C61   C100  S    
C51   C59   S    
C20   C40   A    
C104  O12   A    
C77   H17   S    
C48   O32   A    
C70   C86   S    
C42   C101  S    
C64   C68   A    
C112  C116  S    
C69   C85   S    
C81   H21   S    
C78   H18   S    
Cr7   O51   S    
C79   H19   S    
C109  H37   S    
C113  C117  S    
C1    O25   A    
Cr11  O15   S    
C61   C77   A    
C110  C114  S    
C94   C106  S    
C3    O23   A    
Cr2   O18   S    
Cr9   O37   S    
C48   O36   A    
C5    H41   S    
C62   C78   A    
Cr3   O3    S    
C76   C80   A    
Cr2   O42   S    
C100  O52   A    
C107  O15   A    
C83   C87   S    
C9    C25   A    
C49   C57   S    
C111  C115  S    
C8    H44   S    
C4    O24   A    
C15   C31   S    
C36   H68   S    
C116  H4    S    
C32   H54   S    
C16   C32   S    
C87   H35   S    
C105  O13   A    
C66   C70   A    
C69   C93   A    
C13   C17   A    
Cr6   O50   S    
C85   H33   S    
Cr2   O2    S    
Cr5   O49   S    
C18   C38   A    
Cr1   O1    S    
C3    C10   S    
C82   C86   S    
C109  C110  S    
C76   C96   A    
C35   H63   S    
C84   H24   S    
C44   C55   A    
C43   C51   A    
C57   C58   S    
C54   H6    S    
C84   C88   S    
Cr3   O23   S    
C29   H55   S    
Cr6   O6    S    
C65   C69   A    
Cr9   O33   S    
C30   H58   S    
Cr1   O45   S    
C26   H50   S    
Cr12  O36   S    
Cr10  O14   S    
C67   C71   A    
C4    O28   A    
C61   C65   A    
C57   Br1   S    
C59   H9    S    
C27   H51   S    
C41   C54   A    
Cr3   O47   S    
C62   C66   A    
Cr5   O17   S    
C62   C99   S    
C82   H22   S    
C58   H12   S    
C43   C56   A    
C71   C95   A    
C86   H34   S    
C76   H16   S    
C19   C39   A    
C49   C50   A    
C22   C26   A    
C91   O39   A    
C74   C94   A    
C70   C94   A    
Cr4   O24   S    
C73   C77   A    
C96   C108  S    
C19   C35   S    
C32   H60   S    
C80   H20   S    
C99   O47   A    
C6    C118  S    
C81   C85   S    
Cr6   O18   S    
C57   H11   S    
C30   H56   S    
C90   O2    A    
C111  H39   S    
C74   C78   A    
