data_mof_unit_8823.cif
_audit_creation_date              2013-03-05T15:48:31-0500
_audit_creation_method            fapswitch 2.2
_symmetry_space_group_name_H-M    P1
_symmetry_Int_Tables_number       1
_space_group_crystal_system       triclinic
_cell_length_a                    14.336493
_cell_length_b                    13.03808
_cell_length_c                    11.762972
_cell_angle_alpha                 99.823728
_cell_angle_beta                  94.690998
_cell_angle_gamma                 90.569695
_cell_volume                      2158.6027742

loop_
_atom_site_label
_atom_site_type_symbol
_atom_site_description
_atom_site_fract_x
_atom_site_fract_y
_atom_site_fract_z
_atom_type_partial_charge
O1    O     O_R   0.504510 0.354460 0.582000 -0.542155
O2    O     O_R   0.495490 0.645540 0.418000 -0.542156
O3    O     O_R   0.493770 0.341410 0.386200 -0.561917
O4    O     O_R   0.506230 0.658590 0.613800 -0.561916
C1    C     C_R   0.500816 0.299583 0.478867 0.910593
C2    C     C_R   0.499184 0.700417 0.521133 0.910583
O5    O     O_R   0.381420 0.506530 0.597920 -0.540481
O6    O     O_R   0.618580 0.493470 0.402080 -0.540485
O7    O     O_R   0.370680 0.493470 0.402120 -0.589348
O8    O     O_R   0.629320 0.506530 0.597880 -0.589348
C3    C     C_R   0.331071 0.499781 0.499348 0.861238
C4    C     C_R   0.668928 0.500219 0.500652 0.861233
Cu1   Cu    Cu3+1 0.506360 0.507730 0.615930 1.020317
Cu2   Cu    Cu3+1 0.493640 0.492270 0.384070 1.020317
C5    C     C_1   0.228697 0.499991 0.498531 -0.118341
C6    C     C_1   0.771303 0.500009 0.501469 -0.118343
C7    C     C_1   0.143296 0.500081 0.498890 -0.006848
C8    C     C_1   0.856704 0.499919 0.501110 -0.006848
C9    C     C_1   0.042692 0.500029 0.499640 -0.004457
C10   C     C_1   0.957308 0.499971 0.500360 -0.004457
C11   C     C_R   0.492923 0.813282 0.532042 -0.284643
C12   C     C_R   0.507075 0.186718 0.467957 -0.284641
C13   C     C_R   0.568607 0.023100 0.379053 -0.183299
C14   C     C_R   0.431390 0.976900 0.620946 -0.183301
C15   C     C_R   0.560766 0.130022 0.384263 0.249799
C16   C     C_R   0.439232 0.869978 0.615736 0.249803
C17   C     C_R   0.463233 0.135744 0.546572 0.301448
C18   C     C_R   0.536764 0.864256 0.453426 0.301449
C19   C     C_R   0.473762 0.028436 0.542472 -0.060100
C20   C     C_R   0.526235 0.971564 0.457527 -0.060096
H1    H     H_    0.611481 0.981483 0.315665 0.215230
H2    H     H_    0.388516 0.018517 0.684334 0.215231
N1    N     N_R   0.515930 0.519350 0.790130 -0.203569
N2    N     N_R   0.484070 0.480650 0.209870 -0.203570
C21   C     C_R   0.401139 0.414656 0.020556 -0.127846
C22   C     C_R   0.598860 0.585345 0.979444 -0.127847
C23   C     C_R   0.413866 0.418862 0.142566 0.143581
C24   C     C_R   0.586133 0.581138 0.857434 0.143581
C25   C     C_R   0.544078 0.535088 0.157092 0.085839
C26   C     C_R   0.455922 0.464912 0.842908 0.085834
C27   C     C_R   0.536367 0.530128 0.034476 -0.010451
C28   C     C_R   0.463633 0.469872 0.965524 -0.010452
H3    H     H_    0.402182 0.417070 0.788455 0.192483
H4    H     H_    0.597818 0.582929 0.211544 0.192480
N3    N     N_R   0.590119 0.806469 0.367368 0.109622
O9    O     O_R   0.667194 0.762648 0.397777 -0.398184
O10   O     O_R   0.555903 0.788499 0.259853 -0.397641
N4    N     N_R   0.409876 0.193531 0.632629 0.109622
O11   O     O_R   0.444088 0.211496 0.740144 -0.397643
O12   O     O_R   0.332809 0.237364 0.602216 -0.398184
N5    N     N_R   0.387082 0.819794 0.690980 0.126599
O13   O     O_R   0.381121 0.864563 0.797747 -0.376586
O14   O     O_R   0.331863 0.740420 0.648056 -0.373742
N6    N     N_R   0.612917 0.180205 0.309020 0.126599
O15   O     O_R   0.618879 0.135437 0.202253 -0.376587
O16   O     O_R   0.668137 0.259579 0.351945 -0.373742
C29   C     C_R   0.651707 0.645002 0.805787 0.160240
C30   C     C_R   0.629576 0.747663 0.794331 -0.146976
C31   C     C_R   0.694707 0.811821 0.756231 -0.143833
C32   C     C_R   0.784000 0.775636 0.734444 -0.083663
C33   C     C_R   0.808565 0.675773 0.752155 -0.149610
C34   C     C_R   0.743094 0.610961 0.788801 -0.137713
H5    H     H_    0.561851 0.777885 0.815148 0.177186
H6    H     H_    0.676292 0.890002 0.745019 0.152318
H7    H     H_    0.834618 0.825541 0.705614 0.142359
H8    H     H_    0.878436 0.648656 0.737807 0.142382
H9    H     H_    0.763326 0.534263 0.803854 0.128024
C35   C     C_R   0.348293 0.354998 0.194213 0.160239
C36   C     C_R   0.256905 0.389039 0.211199 -0.137714
C37   C     C_R   0.191435 0.324228 0.247845 -0.149610
C38   C     C_R   0.216000 0.224365 0.265556 -0.083662
C39   C     C_R   0.305292 0.188179 0.243770 -0.143833
C40   C     C_R   0.370424 0.252338 0.205669 -0.146976
H10   H     H_    0.236674 0.465738 0.196146 0.128025
H11   H     H_    0.121564 0.351345 0.262193 0.142382
H12   H     H_    0.165381 0.174459 0.294386 0.142358
H13   H     H_    0.323708 0.109998 0.254982 0.152317
H14   H     H_    0.438148 0.222115 0.184853 0.177186
C41   C     C_R   0.320215 0.355060 0.951871 0.070872
C42   C     C_R   0.319051 0.245755 0.929449 -0.028662
C43   C     C_R   0.242855 0.190487 0.864656 -0.069432
C44   C     C_R   0.167432 0.243940 0.821902 -0.078843
C45   C     C_R   0.167998 0.352749 0.844115 -0.107520
C46   C     C_R   0.243985 0.408268 0.909129 -0.167148
H15   H     H_    0.377590 0.203514 0.960866 0.148357
H16   H     H_    0.242554 0.106242 0.847036 0.146626
H17   H     H_    0.108624 0.201064 0.771435 0.130264
H18   H     H_    0.109580 0.394070 0.810904 0.133889
H19   H     H_    0.243728 0.492563 0.925957 0.143751
C47   C     C_R   0.679783 0.644943 0.048129 0.070873
C48   C     C_R   0.756014 0.591737 0.090871 -0.167149
C49   C     C_R   0.832001 0.647258 0.155885 -0.107521
C50   C     C_R   0.832564 0.756067 0.178098 -0.078837
C51   C     C_R   0.757140 0.809518 0.135345 -0.069429
C52   C     C_R   0.680944 0.754247 0.070552 -0.028663
H20   H     H_    0.756274 0.507442 0.074042 0.143750
H21   H     H_    0.890420 0.605938 0.189095 0.133889
H22   H     H_    0.891371 0.798945 0.228566 0.130264
H23   H     H_    0.757438 0.893762 0.152966 0.146627
H24   H     H_    0.622405 0.796487 0.039135 0.148358

loop_
_geom_bond_atom_site_label_1
_geom_bond_atom_site_label_2
_geom_bond_distance
_ccdc_geom_bond_type
C17   N4    1.433665 S    
C11   C16   1.412468 A    
C50   C51   1.397669 A    
C17   C19   1.401758 A    
N2    C23   1.387321 A    
C27   C28   1.410793 A    
C9    C10   1.224819 T    
C43   C44   1.397668 A    
C47   C48   1.404505 A    
C29   C34   1.406265 A    
C25   C27   1.427818 A    
N3    O9    1.301156 A    
O5    C3    1.303934 A    
C31   H6    1.082436 S    
C19   C20   1.412586 A    
C34   H9    1.083180 S    
O1    C1    1.295766 A    
C21   C23   1.423449 A    
C14   C16   1.391005 A    
C38   H12   1.082209 S    
C44   H17   1.082247 S    
C23   C35   1.482115 S    
O4    Cu1   1.971370 S    
C21   C28   1.407510 A    
C14   C19   1.402793 A    
C39   H13   1.082436 S    
C48   H20   1.083080 S    
C3    C5    1.466973 S    
C33   H8    1.082235 S    
C26   H3    1.079961 S    
C1    C12   1.459461 S    
C4    C6    1.466973 S    
C35   C36   1.406266 A    
C12   C15   1.412467 A    
C40   H14   1.082361 S    
C37   C38   1.397269 A    
C43   H16   1.082362 S    
C33   C34   1.398425 A    
C26   C28   1.427818 A    
C45   H18   1.082388 S    
C31   C32   1.396935 A    
Cu1   Cu2   2.691228 S    
C22   C27   1.407511 A    
O2    C2    1.295765 A    
C49   H21   1.082386 S    
N3    O10   1.300035 A    
N6    O16   1.301028 A    
C18   N3    1.433663 S    
N1    C26   1.361947 A    
N2    C25   1.361946 A    
C13   C20   1.402793 A    
C36   H10   1.083180 S    
C15   N6    1.437562 S    
O4    C2    1.296818 A    
C48   C49   1.398125 A    
C52   H24   1.082645 S    
C42   C43   1.397938 A    
C30   C31   1.397620 A    
C2    C11   1.459462 S    
N5    O13   1.301414 A    
C32   C33   1.397270 A    
N5    O14   1.301030 A    
C13   H1    1.082472 S    
O7    Cu2   1.792617 S    
C14   H2    1.082470 S    
Cu1   N1    2.021953 S    
C42   H15   1.082645 S    
C24   C29   1.482115 S    
C45   C46   1.398124 A    
O5    Cu1   1.785992 S    
O6    C4    1.303933 A    
C51   C52   1.397939 A    
N4    O12   1.301150 A    
O7    C3    1.308540 A    
O3    Cu2   1.971371 S    
O8    C4    1.308542 A    
N4    O11   1.300034 A    
C11   C18   1.410109 A    
C32   H7    1.082209 S    
C12   C17   1.410110 A    
O1    Cu1   1.969376 S    
C46   H19   1.083080 S    
C22   C47   1.488977 S    
C30   H5    1.082360 S    
C5    C7    1.224714 T    
N6    O15   1.301414 A    
O6    Cu2   1.785995 S    
C39   C40   1.397618 A    
O3    C1    1.296816 A    
O8    Cu1   1.792619 S    
C47   C52   1.404048 A    
Cu2   N2    2.021955 S    
C25   H4    1.079962 S    
N1    C24   1.387322 A    
C22   C24   1.423450 A    
C35   C40   1.404772 A    
C18   C20   1.401756 A    
C16   N5    1.437561 S    
C29   C30   1.404772 A    
C41   C46   1.404505 A    
C51   H23   1.082363 S    
C21   C41   1.488977 S    
C49   C50   1.397812 A    
C7    C9    1.443049 S    
C8    C10   1.443050 S    
C13   C15   1.391003 A    
C36   C37   1.398425 A    
O2    Cu2   1.969376 S    
C41   C42   1.404048 A    
C38   C39   1.396936 A    
C6    C8    1.224714 T    
C44   C45   1.397811 A    
C37   H11   1.082234 S    
C50   H22   1.082247 S    
