data_mof_unit_41601.cif
_audit_creation_date              2012-12-10T20:31:09-0500
_audit_creation_method            fapswitch 2.2
_symmetry_space_group_name_H-M    P1
_symmetry_Int_Tables_number       1
_space_group_crystal_system       triclinic
_cell_length_a                    15.017585
_cell_length_b                    10.651977
_cell_length_c                    9.846334
_cell_angle_alpha                 89.890956
_cell_angle_beta                  90.006758
_cell_angle_gamma                 90.205516
_cell_volume                      1575.0752209

loop_
_atom_site_label
_atom_site_type_symbol
_atom_type_description
_atom_site_fract_x
_atom_site_fract_y
_atom_site_fract_z
_atom_type_partial_charge
C1    C     C_R   0.507285 0.260308 0.500024 0.873154
C2    C     C_R   0.184566 0.501671 0.623518 -0.259749
C3    C     C_R   0.230480 0.503561 0.499975 -0.080244
C4    C     C_R   0.326494 0.500915 0.499999 0.902231
C5    C     C_R   0.184600 0.508309 0.376453 -0.254593
C6    C     C_R   0.511357 0.063858 0.622503 0.159108
C7    C     C_R   0.527011 0.129200 0.502077 -0.218174
C8    C     C_R   0.560286 0.063870 0.387263 -0.031364
C9    C     C_R   0.553479 0.933040 0.387568 -0.195963
C10   C     C_R   0.518728 0.871424 0.501794 -0.160059
C11   C     C_R   0.507849 0.936356 0.622480 0.138225
C12   C     C_R   0.907202 0.506862 0.375335 0.119490
C13   C     C_3   0.433785 0.931634 0.723571 -0.471055
C14   C     C_3   0.437634 0.073829 0.724086 -0.470858
C15   C     C_R   0.461311 0.403423 0.071611 0.241106
C16   C     C_R   0.502788 0.740181 0.499982 0.895921
C17   C     C_R   0.545358 0.588892 0.071865 -0.129654
C18   C     C_R   0.545392 0.588878 0.927751 -0.134281
C19   C     C_R   0.460845 0.403816 0.928828 0.236149
C20   C     C_3   0.364826 0.367929 0.924562 -0.528610
C21   C     C_3   0.365915 0.365593 0.078423 -0.506505
C22   C     C_R   0.673442 0.500254 0.499981 0.879055
C23   C     C_R   0.953626 0.498273 0.747925 -0.212238
C24   C     C_R   0.815091 0.505324 0.376259 -0.259475
C25   C     C_R   0.769324 0.501411 0.499954 -0.074012
C26   C     C_R   0.815125 0.499228 0.623654 -0.252228
C27   C     C_R   0.907225 0.500638 0.624606 0.117041
C28   C     C_R   0.953521 0.504304 0.499975 0.060469
C29   C     C_2   0.601138 0.128038 0.268305 0.415532
C30   C     C_R   0.046141 0.499026 0.747902 -0.215810
C31   C     C_R   0.092482 0.502113 0.624552 0.120810
C32   C     C_R   0.046162 0.505080 0.499984 0.060007
C33   C     C_R   0.092490 0.508579 0.375426 0.119978
C34   C     C_R   0.046123 0.511714 0.252093 -0.215220
C35   C     C_R   0.953596 0.510775 0.252048 -0.211947
H1    H     H_    0.779243 0.507294 0.280640 0.163755
H2    H     H_    0.353468 0.274096 0.878975 0.203282
H3    H     H_    0.323315 0.439131 0.124063 0.210536
H4    H     H_    0.779310 0.496299 0.719271 0.165198
H5    H     H_    0.357189 0.269937 0.121851 0.211479
H6    H     H_    0.918434 0.495598 0.844006 0.143290
H7    H     H_    0.081389 0.496829 0.843959 0.141909
H8    H     H_    0.220167 0.499622 0.718972 0.152863
H9    H     H_    0.220249 0.511805 0.281031 0.152668
H10   H     H_    0.081358 0.514438 0.156044 0.141835
H11   H     H_    0.918389 0.512891 0.155963 0.143062
H12   H     H_    0.572811 0.879956 0.298559 0.197020
H13   H     H_    0.627090 0.222785 0.277146 0.088651
H14   H     H_    0.370922 0.893297 0.680294 0.200612
H15   H     H_    0.454993 0.888880 0.821415 0.216346
H16   H     H_    0.376792 0.118421 0.681644 0.197247
H17   H     H_    0.461399 0.112842 0.822297 0.218675
H18   H     H_    0.580542 0.661978 0.126203 0.153925
H19   H     H_    0.580604 0.661951 0.873141 0.155454
H20   H     H_    0.322502 0.443957 0.882931 0.210989
N1    N     N_R   0.499390 0.499140 0.142800 -0.116891
N2    N     N_R   0.499390 0.499180 0.857150 -0.112751
O1    O     O_R   0.500010 0.316790 0.614690 -0.604965
O2    O     O_R   0.500000 0.316760 0.385350 -0.635007
O3    O     O_R   0.367850 0.499990 0.614680 -0.625461
O4    O     O_R   0.367840 0.499950 0.385340 -0.621692
O5    O     O_R   0.500000 0.683240 0.614650 -0.618839
O6    O     O_R   0.499990 0.683210 0.385310 -0.624153
O7    O     O_R   0.632160 0.500050 0.614660 -0.625164
O8    O     O_R   0.632150 0.500010 0.385320 -0.637821
O9    O     O_2   0.608175 0.074547 0.159242 -0.593183
Zn1   Zn    Zn3+2 0.500010 0.500020 0.653130 0.948948
Zn2   Zn    Zn3+2 0.499990 0.499980 0.346870 0.941946

loop_
_geom_bond_atom_site_label_1
_geom_bond_atom_site_label_2
_ccdc_geom_bond_type
C2    C31   A    
O7    Zn1   S    
C22   O8    A    
C9    H12   S    
C6    C7    A    
C16   O6    A    
C23   C27   A    
O2    Zn2   S    
C6    C14   S    
C9    C10   A    
C12   C24   A    
C18   N2    A    
C31   C32   A    
C23   H6    S    
C28   C32   A    
C2    H8    S    
O8    Zn2   S    
C32   C33   A    
C4    O3    A    
C2    C3    A    
C25   C26   A    
C7    C8    A    
C34   H10   S    
C10   C16   S    
C1    O1    A    
C15   N1    A    
C12   C35   A    
C15   C19   A    
C20   H2    S    
C11   C13   S    
C17   N1    A    
C26   C27   A    
C24   H1    S    
C21   H5    S    
C16   O5    A    
O5    Zn1   S    
N2    Zn1   S    
C20   H20   S    
C13   H14   S    
C8    C29   S    
C5    H9    S    
C33   C34   A    
C17   C18   A    
C1    O2    A    
C14   H16   S    
C30   C31   A    
C14   H17   S    
C26   H4    S    
C10   C11   A    
C18   H19   S    
C29   H13   S    
C22   O7    A    
C13   H15   S    
C6    C11   A    
C23   C30   A    
C17   H18   S    
O1    Zn1   S    
C15   C21   S    
C24   C25   A    
C12   C28   A    
C29   O9    D    
C34   C35   A    
C27   C28   A    
O4    Zn2   S    
O6    Zn2   S    
C30   H7    S    
C13   C14   S    
C1    C7    S    
C20   C21   S    
N1    Zn2   S    
C35   H11   S    
C4    O4    A    
C22   C25   S    
C19   N2    A    
C21   H3    S    
C19   C20   S    
O3    Zn1   S    
C8    C9    A    
C3    C5    A    
C3    C4    S    
C5    C33   A    
