data_mof_unit_28620.cif
_audit_creation_date              2013-03-05T16:42:34-0500
_audit_creation_method            fapswitch 2.2
_symmetry_space_group_name_H-M    P1
_symmetry_Int_Tables_number       1
_space_group_crystal_system       triclinic
_cell_length_a                    11.504001
_cell_length_b                    10.695673
_cell_length_c                    10.056463
_cell_angle_alpha                 89.78781
_cell_angle_beta                  91.235913
_cell_angle_gamma                 93.077826
_cell_volume                      1235.30135785

loop_
_atom_site_label
_atom_site_type_symbol
_atom_site_description
_atom_site_fract_x
_atom_site_fract_y
_atom_site_fract_z
_atom_type_partial_charge
O1    O     O_R   0.500010 0.316790 0.614690 -0.584987
O2    O     O_R   0.500000 0.316760 0.385350 -0.638315
C1    C     C_R   0.506930 0.260939 0.500406 0.897234
O3    O     O_R   0.334450 0.500030 0.614670 -0.636610
O4    O     O_R   0.334440 0.500000 0.385330 -0.565284
C2    C     C_R   0.282494 0.500189 0.498957 0.882111
Zn1   Zn    Zn3+2 0.500010 0.500020 0.653130 0.920194
Zn2   Zn    Zn3+2 0.499990 0.499980 0.346870 0.934515
O5    O     O_R   0.500000 0.683240 0.614650 -0.659810
O6    O     O_R   0.499990 0.683210 0.385310 -0.634426
O7    O     O_R   0.665560 0.500000 0.614670 -0.612803
O8    O     O_R   0.665550 0.499970 0.385330 -0.608837
C3    C     C_R   0.489950 0.738753 0.498339 0.846258
C4    C     C_R   0.717549 0.500353 0.501263 0.893048
C5    C     C_1   0.161928 0.502027 0.497999 -0.178033
C6    C     C_1   0.059639 0.502744 0.500968 -0.017933
C7    C     C_1   0.940775 0.501936 0.503775 -0.034928
C8    C     C_1   0.838315 0.500898 0.503897 -0.214881
C9    C     C_R   0.450720 0.063484 0.602450 -0.081193
C10   C     C_R   0.507278 0.127428 0.499943 -0.107916
C11   C     C_R   0.535461 0.062152 0.383977 0.082059
C12   C     C_R   0.491899 0.937783 0.370602 0.129832
C13   C     C_R   0.467172 0.869848 0.489478 -0.170927
C14   C     C_R   0.431575 0.936328 0.599078 -0.077800
C15   C     C_3   0.441757 0.920748 0.747791 0.188482
C16   C     C_3   0.473001 0.062197 0.750018 0.320506
H1    H     H_    0.509588 0.858827 0.785552 0.086078
H2    H     H_    0.407367 0.115892 0.800886 0.135674
C17   C     C_R   0.404177 0.464545 0.064902 0.088875
N1    N     N_R   0.499240 0.499140 0.142800 -0.156604
C18   C     C_R   0.590916 0.557470 0.075032 0.160599
C19   C     C_R   0.594174 0.549961 0.931138 0.161235
N2    N     N_R   0.499240 0.499180 0.857150 -0.129568
C20   C     C_R   0.399782 0.477911 0.927744 -0.039818
C21   C     C_3   0.301880 0.379861 0.915043 -0.118857
C22   C     C_3   0.310831 0.361702 0.069533 0.548971
H3    H     H_    0.330942 0.301569 0.854197 0.172738
C23   C     C_3   0.626977 0.114323 0.287657 -0.395713
C24   C     C_3   0.742217 0.149292 0.360018 -0.865579
H4    H     H_    0.734273 0.232015 0.424646 0.253468
H5    H     H_    0.770437 0.069394 0.421453 0.252893
H6    H     H_    0.810055 0.172245 0.285887 0.241965
H7    H     H_    0.647409 0.043328 0.212646 0.195244
H8    H     H_    0.597065 0.195773 0.231020 0.235222
O9    O     O_3   0.219584 0.407806 0.145500 -0.598947
C25   C     C_3   0.126094 0.319794 0.166601 0.146289
H9    H     H_    0.142910 0.267393 0.260088 0.154518
H10   H     H_    0.110128 0.253570 0.083459 0.156780
C26   C     C_3   0.015366 0.389239 0.179976 -0.891535
H11   H     H_    0.981250 0.413672 0.079920 0.235807
H12   H     H_    0.948583 0.329572 0.231352 0.217902
H13   H     H_    0.032722 0.477176 0.236485 0.291381
C27   C     C_3   0.357973 0.233429 0.111685 -0.473314
C28   C     C_3   0.286411 0.119338 0.054974 -0.918966
H14   H     H_    0.238114 0.140355 0.961989 0.262047
H15   H     H_    0.344199 0.044321 0.029674 0.296761
H16   H     H_    0.223130 0.082282 0.128873 0.245312
H17   H     H_    0.448323 0.228366 0.075744 0.192547
H18   H     H_    0.360830 0.225861 0.221482 0.244056
C29   C     C_3   0.461843 0.886981 0.231915 -0.374422
C30   C     C_3   0.334867 0.836906 0.219354 -0.803285
H19   H     H_    0.318886 0.750187 0.278233 0.278521
H20   H     H_    0.275788 0.907824 0.254574 0.244050
H21   H     H_    0.313314 0.814868 0.113631 0.253509
H22   H     H_    0.473744 0.961966 0.156943 0.195588
H23   H     H_    0.520879 0.815544 0.201490 0.205001
O10   O     O_3   0.332349 0.899629 0.808155 -0.635709
C31   C     C_3   0.281981 0.779950 0.777677 0.171827
H24   H     H_    0.333463 0.706468 0.825324 0.157071
H25   H     H_    0.275532 0.764037 0.668443 0.151856
C32   C     C_3   0.158596 0.771245 0.830495 -0.881791
H26   H     H_    0.111801 0.855148 0.799481 0.269247
H27   H     H_    0.109153 0.687525 0.789989 0.205439
H28   H     H_    0.161040 0.765590 0.940777 0.250358
O11   O     O_3   0.587657 0.105154 0.791795 -0.609139
C33   C     C_3   0.678450 0.030846 0.750406 0.100467
H29   H     H_    0.663510 0.990892 0.649359 0.136094
H30   H     H_    0.689949 0.953588 0.822891 0.124369
C34   C     C_3   0.791239 0.111885 0.748390 -0.830317
H31   H     H_    0.811829 0.150662 0.849010 0.254986
H32   H     H_    0.863866 0.054969 0.717364 0.204502
H33   H     H_    0.782505 0.190509 0.677014 0.254586
C35   C     C_3   0.679584 0.644778 0.149029 -0.354409
C36   C     C_3   0.800542 0.594087 0.169362 -0.835240
H34   H     H_    0.794358 0.490615 0.179370 0.281369
H35   H     H_    0.859469 0.623056 0.087992 0.243420
H36   H     H_    0.842021 0.634824 0.261169 0.246332
H37   H     H_    0.686715 0.737796 0.099763 0.136796
H38   H     H_    0.648694 0.668657 0.246367 0.258732
C37   C     C_3   0.703003 0.598609 0.862327 -0.315247
C38   C     C_3   0.788620 0.493930 0.848861 -0.785489
H39   H     H_    0.822362 0.464292 0.946641 0.230185
H40   H     H_    0.746292 0.407828 0.804472 0.287565
H41   H     H_    0.863476 0.527572 0.788251 0.234319
H42   H     H_    0.679859 0.646321 0.769086 0.221525
H43   H     H_    0.749267 0.677957 0.913520 0.159242
C39   C     C_3   0.187061 0.433059 0.862391 -0.336036
C40   C     C_3   0.107561 0.332598 0.794132 -0.904790
H44   H     H_    0.151491 0.293917 0.707270 0.266605
H45   H     H_    0.083556 0.255036 0.862968 0.251814
H46   H     H_    0.026214 0.374330 0.758748 0.258821
H47   H     H_    0.138913 0.479350 0.940734 0.243637
H48   H     H_    0.206100 0.507460 0.789165 0.231026

loop_
_geom_bond_atom_site_label_1
_geom_bond_atom_site_label_2
_geom_bond_distance
_ccdc_geom_bond_type
C4    C8    1.388670 S    
C21   C22   1.566875 S    
C15   O10   1.416007 S    
C33   C34   1.521677 S    
C39   C40   1.528084 S    
C27   H18   1.106744 S    
C37   H42   1.100365 S    
C24   H5    1.111124 S    
C27   C28   1.539190 S    
Zn1   O7    1.951533 S    
C25   C26   1.517279 S    
C21   H3    1.109095 S    
C36   H35   1.106636 S    
C12   C29   1.524675 S    
O4    C2    1.300946 A    
O7    C4    1.299056 A    
C38   H40   1.109048 S    
C5    C6    1.178195 T    
C18   C35   1.528517 S    
C3    C13   1.442279 S    
C7    C8    1.178183 T    
C20   C21   1.500840 S    
C30   H20   1.109264 S    
C9    C16   1.500671 S    
O5    C3    1.315465 A    
C22   C27   1.556195 S    
C2    C5    1.388010 S    
C25   H9    1.111448 S    
C36   H34   1.109515 S    
C19   C37   1.510555 S    
C11   C23   1.528045 S    
C18   C19   1.450991 A    
C6    C7    1.367865 S    
C26   H12   1.107464 S    
C13   C14   1.394506 A    
C36   H36   1.109765 S    
C39   H47   1.106260 S    
C35   H37   1.109657 S    
C29   H23   1.097765 S    
C11   C12   1.401965 A    
Zn1   N2    2.051914 S    
O3    Zn1   1.935290 S    
C16   O11   1.428224 S    
C24   H6    1.108264 S    
C25   H10   1.103778 S    
C23   C24   1.527785 S    
C35   H38   1.084575 S    
C28   H15   1.102970 S    
O10   C31   1.408480 S    
C22   O9    1.421846 S    
C14   C15   1.506909 S    
O3    C2    1.296708 A    
C38   H39   1.101147 S    
C34   H32   1.110523 S    
C31   H24   1.110418 S    
C15   C16   1.536238 S    
O9    C25   1.409794 S    
C17   C20   1.386308 A    
C29   C30   1.531367 S    
O1    C1    1.303148 A    
C30   H21   1.109786 S    
O11   C33   1.416397 S    
C23   H8    1.105352 S    
C17   N1    1.366858 A    
C32   H28   1.110298 S    
C35   C36   1.529696 S    
C17   C22   1.496735 S    
Zn2   O8    1.935291 S    
C26   H13   1.107407 S    
N2    C20   1.367754 A    
C1    C10   1.428232 S    
C33   H29   1.110208 S    
C39   H48   1.098817 S    
C31   H25   1.112516 S    
O8    C4    1.298777 A    
C29   H22   1.103894 S    
C40   H44   1.110759 S    
C40   H45   1.105926 S    
O4    Zn2   1.951533 S    
C24   H4    1.108647 S    
C32   H27   1.108733 S    
Zn1   O5    1.996104 S    
C28   H14   1.105928 S    
O1    Zn1   1.998934 S    
O2    Zn2   1.996102 S    
C33   H30   1.111219 S    
O6    C3    1.294722 A    
C34   H33   1.110854 S    
C27   H17   1.111890 S    
C37   H43   1.100673 S    
C15   H1    1.110228 S    
C40   H46   1.109454 S    
C16   H2    1.107703 S    
Zn2   N1    2.052105 S    
C19   N2    1.394845 A    
C9    C10   1.389135 A    
O2    C1    1.302926 A    
C23   H7    1.109931 S    
C38   H41   1.109187 S    
C37   C38   1.538589 S    
N1    C18   1.386772 A    
C31   C32   1.524308 S    
C9    C14   1.366439 A    
C30   H19   1.107702 S    
C34   H31   1.110966 S    
C32   H26   1.111295 S    
C10   C11   1.413943 A    
Zn2   O6    1.998935 S    
C26   H11   1.107618 S    
C12   C13   1.422702 A    
C21   C39   1.548265 S    
C28   H16   1.108838 S    
