data_mof_unit_66119.cif
_audit_creation_date              2012-12-11T17:14:06-0500
_audit_creation_method            fapswitch 2.2
_symmetry_space_group_name_H-M    P1
_symmetry_Int_Tables_number       1
_space_group_crystal_system       triclinic
_cell_length_a                    8.219289
_cell_length_b                    16.43248
_cell_length_c                    17.254689
_cell_angle_alpha                 98.647309
_cell_angle_beta                  97.125845
_cell_angle_gamma                 93.259724
_cell_volume                      2279.4047356

loop_
_atom_site_label
_atom_site_type_symbol
_atom_type_description
_atom_site_fract_x
_atom_site_fract_y
_atom_site_fract_z
_atom_type_partial_charge
Ba1   Ba    Ba6+2 0.836100 0.536190 0.461710 1.648578
Ba2   Ba    Ba6+2 0.353720 0.463880 0.538300 1.669650
C1    C     C_3   0.577619 0.818118 0.250630 0.488938
C2    C     C_3   0.581684 0.736484 0.282009 0.350182
C3    C     C_3   0.431233 0.324464 0.295426 0.294692
C4    C     C_3   0.391288 0.291821 0.207199 -0.416720
C5    C     C_3   0.183825 0.303973 0.752730 0.324603
C6    C     C_3   0.223714 0.285317 0.836347 -0.369644
C7    C     C_3   0.625982 0.253515 0.713653 0.848302
C8    C     C_3   0.589933 0.168621 0.735445 -0.296240
C9    C     C_2   0.270172 0.502891 0.273161 -0.263068
C10   C     C_3   0.399756 0.495835 0.217737 -0.005111
C11   C     C_2   0.326030 0.496166 0.132837 -0.108571
C12   C     C_3   0.079803 0.704921 0.249062 0.300075
C13   C     C_2   0.162208 0.479422 0.110928 0.008899
C14   C     C_2   0.054974 0.467227 0.173477 -0.152160
C15   C     C_1   0.120510 0.468588 0.248049 0.031141
C16   C     C_R   0.890562 0.470717 0.862237 -0.131874
C17   C     C_R   0.829630 0.458447 0.781975 0.070967
C18   C     C_R   0.077244 0.527243 0.752722 0.049866
C19   C     C_R   0.142801 0.536766 0.833589 -0.128614
C20   C     C_R   0.052467 0.504794 0.888705 -0.001337
C21   C     C_2   0.091751 0.460803 0.025389 0.063806
C22   C     C_2   0.122990 0.514045 0.974359 -0.065536
C23   C     C_3   0.041728 0.720547 0.164334 -0.297837
C24   C     C_R   0.924674 0.484121 0.727397 -0.276212
C25   C     C_R   0.374139 0.730886 0.469651 -0.292433
C26   C     C_R   0.529689 0.759300 0.509365 0.041968
C27   C     C_R   0.585294 0.842640 0.515068 -0.132057
C28   C     C_R   0.483658 0.898213 0.480980 0.244508
C29   C     C_R   0.324063 0.868760 0.444181 -0.131267
C30   C     C_R   0.268830 0.785544 0.439736 -0.012887
C31   C     C_R   0.618760 0.146007 0.483477 -0.131602
C32   C     C_R   0.670819 0.229120 0.486728 -0.014225
C33   C     C_R   0.725177 0.091998 0.517097 0.245635
C34   C     C_3   0.229881 0.718525 0.634919 0.306167
C35   C     C_R   0.827697 0.259501 0.522641 -0.207247
C36   C     C_R   0.935893 0.207554 0.554754 0.080513
C37   C     C_R   0.884878 0.123840 0.552497 -0.135561
C38   C     C_3   0.247971 0.812164 0.655989 -0.381326
C39   C     C_3   0.877748 0.272317 0.256093 0.340846
C40   C     C_3   0.942532 0.253339 0.176452 -0.420263
C41   C     C_3   0.748170 0.653357 0.700272 0.309843
C42   C     C_3   0.777915 0.681354 0.789345 -0.383545
H1    H     H_    0.709558 0.730733 0.308560 0.039060
H2    H     H_    0.352092 0.831495 0.703999 0.129331
H3    H     H_    0.271967 0.840453 0.603781 0.057901
H4    H     H_    0.133055 0.834887 0.676062 0.126954
H5    H     H_    0.766913 0.307110 0.248987 0.060435
H6    H     H_    0.984615 0.310522 0.156655 0.080793
H7    H     H_    0.843334 0.221022 0.130734 0.092313
H8    H     H_    0.046818 0.213570 0.180898 0.124991
H9    H     H_    0.866505 0.639379 0.679145 0.009947
H10   H     H_    0.661636 0.597145 0.687281 0.060457
H11   H     H_    0.621869 0.869559 0.299563 -0.016882
H12   H     H_    0.865820 0.737060 0.803828 0.129601
H13   H     H_    0.829899 0.632074 0.819715 0.056855
H14   H     H_    0.660104 0.696225 0.811483 0.129340
H15   H     H_    0.499397 0.737566 0.328362 -0.037785
H16   H     H_    0.314399 0.335593 0.319583 0.060756
H17   H     H_    0.510595 0.382939 0.304236 0.024641
H18   H     H_    0.339371 0.226715 0.197870 0.141264
H19   H     H_    0.299815 0.328949 0.178894 0.068096
H20   H     H_    0.503825 0.294617 0.177976 0.093931
H21   H     H_    0.658858 0.818417 0.203794 0.030660
H22   H     H_    0.099355 0.674735 0.124285 0.080903
H23   H     H_    0.278323 0.350573 0.743165 0.089451
H24   H     H_    0.062475 0.330172 0.747115 0.078921
H25   H     H_    0.240751 0.343871 0.878917 0.082286
H26   H     H_    0.122034 0.245087 0.850607 0.129164
H27   H     H_    0.339055 0.253516 0.842285 0.143562
H28   H     H_    0.552005 0.255828 0.655757 0.025977
H29   H     H_    0.625082 0.120284 0.689609 0.088116
H30   H     H_    0.456896 0.157672 0.739101 0.091195
H31   H     H_    0.027811 0.641611 0.251344 0.061026
H32   H     H_    0.661233 0.163900 0.793435 0.112128
H33   H     H_    0.205229 0.568832 0.997271 0.070671
H34   H     H_    0.923458 0.454046 0.156655 0.097878
H35   H     H_    0.810465 0.454223 0.903533 0.083345
H36   H     H_    0.407939 0.500167 0.088525 0.068377
H37   H     H_    0.262554 0.569214 0.853464 0.095645
H38   H     H_    0.301763 0.533300 0.333993 0.069152
H39   H     H_    0.874802 0.475454 0.665444 0.076229
H40   H     H_    0.497022 0.123924 0.453718 0.113647
H41   H     H_    0.215445 0.708886 0.265221 0.047538
H42   H     H_    0.242669 0.910746 0.419651 0.099937
H43   H     H_    0.705929 0.863708 0.546764 0.112704
H44   H     H_    0.968658 0.083708 0.578387 0.086364
H45   H     H_    0.331354 0.666716 0.465851 0.071290
H46   H     H_    0.867329 0.323688 0.523773 0.073330
H47   H     H_    0.906600 0.714477 0.146020 0.103842
H48   H     H_    0.090890 0.783610 0.159312 0.179800
H49   H     H_    0.346240 0.696732 0.617145 0.010056
H50   H     H_    0.128596 0.700961 0.585251 0.060921
N1    N     N_2   0.533774 0.983615 0.483688 -0.230031
N2    N     N_2   0.677808 0.006302 0.515502 -0.232303
O1    O     O_2   0.836060 0.445790 0.307930 -0.491589
O2    O     O_3   0.682515 0.717486 0.664819 -0.633243
O3    O     O_3   0.008478 0.763846 0.299532 -0.607379
O4    O     O_2   0.353650 0.554240 0.692110 -0.462651
O5    O     O_3   0.081100 0.548460 0.594090 -0.500120
O6    O     O_3   0.584850 0.404680 0.643890 -0.482757
O7    O     O_3   0.195969 0.685432 0.701645 -0.633458
O8    O     O_3   0.621030 0.400630 0.459910 -0.467811
O9    O     O_3   0.161970 0.361060 0.604300 -0.492955
O10   O     O_2   0.277226 0.214226 0.558793 -0.501539
O11   O     O_3   0.183595 0.231154 0.698475 -0.598445
O12   O     O_3   0.108600 0.451610 0.405920 -0.454423
O13   O     O_3   0.568670 0.599440 0.540100 -0.486672
O14   O     O_2   0.371480 0.300500 0.461810 -0.440431
O15   O     O_3   0.513627 0.265365 0.331896 -0.649268
O16   O     O_2   0.494398 0.466165 0.782995 -0.513872
O17   O     O_3   0.584579 0.314466 0.772923 -0.638250
O18   O     O_3   0.604850 0.595390 0.356120 -0.488991
O19   O     O_2   0.733434 0.555536 0.223513 -0.498791
O20   O     O_3   0.001188 0.314220 0.315101 -0.617572
O21   O     O_3   0.528420 0.671097 0.220012 -0.608255
O22   O     O_2   0.818230 0.699530 0.538240 -0.467644
O23   O     O_3   0.027730 0.639010 0.395710 -0.485317
O24   O     O_2   0.928393 0.787953 0.442756 -0.490999
P1    P     P_3+3 0.011660 0.422550 0.320180 0.988154
P2    P     P_3+3 0.650900 0.688870 0.561900 0.987828
P3    P     P_3+3 0.058509 0.745400 0.396591 0.945304
P4    P     P_3+3 0.178040 0.577520 0.679830 0.979683
P5    P     P_3+3 0.140236 0.253473 0.602239 0.993235
P6    P     P_3+3 0.568813 0.577527 0.253151 0.954399
P7    P     P_3+3 0.545985 0.297219 0.434269 0.969367
P8    P     P_3+3 0.622051 0.412054 0.746428 0.970812
C43   C     C_3   0.825634 0.190608 0.281692 -0.291751
H51   H     H_    0.793304 0.201965 0.342547 0.095412
H52   H     H_    0.717313 0.159019 0.241178 0.096810
H53   H     H_    0.927867 0.149147 0.281900 0.103044
F1    F     F_    0.418849 0.829843 0.219708 -0.707909
F2    F     F_    0.791360 0.263151 0.706846 -0.788362
C44   C     C_3   0.997710 0.377328 0.999444 -0.402371
H54   H     H_    0.061382 0.330511 0.029465 0.113864
H55   H     H_    0.871478 0.379684 0.015817 0.110088
H56   H     H_    0.991529 0.354892 0.935407 0.127207

loop_
_geom_bond_atom_site_label_1
_geom_bond_atom_site_label_2
_ccdc_geom_bond_type
C38   H3    S    
Ba2   O13   S    
C24   H39   S    
C44   H56   S    
C32   C35   A    
C39   C40   S    
N1    N2    D    
C7    H28   S    
O12   P1    S    
C5    C6    S    
O17   P8    S    
C33   N2    S    
C27   H43   S    
C38   H2    S    
O10   P5    D    
C6    H25   S    
C27   C28   A    
O19   P6    D    
C35   H46   S    
C34   O7    S    
C26   C27   A    
C35   C36   A    
C16   C17   A    
O6    P8    S    
Ba1   O23   S    
C3    C4    S    
O18   P6    S    
C8    H29   S    
C26   P2    S    
O13   P2    S    
C10   P6    S    
Ba2   O6    S    
C13   C14   S    
C17   P8    S    
O2    P2    S    
Ba1   Ba2   S    
O22   P2    D    
C4    H20   S    
C17   C24   A    
Ba1   P2    S    
C34   C38   S    
O1    P1    D    
Ba1   O13   S    
C5    H24   S    
C8    H32   S    
C34   H49   S    
C41   H9    S    
Ba2   O14   S    
C42   H14   S    
C16   H35   S    
C6    H27   S    
C21   C22   D    
C41   O2    S    
C44   H54   S    
C7    C8    S    
C14   H34   S    
O24   P3    D    
C40   H7    S    
C43   H53   S    
C7    F2    S    
C13   C21   S    
C11   H36   S    
Ba2   O4    S    
C29   H42   S    
C44   H55   S    
C19   C20   A    
C30   P3    S    
C1    H21   S    
C1    H11   S    
C37   H44   S    
O7    P4    S    
C39   H5    S    
C2    H1    S    
C9    H38   S    
C36   C37   A    
C23   H47   S    
O5    P4    S    
O16   P8    D    
O20   P1    S    
C12   O3    S    
O11   P5    S    
Ba1   O1    S    
C32   P7    S    
C3    O15   S    
Ba2   O5    S    
O4    P4    D    
C4    H19   S    
C33   C37   A    
C41   C42   S    
C28   N1    S    
C42   H12   S    
C41   H10   S    
C29   C30   A    
Ba2   O8    S    
C42   H13   S    
C31   C32   A    
C3    H17   S    
C21   C44   S    
C10   C11   S    
Ba1   O8    S    
C40   H6    S    
C15   P1    S    
C19   H37   S    
Ba2   P4    S    
C11   C13   D    
O15   P7    S    
C20   C22   S    
C2    O21   S    
Ba1   O18   S    
C39   O20   S    
C1    C2    S    
Ba1   O5    S    
C36   P5    S    
O3    P3    S    
C43   H51   S    
O21   P6    S    
C38   H4    S    
C9    C15   D    
C23   H48   S    
C3    H16   S    
C25   C30   A    
C16   C20   A    
C23   H22   S    
C12   H41   S    
C9    C10   S    
O23   P3    S    
O14   P7    D    
Ba2   O9    S    
C6    H26   S    
O9    P5    S    
C7    O17   S    
C12   H31   S    
C4    H18   S    
C39   C43   S    
C8    H30   S    
C28   C29   A    
O8    P7    S    
C18   C24   A    
C2    H15   S    
Ba2   O12   S    
C31   C33   A    
C25   H45   S    
C5    O11   S    
Ba1   O22   S    
C12   C23   S    
C31   H40   S    
Ba1   P1    S    
C18   P4    S    
Ba1   O12   S    
C5    H23   S    
C34   H50   S    
C22   H33   S    
C18   C19   A    
C25   C26   A    
C1    F1    S    
C14   C15   D    
C40   H8    S    
C43   H52   S    
