data_mof_unit_24185.cif
_audit_creation_date              2013-03-05T16:42:04-0500
_audit_creation_method            fapswitch 2.2
_symmetry_space_group_name_H-M    P1
_symmetry_Int_Tables_number       1
_space_group_crystal_system       triclinic
_cell_length_a                    9.966003
_cell_length_b                    10.649855
_cell_length_c                    13.158697
_cell_angle_alpha                 91.881263
_cell_angle_beta                  70.102961
_cell_angle_gamma                 90.655664
_cell_volume                      1312.53987958

loop_
_atom_site_label
_atom_site_type_symbol
_atom_site_description
_atom_site_fract_x
_atom_site_fract_y
_atom_site_fract_z
_atom_type_partial_charge
O1    O     O_R   0.385310 0.683210 0.499990 -0.588975
O2    O     O_R   0.614650 0.683240 0.500000 -0.660115
C1    C     C_R   0.506362 0.738993 0.488612 0.851719
O3    O     O_R   0.328390 0.499940 0.653610 -0.607321
O4    O     O_R   0.557730 0.499980 0.653620 -0.638774
C2    C     C_R   0.420588 0.502579 0.703295 0.910076
Zn1   Zn    Zn3+2 0.346870 0.499980 0.499990 1.077430
Zn2   Zn    Zn3+2 0.653130 0.500020 0.500010 0.994863
O5    O     O_R   0.385350 0.316760 0.500000 -0.588921
O6    O     O_R   0.614690 0.316790 0.500010 -0.608315
O7    O     O_R   0.442270 0.500020 0.346380 -0.516659
O8    O     O_R   0.671610 0.500060 0.346390 -0.597765
C3    C     C_R   0.501490 0.259792 0.496034 0.989524
C4    C     C_R   0.579952 0.502558 0.295990 0.934616
C5    C     C_R   0.740790 0.364423 0.021683 -0.157122
H1    H     H_    0.819802 0.293362 0.983270 0.228763
C6    C     C_R   0.629636 0.498974 0.177689 -0.253129
C7    C     C_R   0.307871 0.652490 0.846104 -0.131551
C8    C     C_R   0.324737 0.722699 0.930999 -0.098530
C9    C     C_R   0.408048 0.676275 0.986668 -0.013951
C10   C     C_R   0.461098 0.551412 0.967938 0.097079
C11   C     C_R   0.440399 0.478383 0.882923 -0.029314
C12   C     C_R   0.545724 0.501981 0.024301 0.009862
C13   C     C_R   0.635571 0.397110 0.978212 -0.011770
C14   C     C_R   0.611557 0.322628 0.895168 -0.150864
C15   C     C_R   0.502136 0.356845 0.856407 0.227203
C16   C     C_R   0.538760 0.549063 0.127660 0.241461
C17   C     C_R   0.742444 0.418944 0.118738 0.268058
C18   C     C_R   0.372584 0.534566 0.817704 -0.062906
H2    H     H_    0.263661 0.698694 0.792648 0.192373
H3    H     H_    0.438287 0.743376 0.038055 0.194752
H4    H     H_    0.285523 0.818319 0.946451 0.190069
C19   C     C_R   0.410008 0.932739 0.444332 0.133343
C20   C     C_R   0.524334 0.868445 0.457010 -0.204159
C21   C     C_R   0.652352 0.936425 0.444512 -0.080721
C22   C     C_R   0.643962 0.067077 0.455079 -0.103073
H5    H     H_    0.738159 0.120510 0.452717 0.220824
C23   C     C_R   0.513053 0.127615 0.473963 -0.121666
C24   C     C_R   0.402509 0.060519 0.456927 0.101443
C25   C     C_3   0.245115 0.061239 0.514746 -0.467082
C26   C     C_3   0.251943 0.919718 0.493762 0.114170
H6    H     H_    0.216991 0.088243 0.601877 0.219634
H7    H     H_    0.184971 0.111887 0.472252 0.281123
H8    H     H_    0.216803 0.864356 0.567850 0.174901
C27   C     C_R   0.897055 0.572814 0.573245 0.072387
N1    N     N_R   0.856940 0.500860 0.500710 -0.147173
C28   C     C_R   0.957307 0.430993 0.426956 -0.056975
H9    H     H_    0.923862 0.373327 0.370758 0.221773
C29   C     C_R   0.098219 0.422512 0.429589 0.349317
N2    N     N_R   0.142580 0.500820 0.500710 -0.166267
C30   C     C_R   0.039366 0.573185 0.573879 0.155666
C31   C     C_3   0.983989 0.556160 0.694504 0.060790
C32   C     C_3   0.832074 0.562640 0.692374 -0.341209
H10   H     H_    0.012092 0.462555 0.716841 0.144813
H11   H     H_    0.772153 0.473760 0.716714 0.180943
N3    N     N_R   0.852187 0.384494 0.160215 0.217492
O9    O     O_R   0.927907 0.472050 0.186087 -0.327228
O10   O     O_R   0.894719 0.268374 0.152357 -0.343466
N4    N     N_R   0.190234 0.878679 0.411814 0.301597
O11   O     O_R   0.216365 0.939629 0.322893 -0.255580
O12   O     O_R   0.123587 0.771916 0.421158 -0.332459
N5    N     N_R   0.179941 0.317162 0.366643 0.202120
O13   O     O_R   0.317602 0.313922 0.329255 -0.344791
O14   O     O_R   0.113669 0.225265 0.335927 -0.349463
N6    N     N_R   0.019082 0.658626 0.757882 0.238355
O15   O     O_R   0.995541 0.642361 0.860060 -0.322789
O16   O     O_R   0.039941 0.772007 0.721802 -0.395697
C33   C     C_2   0.689537 0.202984 0.855831 0.522875
H12   H     H_    0.630816 0.115495 0.861825 0.120208
O17   O     O_2   0.818969 0.202364 0.811880 -0.549423
C34   C     C_2   0.746299 0.678632 0.742107 0.591692
H13   H     H_    0.704100 0.737045 0.693901 0.068493
O18   O     O_2   0.719557 0.705859 0.837712 -0.532895
N7    N     N_R   0.425526 0.632026 0.190111 0.199585
O19   O     O_R   0.292835 0.599559 0.210223 -0.305252
O20   O     O_R   0.454957 0.733111 0.236755 -0.379117
N8    N     N_R   0.452857 0.269363 0.790729 0.177112
O21   O     O_R   0.316725 0.255852 0.809170 -0.362967
O22   O     O_R   0.542568 0.203961 0.712112 -0.429884
C35   C     C_2   0.793396 0.876768 0.423362 0.539914
H14   H     H_    0.818445 0.786297 0.381066 0.121045
O23   O     O_2   0.884865 0.930062 0.451214 -0.504144

loop_
_geom_bond_atom_site_label_1
_geom_bond_atom_site_label_2
_geom_bond_distance
_ccdc_geom_bond_type
C11   C18   1.410329 A    
C8    C9    1.384757 A    
C17   N3    1.434326 S    
C28   C29   1.420462 A    
N8    O21   1.301520 A    
Zn1   O7    1.918749 S    
C19   C24   1.365293 A    
N7    O20   1.301387 A    
C22   H5    1.084041 S    
C20   C21   1.422250 A    
C23   C24   1.383512 A    
O7    C4    1.305452 A    
C27   C30   1.421091 A    
C5    H1    1.079760 S    
C21   C35   1.483066 S    
N3    O9    1.301067 A    
C7    C8    1.380345 A    
O5    C3    1.297453 A    
N5    O14   1.303206 A    
C25   H7    1.103727 S    
C21   C22   1.394436 A    
C33   H12   1.085244 S    
N6    O16   1.300525 A    
C12   C13   1.423287 A    
C7    H2    1.081518 S    
C12   C16   1.413436 A    
C16   N7    1.439927 S    
C25   H6    1.112322 S    
C27   C32   1.485602 S    
N4    O11   1.302636 A    
C10   C11   1.412508 A    
C4    C6    1.463487 S    
C14   C33   1.483585 S    
O3    Zn1   1.966413 S    
C8    H4    1.082826 S    
C31   H10   1.113677 S    
N2    C30   1.369066 A    
C32   H11   1.109941 S    
N4    O12   1.298231 A    
C15   N8    1.442795 S    
N7    O19   1.302177 A    
C30   C31   1.509042 S    
C6    C16   1.406449 A    
C13   C14   1.413269 A    
C26   N4    1.465028 S    
O3    C2    1.295997 A    
C24   C25   1.492296 S    
C34   O18   1.219581 D    
C1    C20   1.444633 S    
C14   C15   1.407835 A    
C27   N1    1.364827 A    
O1    C1    1.302783 A    
N5    O13   1.290729 A    
C28   H9    1.080917 S    
Zn2   O8    1.966414 S    
C19   C20   1.396267 A    
N8    O22   1.300797 A    
C7    C18   1.398745 A    
C3    C23   1.425922 S    
C35   O23   1.220391 D    
C25   C26   1.521407 S    
O8    C4    1.299623 A    
C29   N2    1.410229 A    
C10   C12   1.414236 A    
C26   H8    1.105134 S    
C32   C34   1.508397 S    
C31   C32   1.526137 S    
Zn1   O5    1.992907 S    
N1    C28   1.343467 A    
C5    C13   1.406297 A    
C29   N5    1.452203 S    
O1    Zn1   1.984315 S    
C6    C17   1.406059 A    
O2    Zn2   1.992908 S    
Zn1   N2    2.032871 S    
C35   H14   1.084498 S    
O6    C3    1.290869 A    
O4    Zn2   1.918746 S    
C19   C26   1.492418 S    
C22   C23   1.402698 A    
O2    C1    1.292388 A    
C34   H13   1.086145 S    
C5    C17   1.390642 A    
O4    C2    1.299096 A    
N3    O10   1.301328 A    
Zn2   N1    2.034241 S    
C2    C18   1.446091 S    
C9    C10   1.419310 A    
Zn2   O6    1.984315 S    
N6    O15   1.300946 A    
C11   C15   1.420613 A    
C33   O17   1.220889 D    
C31   N6    1.462432 S    
C9    H3    1.077393 S    
