data_mof_unit_22763.cif
_audit_creation_date              2012-12-11T16:44:21-0500
_audit_creation_method            fapswitch 2.2
_symmetry_space_group_name_H-M    P1
_symmetry_Int_Tables_number       1
_space_group_crystal_system       triclinic
_cell_length_a                    27.384933
_cell_length_b                    7.20841
_cell_length_c                    22.580807
_cell_angle_alpha                 90.400501
_cell_angle_beta                  101.326478
_cell_angle_gamma                 91.61005
_cell_volume                      4368.59707584

loop_
_atom_site_label
_atom_site_type_symbol
_atom_type_description
_atom_site_fract_x
_atom_site_fract_y
_atom_site_fract_z
_atom_type_partial_charge
O1    O     O_R   0.707300 0.594030 0.176840 -0.525105
O2    O     O_R   0.292700 0.405970 0.823160 -0.525120
O3    O     O_R   0.792700 0.094030 0.323160 -0.536335
O4    O     O_R   0.207300 0.905970 0.676840 -0.536341
O5    O     O_R   0.697330 0.262360 0.295660 -0.525421
O6    O     O_R   0.302670 0.737640 0.704340 -0.525378
O7    O     O_R   0.802670 0.762360 0.204340 -0.507324
O8    O     O_R   0.197330 0.237640 0.795660 -0.507324
C1    C     C_R   0.685032 0.430720 0.311909 0.806347
C2    C     C_R   0.314970 0.569280 0.688094 0.806327
C3    C     C_R   0.816095 0.935173 0.189198 0.805159
C4    C     C_R   0.183906 0.064828 0.810804 0.805152
O9    O     O_R   0.701410 0.264250 0.175600 -0.525821
O10   O     O_R   0.298590 0.735750 0.824400 -0.525804
O11   O     O_R   0.798590 0.764250 0.324400 -0.528923
O12   O     O_R   0.201410 0.235750 0.675600 -0.528922
O13   O     O_R   0.796800 0.094950 0.202240 -0.526957
O14   O     O_R   0.203200 0.905050 0.797760 -0.526960
O15   O     O_R   0.703200 0.594950 0.297760 -0.532511
O16   O     O_R   0.296800 0.405050 0.702240 -0.532533
C5    C     C_R   0.689491 0.428754 0.152347 0.787544
C6    C     C_R   0.310511 0.571247 0.847651 0.787529
C7    C     C_R   0.810539 0.935534 0.346321 0.761190
C8    C     C_R   0.189463 0.064464 0.653678 0.761195
O17   O     O_3   0.781290 0.427390 0.258880 -0.364003
O18   O     O_3   0.218710 0.572610 0.741120 -0.364009
O19   O     O_3   0.718710 0.927390 0.241120 -0.369479
O20   O     O_3   0.281290 0.072610 0.758880 -0.369470
V1    V     V_3+5 0.744190 0.152150 0.248350 1.625000
V2    V     V_3+5 0.255810 0.847850 0.751650 1.625058
V3    V     V_3+5 0.755810 0.652150 0.251650 1.633041
V4    V     V_3+5 0.244190 0.347850 0.748350 1.633016
C9    C     C_R   0.154208 0.045959 0.594970 -0.201962
C10   C     C_R   0.845799 0.954029 0.405025 -0.201971
C11   C     C_R   0.347632 0.581622 0.906891 -0.198255
C12   C     C_R   0.652375 0.418385 0.093102 -0.198287
C13   C     C_R   0.141210 0.983668 0.486689 0.430912
C14   C     C_R   0.858806 0.016212 0.513311 0.430929
C15   C     C_R   0.372884 0.706912 0.010426 0.418935
C16   C     C_R   0.627129 0.293096 0.989565 0.418942
C17   C     C_R   0.173281 0.028278 0.541941 0.068253
C18   C     C_R   0.826734 0.971528 0.458065 0.068251
C19   C     C_R   0.341953 0.712952 0.952589 0.088794
C20   C     C_R   0.658056 0.287052 0.047405 0.088785
C21   C     C_R   0.102301 0.027030 0.592254 0.086976
C22   C     C_R   0.897702 0.973084 0.407729 0.086995
C23   C     C_R   0.392851 0.483371 0.915813 0.130314
C24   C     C_R   0.607160 0.516663 0.084170 0.130360
C25   C     C_R   0.068965 0.008666 0.535119 -0.032103
C26   C     C_R   0.931042 0.991443 0.464860 -0.032129
C27   C     C_R   0.431000 0.524024 0.967974 -0.033408
C28   C     C_R   0.569013 0.476005 0.032009 -0.033439
C29   C     C_R   0.089149 0.957745 0.484048 -0.132465
C30   C     C_R   0.910860 0.042287 0.515938 -0.132472
C31   C     C_R   0.416438 0.602028 0.019265 -0.121969
C32   C     C_R   0.583575 0.397987 0.980721 -0.121949
C33   C     C_R   0.016132 0.030656 0.527119 0.030621
C34   C     C_R   0.983875 0.969491 0.472853 0.030619
C35   C     C_R   0.483039 0.493715 0.971599 0.020558
C36   C     C_R   0.516975 0.506319 0.028383 0.020535
C37   C     C_R   0.005028 0.873753 0.430455 -0.156280
C38   C     C_R   0.994977 0.126399 0.569514 -0.156306
C39   C     C_R   0.496840 0.527529 0.080282 -0.147699
C40   C     C_R   0.503176 0.472508 0.919702 -0.147692
C41   C     C_R   0.056388 0.874171 0.433764 0.451295
C42   C     C_R   0.943617 0.125908 0.566216 0.451313
C43   C     C_R   0.447831 0.580156 0.076553 0.464063
C44   C     C_R   0.552184 0.419862 0.923432 0.464057
H1    H     H_    0.981622 0.793659 0.394627 0.195891
H2    H     H_    0.018380 0.206525 0.605337 0.195882
H3    H     H_    0.518867 0.500529 0.124369 0.218316
H4    H     H_    0.481152 0.499527 0.875614 0.218270
C45   C     C_R   0.860367 0.106660 0.114278 0.127774
C46   C     C_R   0.139646 0.893350 0.885736 0.127768
C47   C     C_R   0.661561 0.459097 0.413783 0.070122
C48   C     C_R   0.338467 0.540572 0.586243 0.070131
C49   C     C_R   0.895359 0.106978 0.076146 0.388425
C50   C     C_R   0.104662 0.893039 0.923878 0.388428
C51   C     C_R   0.625338 0.475213 0.450163 0.406084
C52   C     C_R   0.374703 0.524424 0.549883 0.406130
C53   C     C_R   0.929857 0.965689 0.079535 -0.124306
C54   C     C_R   0.070162 0.034319 0.920492 -0.124304
C55   C     C_R   0.574079 0.462563 0.424090 -0.120849
C56   C     C_R   0.425957 0.537415 0.575962 -0.120867
C57   C     C_R   0.930208 0.823372 0.121754 0.209156
C58   C     C_R   0.069806 0.176638 0.878273 0.209144
C59   C     C_R   0.559447 0.428676 0.361301 0.204085
C60   C     C_R   0.440570 0.571634 0.638735 0.204047
C61   C     C_R   0.894525 0.817784 0.159079 0.327388
C62   C     C_R   0.105484 0.182227 0.840941 0.327405
C63   C     C_R   0.595748 0.415494 0.324841 0.317692
C64   C     C_R   0.404257 0.584820 0.675179 0.317678
C65   C     C_R   0.857072 0.953152 0.153541 -0.277747
C66   C     C_R   0.142935 0.046852 0.846469 -0.277746
C67   C     C_R   0.646894 0.435596 0.350650 -0.265572
C68   C     C_R   0.353118 0.564403 0.649367 -0.265567
C69   C     C_R   0.952716 0.918709 0.979398 -0.132396
C70   C     C_R   0.047305 0.081289 0.020631 -0.132386
C71   C     C_R   0.524390 0.333190 0.497598 -0.134368
C72   C     C_R   0.475661 0.666812 0.502477 -0.134468
H5    H     H_    0.915809 0.858198 0.963093 0.208288
H6    H     H_    0.084211 0.141808 0.036936 0.208292
H7    H     H_    0.543197 0.203603 0.496118 0.220530
H8    H     H_    0.456853 0.796399 0.503957 0.220495
C73   C     C_R   0.985308 0.943071 0.939372 0.442839
C74   C     C_R   0.014713 0.056924 0.060657 0.442848
C75   C     C_R   0.488790 0.348796 0.534388 0.437646
C76   C     C_R   0.511264 0.651212 0.465691 0.437577
C77   C     C_R   0.032957 0.025077 0.959962 -0.010851
C78   C     C_R   0.967064 0.974919 0.040067 -0.010851
C79   C     C_R   0.464137 0.516910 0.537300 0.000844
C80   C     C_R   0.535912 0.483088 0.462771 0.000844
Cl1   Cl    Cl    0.076212 0.737457 0.378280 -0.389896
Cl2   Cl    Cl    0.923781 0.262568 0.621703 -0.389864
Cl3   Cl    Cl    0.426676 0.587807 0.145463 -0.373186
Cl4   Cl    Cl    0.573341 0.412192 0.854524 -0.373211
Cl5   Cl    Cl    0.965433 0.869729 0.863748 -0.429346
Cl6   Cl    Cl    0.034588 0.130264 0.136282 -0.429346
Cl7   Cl    Cl    0.475558 0.154674 0.576070 -0.557119
Cl8   Cl    Cl    0.524507 0.845361 0.424026 -0.557216
I1    I     I_    0.921120 0.049607 0.325479 -0.204714
I2    I     I_    0.078869 0.950612 0.674506 -0.204719
I3    I     I_    0.601114 0.751028 0.141329 -0.208872
I4    I     I_    0.398903 0.249083 0.858624 -0.208873
I5    I     I_    0.747734 0.954765 0.452840 -0.128024
I6    I     I_    0.252288 0.044576 0.547196 -0.128074
I7    I     I_    0.708045 0.059428 0.063102 -0.178362
I8    I     I_    0.291966 0.940586 0.936896 -0.178355
Cl9   Cl    Cl    0.167019 0.986581 0.420740 -0.333008
Cl10  Cl    Cl    0.833013 0.013190 0.579272 -0.332985
Cl11  Cl    Cl    0.362017 0.862219 0.067421 -0.395864
Cl12  Cl    Cl    0.637998 0.137787 0.932572 -0.395853
I9    I     I_    0.818251 0.355417 0.111931 -0.142892
I10   I     I_    0.181761 0.644592 0.888078 -0.142895
I11   I     I_    0.738781 0.457395 0.454693 -0.124267
I12   I     I_    0.261249 0.541919 0.545308 -0.124229
Cl13  Cl    Cl    0.896871 0.287186 0.023208 -0.510514
Cl14  Cl    Cl    0.103165 0.712861 0.976829 -0.510496
Cl15  Cl    Cl    0.644137 0.513375 0.528839 -0.415969
Cl16  Cl    Cl    0.355928 0.485835 0.471225 -0.416013
I13   I     I_    0.985467 0.616486 0.129022 0.040770
I14   I     I_    0.014552 0.383541 0.871022 0.040736
I15   I     I_    0.482193 0.393423 0.321570 0.078220
I16   I     I_    0.517812 0.607308 0.678464 0.078203
Cl17  Cl    Cl    0.901351 0.651428 0.217307 -0.509184
Cl18  Cl    Cl    0.098655 0.348607 0.782718 -0.509153
Cl19  Cl    Cl    0.577289 0.370096 0.246559 -0.569585
Cl20  Cl    Cl    0.422692 0.630565 0.753445 -0.569529

loop_
_geom_bond_atom_site_label_1
_geom_bond_atom_site_label_2
_ccdc_geom_bond_type
O17   V3    S    
C51   Cl15  S    
C20   I7    S    
O1    C5    A    
C59   C63   A    
O19   V1    S    
C9    C21   A    
C46   C66   A    
O3    C7    A    
C10   C18   A    
O1    V3    S    
C52   C56   A    
O15   V3    S    
C24   I3    S    
C63   Cl19  S    
C48   I12   S    
C47   C67   A    
C33   C38   A    
C5    C12   S    
C61   Cl17  S    
C6    C11   S    
C35   C40   A    
C26   C30   A    
C36   C39   A    
C14   Cl10  S    
O9    V1    S    
C49   Cl13  S    
C14   C18   A    
O16   V4    S    
O4    C8    A    
C47   I11   S    
C64   Cl20  S    
C64   C68   A    
O13   V1    S    
C38   H2    S    
O2    V4    S    
C45   C65   A    
O3    V1    S    
C76   Cl8   S    
C43   Cl3   S    
C28   C36   A    
C18   I5    S    
C1    O15   A    
C72   H8    S    
C15   C31   A    
C60   C64   A    
C2    O16   A    
C16   C32   A    
O2    C6    A    
C22   I1    S    
C10   C22   A    
C2    C68   S    
C11   C19   A    
C1    C67   S    
C16   C20   A    
C13   C29   A    
C3    C65   S    
C34   C37   A    
O11   C7    A    
C16   Cl12  S    
C11   C23   A    
C35   C36   A    
O12   C8    A    
C70   C77   A    
C74   Cl6   S    
C52   Cl16  S    
C73   Cl5   S    
C4    C66   S    
C41   Cl1   S    
O10   V2    S    
C50   Cl14  S    
C75   Cl7   S    
C62   C66   A    
O5    V1    S    
C39   C43   A    
C72   C76   A    
C56   C79   S    
O7    V3    S    
C38   C42   A    
O8    V4    S    
C54   C77   S    
C56   C60   A    
C71   H7    S    
C58   C62   A    
C57   I13   S    
C57   C61   A    
O18   V4    S    
C15   C19   A    
C32   C44   A    
C61   C65   A    
O4    V2    S    
C76   C80   A    
C26   C34   A    
O7    C3    A    
O5    C1    A    
C50   C54   A    
C31   C43   A    
C23   I4    S    
C14   C30   A    
C49   C53   A    
O8    C4    A    
C7    C10   S    
C21   C25   A    
O9    C5    A    
C55   C59   A    
C44   Cl4   S    
O14   V2    S    
O6    V2    S    
C45   I9    S    
C12   C20   A    
C27   C35   A    
C40   C44   A    
C29   C41   A    
C58   I14   S    
C74   C78   A    
C37   H1    S    
C73   C77   A    
C3    O13   A    
C42   Cl2   S    
C75   C79   A    
C17   I6    S    
C48   C52   A    
C39   H3    S    
C19   I8    S    
O6    C2    A    
C25   C33   A    
C23   C27   A    
O11   V3    S    
C30   C42   A    
C21   I2    S    
O12   V4    S    
C71   C75   A    
C22   C26   A    
C8    C9    S    
C70   C74   A    
C9    C17   A    
O10   C6    A    
O20   V2    S    
C69   C73   A    
C62   Cl18  S    
C70   H6    S    
C48   C68   A    
C54   C58   A    
C69   C78   A    
C33   C34   A    
C15   Cl11  S    
C25   C29   A    
C71   C80   A    
C46   I10   S    
C13   Cl9   S    
C12   C24   A    
C27   C31   A    
C40   H4    S    
C13   C17   A    
C53   C57   A    
C63   C67   A    
C51   C55   A    
C37   C41   A    
C24   C28   A    
C53   C78   S    
C72   C79   A    
C46   C50   A    
C4    O14   A    
C45   C49   A    
C55   C80   S    
C59   I15   S    
C47   C51   A    
C60   I16   S    
C69   H5    S    
C28   C32   A    
