data_mof_unit_10070.cif
_audit_creation_date              2013-03-05T16:03:41-0500
_audit_creation_method            fapswitch 2.2
_symmetry_space_group_name_H-M    P1
_symmetry_Int_Tables_number       1
_space_group_crystal_system       triclinic
_cell_length_a                    8.790943
_cell_length_b                    10.799108
_cell_length_c                    9.517391
_cell_angle_alpha                 90.057589
_cell_angle_beta                  97.272526
_cell_angle_gamma                 90.13695
_cell_volume                      896.255277319

loop_
_atom_site_label
_atom_site_type_symbol
_atom_site_description
_atom_site_fract_x
_atom_site_fract_y
_atom_site_fract_z
_atom_type_partial_charge
O1    O     O_R   0.499990 0.319660 0.618740 -0.548157
O2    O     O_R   0.500010 0.680340 0.381260 -0.548161
O3    O     O_R   0.499990 0.319630 0.381170 -0.597598
O4    O     O_R   0.500010 0.680370 0.618830 -0.597601
C1    C     C_R   0.504366 0.262312 0.500386 0.860886
C2    C     C_R   0.495631 0.737688 0.499614 0.860912
O5    O     O_R   0.274840 0.500010 0.591370 -0.605700
O6    O     O_R   0.725160 0.499990 0.408630 -0.605695
O7    O     O_R   0.274830 0.499980 0.353800 -0.566526
O8    O     O_R   0.725170 0.500020 0.646200 -0.566532
C3    C     C_R   0.204632 0.496750 0.465094 0.902464
C4    C     C_R   0.795368 0.503250 0.534906 0.902445
Cu1   Cu    Cu3+1 0.500000 0.500020 0.640660 0.995517
Cu2   Cu    Cu3+1 0.500000 0.499980 0.359340 0.995517
N1    N     N_R   0.500040 0.500030 0.852080 -0.170473
N2    N     N_R   0.499960 0.499970 0.147920 -0.170473
C5    C     C_2   0.041676 0.476372 0.450541 -0.020498
C6    C     C_2   0.958323 0.523628 0.549459 -0.020495
C7    C     C_R   0.419338 0.066605 0.389084 -0.269826
C8    C     C_R   0.580646 0.933396 0.610919 -0.269843
H1    H     H_    0.352839 0.118926 0.305674 0.191862
H2    H     H_    0.647143 0.881078 0.694333 0.191845
C9    C     C_R   0.408402 0.938187 0.388469 0.355545
C10   C     C_R   0.591575 0.061813 0.611538 0.355561
C11   C     C_R   0.491955 0.871566 0.499880 -0.195718
C12   C     C_R   0.508033 0.128434 0.500121 -0.195725
C13   C     C_R   0.398833 0.427961 0.062465 0.024600
C14   C     C_R   0.601167 0.572039 0.937535 0.024592
H3    H     H_    0.317981 0.370073 0.109001 0.125957
H4    H     H_    0.682019 0.629927 0.890999 0.125956
C15   C     C_R   0.398859 0.428014 0.913629 0.010598
C16   C     C_R   0.601141 0.571986 0.086371 0.010578
H5    H     H_    0.317965 0.370241 0.847962 0.136781
H6    H     H_    0.682035 0.629758 0.152038 0.136782
C17   C     C_3   0.976861 0.388770 0.332470 -0.786619
H7    H     H_    0.069211 0.340047 0.284981 0.220340
H8    H     H_    0.905448 0.315813 0.374257 0.247931
H9    H     H_    0.908529 0.441043 0.246141 0.254914
C18   C     C_3   0.023139 0.611229 0.667530 -0.786622
H10   H     H_    0.930789 0.659953 0.715019 0.220338
H11   H     H_    0.091471 0.558957 0.753859 0.254910
H12   H     H_    0.094552 0.684186 0.625743 0.247934
N3    N     N_R   0.306975 0.877993 0.278676 0.134665
O9    O     O_R   0.215709 0.790030 0.310222 -0.367349
O10   O     O_R   0.288873 0.923136 0.150909 -0.333576
N4    N     N_R   0.692975 0.122010 0.721346 0.134662
O11   O     O_R   0.784304 0.209933 0.689808 -0.367342
O12   O     O_R   0.710958 0.076921 0.849144 -0.333566

loop_
_geom_bond_atom_site_label_1
_geom_bond_atom_site_label_2
_geom_bond_distance
_ccdc_geom_bond_type
O5    Cu1   1.975571 S    
C7    C9    1.389852 A    
O7    Cu2   1.973476 S    
C15   H5    1.081721 S    
N1    C15   1.366996 A    
C13   H3    1.081791 S    
O7    C3    1.292074 A    
C17   H7    1.111161 S    
O6    C4    1.280062 A    
N3    O9    1.301586 A    
C10   N4    1.438540 S    
N2    C13   1.367071 A    
C14   H4    1.081791 S    
C5    C6    1.363502 D    
C18   H11   1.110029 S    
Cu1   Cu2   2.677432 S    
O5    C3    1.280061 A    
N3    O10   1.301632 A    
N1    C14   1.367070 A    
O2    C2    1.289783 A    
O3    Cu2   1.958878 S    
O8    C4    1.292075 A    
O1    C1    1.289780 A    
C17   H8    1.111078 S    
C10   C12   1.410071 A    
C18   H12   1.111078 S    
N4    O12   1.301676 A    
Cu1   N1    2.012123 S    
O2    Cu2   1.958659 S    
Cu2   N2    2.012121 S    
C2    C11   1.446210 S    
O1    Cu1   1.958658 S    
C8    C11   1.399298 A    
C13   C15   1.416560 A    
C1    C12   1.446209 S    
C18   H10   1.111162 S    
C14   C16   1.416560 A    
C17   H9    1.110029 S    
C9    N3    1.438562 S    
O4    C2    1.289364 A    
C9    C11   1.410070 A    
C4    C6    1.438042 S    
O4    Cu1   1.958879 S    
C7    C12   1.399297 A    
C6    C18   1.521697 S    
N2    C16   1.366996 A    
C3    C5    1.438041 S    
O6    Cu2   1.975570 S    
C5    C17   1.521696 S    
C7    H1    1.084517 S    
N4    O11   1.301599 A    
C8    C10   1.389839 A    
C8    H2    1.084515 S    
O3    C1    1.289366 A    
O8    Cu1   1.973474 S    
C16   H6    1.081721 S    
