data_mof_unit_6153.cif
_audit_creation_date              2013-03-05T15:48:05-0500
_audit_creation_method            fapswitch 2.2
_symmetry_space_group_name_H-M    P1
_symmetry_Int_Tables_number       1
_space_group_crystal_system       triclinic
_cell_length_a                    15.07899
_cell_length_b                    12.991757
_cell_length_c                    11.805089
_cell_angle_alpha                 100.280781
_cell_angle_beta                  93.195519
_cell_angle_gamma                 94.049032
_cell_volume                      2264.32811019

loop_
_atom_site_label
_atom_site_type_symbol
_atom_site_description
_atom_site_fract_x
_atom_site_fract_y
_atom_site_fract_z
_atom_type_partial_charge
O1    O     O_R   0.504720 0.354460 0.582000 -0.552862
O2    O     O_R   0.495280 0.645540 0.418000 -0.560524
O3    O     O_R   0.493480 0.341410 0.386200 -0.569099
O4    O     O_R   0.506520 0.658590 0.613800 -0.562660
C1    C     C_R   0.498713 0.299239 0.478206 0.841458
C2    C     C_R   0.501394 0.700770 0.521765 0.858164
O5    O     O_R   0.375880 0.506510 0.597910 -0.557145
O6    O     O_R   0.624120 0.493490 0.402090 -0.541641
O7    O     O_R   0.364640 0.493450 0.402110 -0.560370
O8    O     O_R   0.635360 0.506550 0.597890 -0.559792
C3    C     C_R   0.329355 0.503037 0.501594 0.837436
C4    C     C_R   0.670909 0.496147 0.498717 0.823117
Cu1   Cu    Cu3+1 0.506660 0.507730 0.615930 1.026859
Cu2   Cu    Cu3+1 0.493340 0.492270 0.384070 1.032216
C5    C     C_R   0.819713 0.542832 0.592792 -0.170800
C6    C     C_R   0.180893 0.427742 0.426565 -0.172263
C7    C     C_R   0.767530 0.487379 0.497725 -0.116577
C8    C     C_R   0.232809 0.501959 0.506595 -0.114875
C9    C     C_R   0.807364 0.423942 0.407612 -0.053316
C10   C     C_R   0.193620 0.568557 0.594334 -0.024501
C11   C     C_R   0.900806 0.412969 0.418788 -0.007552
C12   C     C_R   0.099830 0.554988 0.603694 0.003145
C13   C     C_R   0.953387 0.479743 0.511081 0.008348
C14   C     C_R   0.047214 0.484218 0.514396 0.000093
C15   C     C_R   0.912037 0.542693 0.599798 0.037503
C16   C     C_R   0.088447 0.418497 0.427566 0.039818
C17   C     C_R   0.943606 0.337221 0.342389 -0.089181
C18   C     C_R   0.056528 0.608299 0.698819 -0.081379
C19   C     C_R   0.037161 0.341772 0.345834 0.217775
C20   C     C_R   0.963057 0.602651 0.695722 0.211132
H1    H     H_    0.786956 0.590815 0.659172 0.232924
H2    H     H_    0.214375 0.377495 0.362869 0.229102
C21   C     C_R   0.503935 0.814609 0.534147 -0.116955
C22   C     C_R   0.496990 0.185430 0.465580 -0.137781
C23   C     C_R   0.463859 0.012425 0.349126 0.286244
C24   C     C_R   0.537716 0.987617 0.650340 0.265416
C25   C     C_R   0.470361 0.120882 0.359526 -0.197532
C26   C     C_R   0.531418 0.879170 0.639880 -0.192041
C27   C     C_R   0.519732 0.141225 0.561713 -0.175673
C28   C     C_R   0.481125 0.858814 0.438029 -0.183643
C29   C     C_R   0.514993 0.032657 0.553533 0.048801
C30   C     C_R   0.486282 0.967377 0.446048 0.043055
H3    H     H_    0.459551 0.807823 0.356950 0.217490
H4    H     H_    0.540871 0.192221 0.642940 0.219188
H5    H     H_    0.548562 0.845667 0.714824 0.225121
H6    H     H_    0.452863 0.154409 0.284717 0.221267
N1    N     N_R   0.516670 0.519360 0.790130 -0.261436
N2    N     N_R   0.483330 0.480640 0.209870 -0.256444
C31   C     C_R   0.435464 0.378583 0.021886 0.206325
C32   C     C_R   0.563854 0.621807 0.978074 0.210379
C33   C     C_R   0.431154 0.399598 0.142454 0.343829
C34   C     C_R   0.568599 0.600595 0.857578 0.343864
C35   C     C_R   0.533405 0.549518 0.157427 0.434628
C36   C     C_R   0.466209 0.450799 0.842578 0.402694
C37   C     C_R   0.524096 0.544329 0.034735 -0.203479
C38   C     C_R   0.475419 0.455984 0.965257 -0.206161
Br1   Br    Br    0.407498 0.233412 0.947746 -0.371789
Br2   Br    Br    0.590634 0.767180 0.051854 -0.378883
C39   C     C_R   0.753475 0.381123 0.297864 0.119082
C40   C     C_R   0.766477 0.426860 0.200217 -0.085027
C41   C     C_R   0.715653 0.388219 0.096719 -0.150105
C42   C     C_R   0.651691 0.303785 0.090012 -0.113112
C43   C     C_R   0.637716 0.258453 0.187024 -0.070218
C44   C     C_R   0.688063 0.297149 0.290953 -0.110718
H7    H     H_    0.815977 0.492271 0.204431 0.159403
H8    H     H_    0.725899 0.423676 0.021688 0.167066
H9    H     H_    0.612966 0.273588 0.009583 0.198977
H10   H     H_    0.588178 0.193032 0.181412 0.168711
H11   H     H_    0.676898 0.261391 0.365612 0.104233
C45   C     C_R   0.248657 0.662961 0.658614 0.078226
C46   C     C_R   0.246448 0.758519 0.619017 -0.190229
C47   C     C_R   0.297671 0.847967 0.678040 -0.137682
C48   C     C_R   0.351695 0.842559 0.776591 -0.081827
C49   C     C_R   0.355620 0.747422 0.815404 -0.110902
C50   C     C_R   0.304313 0.657969 0.756896 -0.077328
H12   H     H_    0.204751 0.763686 0.542845 0.152247
H13   H     H_    0.295536 0.921506 0.647370 0.172045
H14   H     H_    0.390977 0.911954 0.822441 0.201433
H15   H     H_    0.397726 0.743159 0.891441 0.174658
H16   H     H_    0.306887 0.585242 0.789066 0.161732
C51   C     C_R   0.893142 0.243409 0.270870 0.153191
C52   C     C_R   0.854403 0.164641 0.324334 -0.137861
C53   C     C_R   0.807018 0.075831 0.257773 -0.126934
C54   C     C_R   0.798606 0.064695 0.137587 -0.049954
C55   C     C_R   0.837973 0.142067 0.083672 -0.099856
C56   C     C_R   0.885447 0.230974 0.149850 -0.083104
H17   H     H_    0.860314 0.172610 0.417406 0.143989
H18   H     H_    0.776541 0.015832 0.299391 0.169725
H19   H     H_    0.761583 0.996134 0.086253 0.195807
H20   H     H_    0.831397 0.133356 0.990618 0.164187
H21   H     H_    0.915384 0.290658 0.107251 0.149067
C57   C     C_R   0.105814 0.658069 0.809432 0.145091
C58   C     C_R   0.136482 0.595086 0.886103 -0.121912
C59   C     C_R   0.180301 0.641471 0.992420 -0.144731
C60   C     C_R   0.192812 0.750773 0.023313 -0.084656
C61   C     C_R   0.161173 0.813936 0.948197 -0.079144
C62   C     C_R   0.117387 0.767926 0.841753 -0.070730
H22   H     H_    0.126829 0.510349 0.863130 0.158926
H23   H     H_    0.204618 0.592689 0.050817 0.159835
H24   H     H_    0.226888 0.786521 0.105515 0.175899
H25   H     H_    0.170745 0.898533 0.972357 0.174866
H26   H     H_    0.092902 0.817471 0.784247 0.150720
Br3   Br    Br    0.094299 0.236851 0.242354 -0.456628
Br4   Br    Br    0.905856 0.673774 0.828100 -0.466121
Br5   Br    Br    0.421652 0.931467 0.200816 -0.483229
Br6   Br    Br    0.579516 0.068587 0.798779 -0.500752
Br7   Br    Br    0.369804 0.362702 0.751996 -0.421505
Br8   Br    Br    0.629101 0.638600 0.248256 -0.412181
Br9   Br    Br    0.650579 0.689289 0.791489 -0.413193
Br10  Br    Br    0.349017 0.311233 0.208621 -0.410513

loop_
_geom_bond_atom_site_label_1
_geom_bond_atom_site_label_2
_geom_bond_distance
_ccdc_geom_bond_type
C37   C38   1.416577 A    
C3    C8    1.459478 S    
C58   C59   1.398682 A    
C17   C19   1.405787 A    
C22   C25   1.397698 A    
C48   C49   1.396631 A    
C60   C61   1.398284 A    
C51   C52   1.404991 A    
C27   C29   1.392936 A    
C55   C56   1.398479 A    
O5    C3    1.294337 A    
C39   C44   1.406075 A    
C47   H13   1.082329 S    
C42   H9    1.081330 S    
O1    C1    1.299579 A    
C59   H23   1.082566 S    
C23   C25   1.388345 A    
C14   C16   1.414191 A    
C56   H21   1.083049 S    
C46   H12   1.083001 S    
C5    C15   1.390139 A    
C52   H17   1.083074 S    
C31   Br1   1.938636 S    
C19   Br3   1.944606 S    
C29   C30   1.421104 A    
O4    Cu1   1.964728 S    
C23   C30   1.410610 A    
C26   H5    1.080223 S    
C41   H8    1.082338 S    
N2    C33   1.369326 A    
C31   C33   1.406662 A    
C4    C7    1.469926 S    
C32   C34   1.406658 A    
C48   H14   1.082271 S    
C45   C46   1.404307 A    
C50   H16   1.081700 S    
C51   C56   1.406090 A    
C41   C42   1.396730 A    
C28   C30   1.392961 A    
C53   H18   1.082352 S    
C11   C17   1.426947 A    
C39   C40   1.404833 A    
C12   C18   1.426559 A    
Cu1   Cu2   2.703578 S    
C61   C62   1.398527 A    
C10   C45   1.490860 S    
C24   C29   1.410380 A    
O2    C2    1.299303 A    
C57   C62   1.405728 A    
C35   C37   1.436392 A    
C6    C16   1.391582 A    
N2    C35   1.381525 A    
C36   C38   1.436194 A    
C21   C28   1.397360 A    
C49   C50   1.397544 A    
C24   Br6   1.923489 S    
C22   C27   1.397274 A    
C32   Br2   1.937673 S    
C17   C51   1.485732 S    
C54   C55   1.397893 A    
O4    C2    1.302250 A    
Cu1   N1    2.031220 S    
C60   H24   1.082235 S    
Cu2   N2    2.031218 S    
C9    C39   1.486551 S    
C40   C41   1.398026 A    
O7    Cu2   1.964914 S    
C42   C43   1.397478 A    
C23   Br5   1.923683 S    
C53   C54   1.397894 A    
O6    C4    1.301117 A    
C1    C22   1.457596 S    
C28   H3    1.081353 S    
C18   C57   1.482597 S    
C44   H11   1.082863 S    
O7    C3    1.305628 A    
N1    C34   1.369237 A    
O3    Cu2   1.964730 S    
O8    C4    1.303833 A    
N1    C36   1.381802 A    
C36   Br7   1.929131 S    
C10   C12   1.425685 A    
C40   H7    1.083028 S    
C33   Br10  1.920736 S    
C49   H15   1.082167 S    
C11   C13   1.427395 A    
C12   C14   1.429640 A    
O1    Cu1   1.957581 S    
C54   H19   1.082452 S    
C15   C20   1.408669 A    
C5    C7    1.389441 A    
C43   H10   1.081434 S    
O6    Cu2   1.970286 S    
C9    C11   1.427371 A    
C62   H26   1.083099 S    
C47   C48   1.397737 A    
O3    C1    1.301942 A    
O8    Cu1   1.964914 S    
C55   H20   1.082247 S    
C5    H1    1.076537 S    
C27   H4    1.081375 S    
C6    H2    1.077087 S    
C31   C38   1.421385 A    
C32   C37   1.421220 A    
C2    C21   1.457538 S    
C24   C26   1.388171 A    
C46   C47   1.398836 A    
C35   Br8   1.928755 S    
C34   Br9   1.921413 S    
C18   C20   1.404263 A    
C57   C58   1.404902 A    
C7    C9    1.414182 A    
C8    C10   1.411095 A    
C13   C15   1.411941 A    
C59   C60   1.398102 A    
O2    Cu2   1.957583 S    
C13   C14   1.409969 A    
C43   C44   1.398738 A    
O5    Cu1   1.970283 S    
C16   C19   1.409697 A    
C6    C8    1.385965 A    
C52   C53   1.398773 A    
C20   Br4   1.946094 S    
C45   C50   1.407355 A    
C21   C26   1.397407 A    
C25   H6    1.080199 S    
C61   H25   1.082233 S    
C58   H22   1.083084 S    
