data_mof_unit_57419.cif
_audit_creation_date              2012-12-10T20:31:51-0500
_audit_creation_method            fapswitch 2.2
_symmetry_space_group_name_H-M    P1
_symmetry_Int_Tables_number       1
_space_group_crystal_system       triclinic
_cell_length_a                    9.882017
_cell_length_b                    10.704283
_cell_length_c                    15.511489
_cell_angle_alpha                 90.089327
_cell_angle_beta                  67.013135
_cell_angle_gamma                 89.167935
_cell_volume                      1510.30898019

loop_
_atom_site_label
_atom_site_type_symbol
_atom_type_description
_atom_site_fract_x
_atom_site_fract_y
_atom_site_fract_z
_atom_type_partial_charge
C1    C     C_R   0.499636 0.739701 0.498874 0.963889
C2    C     C_R   0.395748 0.466998 0.917818 0.062500
C3    C     C_R   0.258571 0.526520 0.971277 0.043878
C4    C     C_R   0.496604 0.436074 0.959776 0.105887
C5    C     C_R   0.463839 0.475148 0.053254 0.085888
C6    C     C_R   0.321829 0.524409 0.106683 -0.191758
C7    C     C_R   0.221488 0.549190 0.066408 -0.087218
C8    C     C_R   0.630717 0.370255 0.910850 -0.172122
C9    C     C_R   0.733164 0.350914 0.950278 -0.150299
C10   C     C_R   0.706521 0.396500 0.039400 0.102614
C11   C     C_R   0.573227 0.461183 0.090866 0.108371
C12   C     C_R   0.407255 0.499142 0.676097 0.965448
C13   C     C_R   0.811161 0.376225 0.078312 -0.160099
C14   C     C_R   0.782760 0.414826 0.169729 0.410477
C15   C     C_R   0.553772 0.510056 0.178605 -0.268412
C16   C     C_R   0.371658 0.939341 0.515672 -0.058155
C17   C     C_R   0.502535 0.870980 0.489055 -0.129981
C18   C     C_R   0.637573 0.930762 0.447066 -0.186594
C19   C     C_R   0.641526 0.060133 0.445292 0.412779
C20   C     C_R   0.508135 0.128229 0.487584 -0.170434
C21   C     C_R   0.374910 0.066291 0.516261 -0.103053
C22   C     C_3   0.235237 0.079142 0.601877 0.595549
C23   C     C_R   0.502905 0.260220 0.496841 0.967754
C24   C     C_3   0.229844 0.935243 0.600272 0.579394
C25   C     C_R   0.889604 0.572290 0.562760 0.220422
C26   C     C_R   0.969697 0.435697 0.434155 -0.049010
C27   C     C_R   0.113542 0.436073 0.433802 -0.052087
C28   C     C_R   0.032158 0.571976 0.562682 0.232279
C29   C     C_3   0.976922 0.562578 0.666374 -0.506625
C30   C     C_3   0.823122 0.560850 0.666985 0.188222
C31   C     C_R   0.592732 0.497550 0.323477 0.889797
C32   C     C_R   0.345789 0.497488 0.778025 -0.094944
C33   C     C_R   0.650271 0.479537 0.221495 -0.137254
C34   C     C_R   0.163569 0.565119 0.927404 0.387366
C35   C     C_R   0.208635 0.551186 0.830787 -0.164214
C36   C     C_R   0.433122 0.449455 0.821942 -0.172158
H1    H     H_    0.116041 0.589877 0.110308 0.218104
H2    H     H_    0.913138 0.326492 0.038711 0.185110
H3    H     H_    0.739832 0.877486 0.418666 0.204778
H4    H     H_    0.009806 0.473026 0.689559 0.203861
H5    H     H_    0.460669 0.569493 0.217144 0.172067
H6    H     H_    0.001057 0.647572 0.698683 0.278618
H7    H     H_    0.283455 0.543519 0.180714 0.154933
N1    N     N_R   0.856900 0.500860 0.500610 -0.150357
N2    N     N_R   0.142540 0.500820 0.500610 -0.110507
O1    O     O_R   0.385310 0.683210 0.499990 -0.587110
O2    O     O_R   0.614650 0.683240 0.500000 -0.602441
O3    O     O_R   0.319830 0.499970 0.632240 -0.605594
O4    O     O_R   0.549170 0.500000 0.632250 -0.612998
O5    O     O_R   0.385350 0.316760 0.500000 -0.585529
O6    O     O_R   0.614690 0.316790 0.500010 -0.571255
O7    O     O_R   0.450830 0.500000 0.367750 -0.639486
O8    O     O_R   0.680170 0.500030 0.367760 -0.572074
Zn1   Zn    Zn3+2 0.346870 0.499980 0.499990 1.020687
Zn2   Zn    Zn3+2 0.653130 0.500020 0.500010 1.044600
Cl1   Cl    Cl    0.815003 0.129615 0.392204 -0.501484
Cl2   Cl    Cl    0.262245 0.147425 0.699602 -0.531735
Cl3   Cl    Cl    0.095321 0.161635 0.577419 -0.488912
Cl4   Cl    Cl    0.245834 0.856033 0.697798 -0.503992
Cl5   Cl    Cl    0.086603 0.872122 0.571025 -0.482799
H8    H     H_    0.948257 0.380535 0.382918 0.240206
H9    H     H_    0.200274 0.381780 0.381604 0.174721
H10   H     H_    0.767733 0.470519 0.690779 0.115835
Cl6   Cl    Cl    0.715199 0.695747 0.721608 -0.456008
Cl7   Cl    Cl    0.913401 0.373986 0.216001 -0.603126
H11   H     H_    0.834158 0.299969 0.910522 0.182568
Cl8   Cl    Cl    0.993735 0.642237 0.988448 -0.568952
H12   H     H_    0.139763 0.587590 0.796603 0.200157
H13   H     H_    0.534397 0.404847 0.777749 0.150392
H14   H     H_    0.659544 0.329222 0.842502 0.159628

loop_
_geom_bond_atom_site_label_1
_geom_bond_atom_site_label_2
_ccdc_geom_bond_type
C19   Cl1   S    
C34   Cl8   S    
C2    C4    A    
C18   H3    S    
C31   C33   S    
C22   Cl3   S    
C6    C7    A    
C12   C32   S    
C27   H9    S    
C30   Cl6   S    
C29   H6    S    
C29   C30   S    
C9    C10   A    
C1    C17   S    
C19   C20   A    
C20   C23   S    
C4    C8    A    
C31   O7    A    
C24   Cl5   S    
O1    Zn1   S    
C14   C33   A    
C12   O4    A    
C13   H2    S    
O2    Zn2   S    
C26   N1    A    
C16   C24   S    
O5    Zn1   S    
C21   C22   S    
C31   O8    A    
C25   C28   A    
O3    Zn1   S    
N1    Zn2   S    
C27   N2    A    
C26   C27   A    
C16   C21   A    
C11   C15   A    
C35   H12   S    
C22   Cl2   S    
C24   Cl4   S    
C32   C36   A    
C29   H4    S    
C30   H10   S    
C28   C29   S    
C12   O3    A    
O7    Zn1   S    
N2    Zn1   S    
C5    C11   A    
C3    C7    A    
O6    Zn2   S    
C6    H7    S    
O8    Zn2   S    
C7    H1    S    
C5    C6    A    
C28   N2    A    
C22   C24   S    
C1    O1    A    
C16   C17   A    
C10   C11   A    
C15   H5    S    
C13   C14   A    
C32   C35   A    
C18   C19   A    
C36   H13   S    
C25   N1    A    
C17   C18   A    
C34   C35   A    
C2    C36   A    
C25   C30   S    
C9    H11   S    
C8    C9    A    
C23   O5    A    
C2    C3    A    
C3    C34   A    
C20   C21   A    
O4    Zn2   S    
C8    H14   S    
C14   Cl7   S    
C1    O2    A    
C23   O6    A    
C15   C33   A    
C4    C5    A    
C26   H8    S    
C10   C13   A    
