data_mof_unit_52781.cif
_audit_creation_date              2012-12-10T18:52:12-0500
_audit_creation_method            fapswitch 2.2
_symmetry_space_group_name_H-M    P1
_symmetry_Int_Tables_number       1
_space_group_crystal_system       triclinic
_cell_length_a                    15.676823
_cell_length_b                    10.736958
_cell_length_c                    9.912285
_cell_angle_alpha                 88.842552
_cell_angle_beta                  88.904706
_cell_angle_gamma                 90.798451
_cell_volume                      1667.63320065

loop_
_atom_site_label
_atom_site_type_symbol
_atom_type_description
_atom_site_fract_x
_atom_site_fract_y
_atom_site_fract_z
_atom_type_partial_charge
C1    C     C_R   0.504073 0.260401 0.500470 0.866383
C2    C     C_R   0.437886 0.438837 0.077131 -0.119068
C3    C     C_R   0.338015 0.500394 0.501014 0.909520
C4    C     C_R   0.661985 0.499606 0.498986 0.909521
C5    C     C_3   0.969397 0.473963 0.625132 -0.170162
C6    C     C_3   0.030603 0.526035 0.374868 -0.170162
C7    C     C_3   0.027045 0.387569 0.541419 -0.165522
C8    C     C_3   0.972955 0.612428 0.458582 -0.165524
C9    C     C_1   0.249014 0.501501 0.502814 -0.182271
C10   C     C_1   0.750986 0.498498 0.497186 -0.182274
C11   C     C_3   0.026869 0.587542 0.585165 -0.171695
C12   C     C_R   0.495927 0.739599 0.499530 0.866380
C13   C     C_3   0.973131 0.412456 0.414835 -0.171695
C14   C     C_3   0.082675 0.501147 0.501441 0.217496
C15   C     C_3   0.917325 0.498850 0.498559 0.217496
C16   C     C_1   0.173599 0.501856 0.502678 -0.103207
C17   C     C_1   0.826401 0.498142 0.497322 -0.103209
C18   C     C_R   0.538577 0.063420 0.388323 0.000038
C19   C     C_R   0.461425 0.936581 0.611676 0.000042
C20   C     C_R   0.586668 0.123453 0.274097 0.153572
C21   C     C_R   0.555389 0.117786 0.142395 -0.169754
C22   C     C_R   0.603848 0.167036 0.033562 -0.141094
C23   C     C_R   0.529386 0.935951 0.388493 -0.263312
C24   C     C_R   0.684171 0.220148 0.055329 -0.125818
C25   C     C_R   0.715927 0.224872 0.186055 -0.168624
C26   C     C_R   0.667028 0.178006 0.295408 -0.130537
C27   C     C_R   0.413330 0.876550 0.725898 0.153575
C28   C     C_R   0.332974 0.821988 0.704577 -0.130521
C29   C     C_R   0.284068 0.775130 0.813928 -0.168620
C30   C     C_R   0.315814 0.779870 0.944661 -0.125821
C31   C     C_R   0.396134 0.832990 0.966437 -0.141096
C32   C     C_R   0.444599 0.882233 0.857607 -0.169769
C33   C     C_R   0.634611 0.630354 0.124323 0.170666
C34   C     C_R   0.470617 0.064049 0.611506 -0.263313
C35   C     C_R   0.633638 0.760856 0.123987 -0.185317
C36   C     C_R   0.705988 0.828896 0.160973 -0.150704
C37   C     C_R   0.780889 0.767117 0.193573 -0.115204
C38   C     C_R   0.784099 0.637573 0.185695 -0.155862
C39   C     C_R   0.711710 0.569769 0.148818 -0.117718
C40   C     C_R   0.365386 0.369653 0.875676 0.170669
C41   C     C_R   0.366356 0.239151 0.875999 -0.185301
C42   C     C_R   0.294005 0.171118 0.839007 -0.150701
C43   C     C_R   0.219105 0.232903 0.806417 -0.115205
C44   C     C_R   0.215897 0.362446 0.814311 -0.155858
C45   C     C_R   0.492776 0.872355 0.499140 -0.078668
C46   C     C_R   0.288289 0.430244 0.851191 -0.117725
C47   C     C_R   0.507226 0.127645 0.500859 -0.078664
C48   C     C_R   0.563013 0.561450 0.065642 0.053507
C49   C     C_R   0.436986 0.438550 0.934358 0.053500
C50   C     C_R   0.562114 0.561162 0.922869 -0.119070
H1    H     H_    0.051579 0.295910 0.575520 0.125091
H2    H     H_    0.388435 0.389946 0.135743 0.146930
H3    H     H_    0.493902 0.074691 0.124209 0.120098
H4    H     H_    0.579658 0.162796 0.932197 0.129381
H5    H     H_    0.721894 0.257465 0.970913 0.125286
H6    H     H_    0.778409 0.265244 0.202733 0.120888
H7    H     H_    0.692484 0.181577 0.396105 0.107352
H8    H     H_    0.307525 0.818406 0.603875 0.107344
H9    H     H_    0.221588 0.734751 0.797242 0.120887
H10   H     H_    0.278085 0.742560 0.029075 0.125283
H11   H     H_    0.420316 0.837243 0.067807 0.129381
H12   H     H_    0.948421 0.704087 0.424480 0.125092
H13   H     H_    0.506082 0.925336 0.875800 0.120100
H14   H     H_    0.577389 0.809897 0.092175 0.114487
H15   H     H_    0.704458 0.929524 0.162031 0.155897
H16   H     H_    0.836961 0.819747 0.221657 0.119556
H17   H     H_    0.842919 0.589805 0.206387 0.132460
H18   H     H_    0.715807 0.470382 0.138334 0.132961
H19   H     H_    0.422604 0.190104 0.907807 0.114475
H20   H     H_    0.295533 0.070489 0.837936 0.155895
H21   H     H_    0.163031 0.180278 0.778330 0.119555
H22   H     H_    0.157078 0.410219 0.793628 0.132459
H23   H     H_    0.942125 0.452581 0.727310 0.126205
H24   H     H_    0.284193 0.529630 0.861685 0.132959
H25   H     H_    0.057875 0.547416 0.272691 0.126205
H26   H     H_    0.948750 0.341079 0.345227 0.121772
H27   H     H_    0.051250 0.658918 0.654774 0.121772
H28   H     H_    0.554460 0.885876 0.304359 0.169001
H29   H     H_    0.445541 0.114125 0.695639 0.168996
H30   H     H_    0.611565 0.610053 0.864257 0.146932
N1    N     N_R   0.499980 0.499970 0.857200 -0.099350
N2    N     N_R   0.500020 0.500030 0.142800 -0.099347
O1    O     O_R   0.499990 0.316750 0.614620 -0.624278
O2    O     O_R   0.500010 0.683250 0.385380 -0.624275
O3    O     O_R   0.500000 0.316780 0.385290 -0.608173
O4    O     O_R   0.500000 0.683220 0.614710 -0.608173
O5    O     O_R   0.376780 0.499970 0.614640 -0.605505
O6    O     O_R   0.623220 0.500030 0.385360 -0.605509
O7    O     O_R   0.376780 0.500000 0.385310 -0.625862
O8    O     O_R   0.623220 0.500000 0.614690 -0.625862
Zn1   Zn    Zn3+2 0.500000 0.499980 0.653120 0.959168
Zn2   Zn    Zn3+2 0.500000 0.500020 0.346880 0.959169

loop_
_geom_bond_atom_site_label_1
_geom_bond_atom_site_label_2
_ccdc_geom_bond_type
C23   C45   A    
O5    Zn1   S    
C39   H18   S    
C31   H11   S    
C35   C36   A    
C25   H6    S    
C18   C47   A    
C6    H25   S    
C22   H4    S    
C24   H5    S    
C40   C46   A    
C29   C30   A    
C22   C24   A    
C28   C29   A    
C9    C16   T    
C5    C11   S    
O4    Zn1   S    
C30   C31   A    
C11   C14   S    
C10   C17   T    
C40   C49   S    
C42   H20   S    
N2    Zn2   S    
C12   O2    A    
C41   C42   A    
C49   N1    A    
C11   H27   S    
C7    C14   S    
O6    Zn2   S    
C30   H10   S    
C35   H14   S    
C19   C27   S    
C48   C50   A    
C21   C22   A    
O3    Zn2   S    
C44   C46   A    
C4    O8    A    
C1    O3    A    
C3    O5    A    
C18   C23   A    
C29   H9    S    
C24   C25   A    
C5    C7    S    
C36   H15   S    
C1    C47   S    
C6    C8    S    
C25   C26   A    
C43   C44   A    
C37   C38   A    
C3    C9    S    
C2    C49   A    
C34   H29   S    
C6    C14   S    
C31   C32   A    
C13   H26   S    
C37   H16   S    
C33   C39   A    
C38   H17   S    
O7    Zn2   S    
C2    H2    S    
C40   C41   A    
C8    C15   S    
C13   C15   S    
C14   C16   S    
C2    N2    A    
C42   C43   A    
C4    C10   S    
C46   H24   S    
C41   H19   S    
C15   C17   S    
C36   C37   A    
C43   H21   S    
C27   C32   A    
C32   H13   S    
C12   C45   S    
C19   C34   A    
C50   H30   S    
C19   C45   A    
C4    O6    A    
C28   H8    S    
C1    O1    A    
O1    Zn1   S    
C12   O4    A    
C3    O7    A    
C7    H1    S    
C6    C13   S    
C21   H3    S    
O8    Zn1   S    
C38   C39   A    
C20   C26   A    
C8    C11   S    
C33   C35   A    
C48   N2    A    
C44   H22   S    
C18   C20   S    
C23   H28   S    
C5    H23   S    
C26   H7    S    
C5    C15   S    
N1    Zn1   S    
C7    C13   S    
C20   C21   A    
C27   C28   A    
C33   C48   S    
C34   C47   A    
O2    Zn2   S    
C50   N1    A    
C8    H12   S    
