data_mof_unit_34373.cif
_audit_creation_date              2012-12-10T19:03:36-0500
_audit_creation_method            fapswitch 2.2
_symmetry_space_group_name_H-M    P1
_symmetry_Int_Tables_number       1
_space_group_crystal_system       triclinic
_cell_length_a                    15.863365
_cell_length_b                    10.794174
_cell_length_c                    9.589689
_cell_angle_alpha                 90.129972
_cell_angle_beta                  90.555131
_cell_angle_gamma                 91.019461
_cell_volume                      1641.7190037

loop_
_atom_site_label
_atom_site_type_symbol
_atom_type_description
_atom_site_fract_x
_atom_site_fract_y
_atom_site_fract_z
_atom_type_partial_charge
C1    C     C_R   0.500740 0.262606 0.499851 0.858019
C2    C     C_3   0.951877 0.443482 0.637725 -0.392563
C3    C     C_3   0.917163 0.501162 0.501450 0.309650
C4    C     C_3   0.952459 0.635473 0.489224 -0.372076
C5    C     C_3   0.050182 0.635674 0.487963 -0.370540
C6    C     C_1   0.824985 0.500751 0.502452 -0.067026
C7    C     C_1   0.174959 0.501399 0.498346 -0.088705
C8    C     C_1   0.250571 0.500904 0.498359 -0.135402
C9    C     C_R   0.472592 0.063162 0.611336 -0.055538
C10   C     C_R   0.507158 0.129551 0.500890 -0.213367
C11   C     C_R   0.554727 0.066545 0.400033 0.382070
C12   C     C_R   0.340295 0.500203 0.499484 0.811976
C13   C     C_R   0.560346 0.936296 0.407499 0.390877
C14   C     C_R   0.510183 0.870607 0.503923 -0.246649
C15   C     C_R   0.473393 0.936056 0.612060 -0.056841
C16   C     C_3   0.387628 0.927286 0.679112 0.489641
C17   C     C_3   0.387419 0.069473 0.676989 -0.444007
C18   C     C_R   0.560888 0.564630 0.074661 0.168108
C19   C     C_R   0.437468 0.440417 0.071092 0.057084
C20   C     C_R   0.437494 0.443181 0.922834 -0.029720
C21   C     C_R   0.560838 0.563580 0.927122 0.207299
C22   C     C_3   0.652609 0.539243 0.919903 -0.560890
C23   C     C_R   0.502642 0.737332 0.500533 0.867488
C24   C     C_3   0.653707 0.539475 0.077779 -0.212747
C25   C     C_R   0.659688 0.500103 0.500607 0.829312
C26   C     C_3   0.049549 0.443685 0.636457 -0.361400
C27   C     C_3   0.046635 0.425019 0.374756 -0.370600
C28   C     C_3   0.948957 0.424852 0.376004 -0.361106
C29   C     C_1   0.749381 0.500346 0.502180 -0.125464
C30   C     C_3   0.082747 0.501501 0.499292 0.298986
Cu1   Cu    Cu3+1 0.500000 0.499980 0.640670 0.942962
Cu2   Cu    Cu3+1 0.500000 0.500020 0.359330 0.978330
H1    H     H_    0.927479 0.346718 0.648873 0.165884
H2    H     H_    0.074538 0.497189 0.727703 0.175348
H3    H     H_    0.929986 0.496893 0.729557 0.169343
H4    H     H_    0.928448 0.679020 0.391859 0.192220
H5    H     H_    0.339785 0.110801 0.605899 0.181731
H6    H     H_    0.390469 0.113352 0.781890 0.195973
H7    H     H_    0.072009 0.347013 0.647050 0.170982
H8    H     H_    0.389052 0.393660 0.863886 0.174353
H9    H     H_    0.666041 0.446533 0.875355 0.216869
H10   H     H_    0.687785 0.617397 0.870383 0.184221
H11   H     H_    0.669109 0.447622 0.123076 0.198727
H12   H     H_    0.069479 0.464874 0.274752 0.182913
H13   H     H_    0.069036 0.328004 0.380577 0.175158
H14   H     H_    0.924492 0.327753 0.382343 0.164465
H15   H     H_    0.924921 0.464665 0.276604 0.197324
H16   H     H_    0.075215 0.692638 0.576508 0.169321
H17   H     H_    0.073079 0.679307 0.389988 0.180258
H18   H     H_    0.930576 0.692336 0.578372 0.157987
N1    N     N_R   0.500530 0.500930 0.147930 -0.232444
N2    N     N_R   0.500530 0.500890 0.852020 -0.194914
O1    O     O_R   0.500000 0.319640 0.618810 -0.585903
O2    O     O_R   0.500010 0.319680 0.381230 -0.588796
O3    O     O_R   0.379430 0.499990 0.618840 -0.580594
O4    O     O_R   0.379440 0.500030 0.381260 -0.591334
O5    O     O_R   0.499990 0.680320 0.618770 -0.589686
O6    O     O_R   0.500000 0.680360 0.381190 -0.536833
O7    O     O_R   0.620560 0.499970 0.618740 -0.595512
O8    O     O_R   0.620570 0.500010 0.381160 -0.552873
O9    O     O_3   0.601185 0.132778 0.302995 -0.562966
C31   C     C_3   0.562789 0.118120 0.170448 -0.242608
H19   H     H_    0.592632 0.185136 0.097670 0.165338
H20   H     H_    0.494164 0.138273 0.172497 0.139399
H21   H     H_    0.572803 0.023660 0.128250 0.178033
O10   O     O_3   0.616545 0.875207 0.323797 -0.585127
C32   C     C_3   0.694181 0.870175 0.396859 -0.287725
H22   H     H_    0.743957 0.841541 0.324121 0.206606
H23   H     H_    0.690546 0.800700 0.482187 0.142437
H24   H     H_    0.714800 0.962165 0.439393 0.161258
C33   C     C_2   0.320767 0.868264 0.585864 0.322193
H25   H     H_    0.280657 0.794399 0.626156 0.095762
O11   O     O_2   0.311369 0.901435 0.465041 -0.574239
O12   O     O_3   0.383115 0.876699 0.816615 -0.585551
C34   C     C_3   0.459257 0.885852 0.894412 -0.265213
H26   H     H_    0.483988 0.982645 0.900124 0.139899
H27   H     H_    0.507430 0.823465 0.851154 0.173757
H28   H     H_    0.446712 0.855181 0.002692 0.194965
C35   C     C_2   0.370694 0.363953 0.137300 0.364536
H29   H     H_    0.380699 0.319265 0.236075 0.123738
O13   O     O_2   0.302602 0.347090 0.079109 -0.572409
C36   C     C_2   0.705492 0.645342 0.135772 0.435107
H30   H     H_    0.689124 0.740116 0.111292 0.090231
O14   O     O_2   0.767843 0.625264 0.207058 -0.588775

loop_
_geom_bond_atom_site_label_1
_geom_bond_atom_site_label_2
_ccdc_geom_bond_type
C2    H3    S    
C23   O6    A    
C4    H4    S    
C28   H15   S    
C18   C21   A    
C19   C20   A    
Cu2   O6    S    
Cu1   N2    S    
C1    O2    A    
C3    C6    S    
C7    C8    T    
C28   H14   S    
C18   C24   S    
C3    C28   S    
C20   H8    S    
C26   H7    S    
C22   H9    S    
C15   C16   S    
Cu1   O7    S    
C24   C36   S    
C31   H20   S    
C27   H12   S    
C26   H2    S    
C16   C17   S    
C25   O8    A    
C9    C10   A    
C27   H13   S    
O10   C32   S    
C7    C30   S    
C21   C22   S    
C27   C30   S    
C1    O1    A    
C5    H17   S    
C16   C33   S    
Cu2   O2    S    
C18   N1    A    
C13   O10   S    
C25   C29   S    
C5    H16   S    
O12   C34   S    
C32   H22   S    
C33   O11   D    
C4    H18   S    
C32   H23   S    
C14   C23   S    
C34   H26   S    
Cu2   N1    S    
C31   H19   S    
Cu1   Cu2   S    
C8    C12   S    
C2    C26   S    
C17   H5    S    
Cu1   O1    S    
C19   C35   S    
C34   H27   S    
C12   O4    A    
C2    H1    S    
C9    C17   S    
C26   C30   S    
C36   O14   D    
C16   O12   S    
Cu2   O8    S    
C3    C4    S    
C35   O13   D    
C5    C30   S    
C23   O5    A    
C31   H21   S    
C1    C10   S    
C4    C5    S    
C11   O9    S    
C32   H24   S    
Cu1   O5    S    
C2    C3    S    
C9    C15   A    
C33   H25   S    
C20   N2    A    
C11   C13   A    
C22   H10   S    
C22   C24   S    
C17   H6    S    
O9    C31   S    
C34   H28   S    
C12   O3    A    
C10   C11   A    
C35   H29   S    
C19   N1    A    
C6    C29   T    
C36   H30   S    
C27   C28   S    
C24   H11   S    
C14   C15   A    
C25   O7    A    
Cu1   O3    S    
C13   C14   A    
Cu2   O4    S    
C21   N2    A    
