data_mof_unit_56069.cif
_audit_creation_date              2013-03-05T15:55:00-0500
_audit_creation_method            fapswitch 2.2
_symmetry_space_group_name_H-M    P1
_symmetry_Int_Tables_number       1
_space_group_crystal_system       triclinic
_cell_length_a                    23.42213
_cell_length_b                    10.665721
_cell_length_c                    9.876547
_cell_angle_alpha                 89.978707
_cell_angle_beta                  89.786489
_cell_angle_gamma                 91.116883
_cell_volume                      2466.81263341

loop_
_atom_site_label
_atom_site_type_symbol
_atom_site_description
_atom_site_fract_x
_atom_site_fract_y
_atom_site_fract_z
_atom_type_partial_charge
O1    O     O_R   0.500000 0.316780 0.614690 -0.658651
O2    O     O_R   0.500000 0.316750 0.385360 -0.645689
C1    C     C_R   0.504530 0.259833 0.500596 0.862917
O3    O     O_R   0.416160 0.499970 0.614690 -0.585725
O4    O     O_R   0.416150 0.499950 0.385360 -0.643479
C2    C     C_R   0.389342 0.497609 0.500265 0.927468
Zn1   Zn    Zn3+2 0.500000 0.500020 0.653130 0.982675
Zn2   Zn    Zn3+2 0.500000 0.499980 0.346870 0.949417
O5    O     O_R   0.500000 0.683250 0.614640 -0.597021
O6    O     O_R   0.500000 0.683220 0.385310 -0.627648
O7    O     O_R   0.583850 0.500050 0.614640 -0.632408
O8    O     O_R   0.583840 0.500030 0.385310 -0.620349
C3    C     C_R   0.493043 0.738945 0.500434 0.950479
C4    C     C_R   0.610680 0.499692 0.499763 0.870218
C5    C     C_R   0.881795 0.589398 0.523111 0.519957
N1    N     N_R   0.852102 0.480767 0.499335 -0.369297
C6    C     C_R   0.878205 0.369317 0.476033 0.563987
C7    C     C_R   0.938488 0.362913 0.475262 -0.162167
C8    C     C_R   0.969696 0.476335 0.500374 -0.067449
C9    C     C_R   0.941095 0.589700 0.524522 -0.007515
C10   C     C_R   0.969177 0.250198 0.451114 0.463911
C11   C     C_R   0.028920 0.254627 0.452818 -0.215210
C12   C     C_R   0.059257 0.366289 0.477494 -0.096186
C13   C     C_R   0.029797 0.477464 0.501529 -0.011749
C14   C     C_R   0.060541 0.590270 0.526672 -0.021337
C15   C     C_R   0.031324 0.701435 0.550465 -0.112697
C16   C     C_R   0.972134 0.701134 0.549429 -0.101351
C17   C     C_R   0.119008 0.369511 0.478621 0.545159
N2    N     N_R   0.147759 0.479682 0.503028 -0.361413
C18   C     C_R   0.120121 0.588954 0.526967 0.518773
O9    O     O_2   0.853637 0.696912 0.544811 -0.550765
O10   O     O_2   0.845202 0.266633 0.454790 -0.453072
H1    H     H_    0.052253 0.169699 0.434537 0.238702
O11   O     O_2   0.148293 0.263727 0.455979 -0.531458
O12   O     O_2   0.150369 0.695804 0.550151 -0.527389
H2    H     H_    0.054039 0.789004 0.569865 0.213349
H3    H     H_    0.950786 0.788622 0.568340 0.218665
C19   C     C_R   0.237832 0.482567 0.379154 -0.087407
H4    H     H_    0.214666 0.480569 0.284465 0.148394
C20   C     C_R   0.297077 0.487894 0.378206 -0.206188
H5    H     H_    0.319223 0.489345 0.281727 0.177248
C21   C     C_R   0.327106 0.491694 0.500962 -0.053150
C22   C     C_R   0.297188 0.488874 0.624475 -0.192619
H6    H     H_    0.319418 0.491172 0.720429 0.200050
C23   C     C_R   0.237947 0.484051 0.624976 -0.098568
H7    H     H_    0.214882 0.483003 0.720216 0.151593
C24   C     C_R   0.208427 0.481180 0.502414 0.304802
C25   C     C_R   0.761907 0.489838 0.622221 -0.087628
H8    H     H_    0.784908 0.489977 0.717159 0.144658
C26   C     C_R   0.702774 0.495596 0.622495 -0.211364
H9    H     H_    0.680575 0.499750 0.718757 0.161743
C27   C     C_R   0.672905 0.495792 0.499438 -0.043503
C28   C     C_R   0.702939 0.490146 0.376291 -0.206772
H10   H     H_    0.680844 0.490021 0.280133 0.163545
C29   C     C_R   0.762098 0.484239 0.376444 -0.090747
H11   H     H_    0.785257 0.480315 0.281461 0.146189
C30   C     C_R   0.791425 0.484119 0.499321 0.306114
H12   H     H_    0.500782 0.111415 0.283180 0.171350
C31   C     C_R   0.526200 0.107359 0.751108 -0.148535
H13   H     H_    0.553369 0.190376 0.755595 0.172995
C32   C     C_R   0.512445 0.047427 0.872704 -0.228711
H14   H     H_    0.526925 0.086949 0.967815 0.165468
C33   C     C_R   0.475909 0.943023 0.872030 -0.220878
H15   H     H_    0.459653 0.906298 0.967204 0.178913
C34   C     C_R   0.458229 0.890075 0.749001 0.473290
C35   C     C_R   0.481385 0.938249 0.625787 -0.037474
C36   C     C_R   0.505828 0.058522 0.626694 0.039702
C37   C     C_R   0.507126 0.125267 0.502648 -0.084325
C38   C     C_R   0.499139 0.062773 0.379525 -0.213351
H16   H     H_    0.488854 0.887491 0.282487 0.170406
C39   C     C_R   0.489769 0.935749 0.379030 -0.194059
C40   C     C_R   0.483441 0.871925 0.501840 -0.048583
H17   H     H_    0.562557 0.642959 0.125050 0.146927
C41   C     C_R   0.426409 0.333869 0.140951 -0.185569
H18   H     H_    0.423142 0.329087 0.248165 0.209001
C42   C     C_R   0.390656 0.251245 0.070824 -0.190477
H19   H     H_    0.362567 0.187215 0.125688 0.178447
C43   C     C_R   0.390588 0.251467 0.930781 -0.163253
H20   H     H_    0.362516 0.187494 0.876318 0.187163
C44   C     C_R   0.426297 0.334266 0.860168 -0.149301
H21   H     H_    0.423025 0.329808 0.753003 0.201148
C45   C     C_R   0.463803 0.417972 0.927885 0.195710
C46   C     C_R   0.463814 0.417969 0.072695 0.171062
N3    N     N_R   0.499460 0.498800 0.142780 -0.120107
C47   C     C_R   0.534455 0.578716 0.071267 -0.121150
H22   H     H_    0.562500 0.642960 0.873500 0.141634
C48   C     C_R   0.534456 0.578655 0.927916 -0.087266
N4    N     N_R   0.499440 0.498720 0.857170 -0.105828
S1    S     S_3+6 0.936811 0.100833 0.417840 0.070893
O13   O     O_2   0.901111 0.108435 0.292001 -0.231453
O14   O     O_2   0.981288 0.002807 0.397056 -0.322630
O15   O     O_3   0.895353 0.057721 0.549984 -0.497374
H23   H     H_    0.876084 0.978750 0.521026 0.403581
S2    S     S_3+6 0.395112 0.796545 0.752353 0.016462
O16   O     O_2   0.406232 0.674427 0.821939 -0.295706
O17   O     O_2   0.350773 0.865166 0.832301 -0.306167
O18   O     O_3   0.370382 0.770635 0.594962 -0.589201
H24   H     H_    0.328458 0.760784 0.605195 0.395199

loop_
_geom_bond_atom_site_label_1
_geom_bond_atom_site_label_2
_geom_bond_distance
_ccdc_geom_bond_type
C29   H11   1.083120 S    
C33   C34   1.400708 A    
C7    C10   1.432288 A    
C1    C37   1.437856 S    
C41   C46   1.411073 A    
C48   N4    1.365717 A    
O18   H24   0.990321 S    
C25   C30   1.396629 A    
C10   S1    1.782063 S    
C28   H10   1.083239 S    
Zn1   O7    1.999002 S    
C15   C16   1.386378 A    
C41   C42   1.390514 A    
C18   O12   1.350199 S    
N2    C24   1.420735 S    
C17   N2    1.364885 A    
C42   C43   1.383153 A    
C34   S2    1.767440 S    
C19   H4    1.082959 S    
O7    C4    1.294985 A    
C43   C44   1.390044 A    
C5    N1    1.360608 A    
C32   C33   1.391129 A    
C7    C8    1.423513 A    
C23   C24   1.396322 A    
C38   C39   1.368246 A    
O5    C3    1.286996 A    
C31   C36   1.415649 A    
N3    C47   1.365734 A    
C4    C27   1.458831 S    
Zn1   N4    2.015245 S    
C37   C38   1.398375 A    
C26   C27   1.404639 A    
C12   C13   1.403345 A    
H16   C39   1.083816 S    
S1    O14   1.503833 D    
C20   C21   1.404122 A    
C35   C36   1.394577 A    
C17   O11   1.350080 S    
C31   H13   1.081283 S    
O1    Zn1   1.991058 S    
C10   C11   1.399356 A    
C32   H14   1.082691 S    
O3    Zn1   2.001454 S    
C26   H9    1.083261 S    
C28   C29   1.388297 A    
C5    C9    1.388997 A    
C35   C40   1.415216 A    
C31   C32   1.393983 A    
C41   H18   1.062515 S    
C47   C48   1.415809 A    
C36   C37   1.416649 A    
C42   H19   1.082788 S    
C44   C45   1.410785 A    
H22   C48   1.081769 S    
N1    C6    1.366481 A    
S2    O18   1.681985 S    
C14   C15   1.399988 A    
C23   H7    1.082934 S    
O1    C1    1.285342 A    
C22   H6    1.083069 S    
N2    C18   1.364460 A    
C46   N3    1.377003 A    
Zn2   O8    2.001451 S    
C6    C7    1.414919 A    
C12   C17   1.399324 A    
C13   C14   1.412642 A    
S1    O15   1.682374 S    
S2    O17   1.503851 D    
C22   C23   1.387484 A    
H17   C47   1.081751 S    
C19   C24   1.396403 A    
O3    C2    1.295018 A    
C20   H5    1.083166 S    
C3    C40   1.440436 S    
O8    C4    1.295533 A    
C34   C35   1.422264 A    
C29   C30   1.396751 A    
C21   C22   1.404585 A    
C27   C28   1.404687 A    
C15   H2    1.083336 S    
C14   C18   1.395837 A    
Zn1   O5    1.990773 S    
C11   H1    1.081871 S    
C25   H8    1.083144 S    
Zn2   N3    2.015834 S    
O2    Zn2   1.990771 S    
C44   H21   1.062496 S    
O6    C3    1.294421 A    
O4    Zn2   1.999004 S    
H12   C38   1.083825 S    
C5    O9    1.350738 S    
C9    C16   1.403381 A    
C8    C9    1.413573 A    
O2    C1    1.295387 A    
C39   C40   1.396673 A    
C19   C20   1.387696 A    
C43   H20   1.082886 S    
O4    C2    1.294934 A    
C16   H3    1.083160 S    
C45   N4    1.376012 A    
C25   C26   1.387551 A    
O15   H23   0.990584 S    
C8    C13   1.407604 A    
N1    C30   1.422312 S    
S2    O16   1.500175 D    
C33   H15   1.083161 S    
Zn2   O6    1.991060 S    
C45   C46   1.430229 A    
C2    C21   1.457812 S    
C6    O10   1.345136 S    
C11   C12   1.396848 A    
S1    O13   1.503586 D    
