data_mof_unit_37613.cif
_audit_creation_date              2012-12-10T21:03:45-0500
_audit_creation_method            fapswitch 2.2
_symmetry_space_group_name_H-M    P1
_symmetry_Int_Tables_number       1
_space_group_crystal_system       triclinic
_cell_length_a                    15.759668
_cell_length_b                    15.047328
_cell_length_c                    23.308353
_cell_angle_alpha                 89.885984
_cell_angle_beta                  90.130771
_cell_angle_gamma                 90.192045
_cell_volume                      5527.30735218

loop_
_atom_site_label
_atom_site_type_symbol
_atom_type_description
_atom_site_fract_x
_atom_site_fract_y
_atom_site_fract_z
_atom_type_partial_charge
C1    C     C_R   0.338779 0.499743 0.499880 0.864385
C2    C     C_R   0.547898 0.571431 0.700064 0.335566
C3    C     C_3   0.545115 0.901368 0.604758 -0.414394
C4    C     C_3   0.638262 0.872789 0.598855 -0.320143
C5    C     C_3   0.676433 0.847058 0.656748 -0.887297
C6    C     C_3   0.510557 0.100001 0.608436 -0.407612
C7    C     C_3   0.601379 0.124917 0.625998 -0.328973
C8    C     C_3   0.602343 0.179077 0.681275 -0.905449
C9    C     C_3   0.454340 0.901104 0.395496 -0.417560
C10   C     C_3   0.361263 0.871508 0.401772 -0.314252
C11   C     C_3   0.322245 0.846872 0.343966 -0.889487
C12   C     C_R   0.447870 0.585197 0.242473 0.371455
C13   C     C_R   0.539629 0.585975 0.758592 0.359047
C14   C     C_R   0.487174 0.522562 0.207327 -0.022764
C15   C     C_R   0.499220 0.522310 0.792701 -0.007742
C16   C     C_R   0.956917 0.566455 0.538602 0.321410
C17   C     C_R   0.043571 0.416687 0.496745 0.322779
C18   C     C_R   0.045121 0.563469 0.542173 0.346845
C19   C     C_R   0.955120 0.416241 0.498584 0.309739
C20   C     C_R   0.912905 0.492857 0.516839 -0.216911
C21   C     C_R   0.661242 0.500054 0.500309 0.878270
C22   C     C_R   0.087589 0.490883 0.517828 -0.229512
C23   C     C_1   0.824081 0.496976 0.511091 0.108203
C24   C     C_1   0.176181 0.495092 0.510977 0.084698
C25   C     C_1   0.250641 0.498354 0.505081 -0.209999
C26   C     C_1   0.749475 0.499510 0.505600 -0.212485
C27   C     C_R   0.499297 0.500019 0.388845 0.945965
C28   C     C_R   0.499660 0.499903 0.611138 0.954372
C29   C     C_R   0.483280 0.952846 0.448441 0.061334
C30   C     C_R   0.509046 0.047768 0.552313 0.064766
C31   C     C_R   0.516303 0.952888 0.551648 0.060325
C32   C     C_R   0.526215 0.447008 0.230942 0.454771
C33   C     C_R   0.490257 0.047812 0.447579 0.064696
C34   C     C_R   0.499921 0.905380 0.500068 -0.032877
C35   C     C_R   0.499764 0.095045 0.499898 -0.038862
C36   C     C_1   0.500005 0.807098 0.500078 0.051045
C37   C     C_1   0.499893 0.193054 0.499895 0.038774
C38   C     C_R   0.571048 0.537534 0.883051 0.613670
C39   C     C_R   0.414459 0.538985 0.117160 0.600907
C40   C     C_R   0.420061 0.550085 0.879123 0.617656
C41   C     C_R   0.565321 0.553602 0.120785 0.605620
C42   C     C_R   0.416075 0.563769 0.938650 -0.193885
C43   C     C_R   0.461319 0.446826 0.768076 0.451941
C44   C     C_R   0.568762 0.568313 0.061328 -0.201210
C45   C     C_R   0.493190 0.566275 0.969855 -0.144341
C46   C     C_R   0.491809 0.567537 0.030079 -0.137909
C47   C     C_R   0.571756 0.560026 0.941252 -0.196826
C48   C     C_R   0.413529 0.561501 0.058889 -0.198882
C49   C     C_R   0.337963 0.573646 0.967984 0.401130
C50   C     C_R   0.646390 0.580641 0.031860 0.414919
C51   C     C_R   0.336936 0.573956 0.028144 0.407932
C52   C     C_R   0.648300 0.574180 0.971919 0.401272
C53   C     C_3   0.237805 0.658617 0.923375 0.137239
C54   C     C_R   0.534108 0.438590 0.290910 -0.100178
C55   C     C_3   0.161057 0.654067 0.883260 -0.273657
C56   C     C_3   0.131765 0.746648 0.865366 -1.009992
C57   C     C_3   0.730930 0.682777 0.076213 0.125126
C58   C     C_3   0.823644 0.701248 0.091469 -0.287442
C59   C     C_3   0.837205 0.797946 0.108928 -0.994817
C60   C     C_3   0.254200 0.665578 0.082387 0.111340
C61   C     C_3   0.164619 0.678005 0.105829 -0.277443
C62   C     C_3   0.156605 0.765498 0.138348 -0.994994
C63   C     C_3   0.740190 0.657398 0.917693 0.129693
C64   C     C_3   0.813843 0.648744 0.875489 -0.259251
C65   C     C_R   0.456858 0.438895 0.707943 -0.105031
C66   C     C_3   0.830910 0.736098 0.844137 -1.004522
C67   C     C_3   0.500606 0.321456 0.180145 0.050387
C68   C     C_3   0.542129 0.247823 0.145158 -0.301082
C69   C     C_3   0.478116 0.175713 0.128989 -0.970989
C70   C     C_3   0.483376 0.319560 0.817937 0.051460
C71   C     C_3   0.439988 0.246299 0.852660 -0.299864
C72   C     C_3   0.502182 0.172700 0.868625 -0.973323
C73   C     C_3   0.589556 0.364850 0.315507 -0.331849
C74   C     C_3   0.672990 0.401749 0.340137 -0.305618
C75   C     C_3   0.723511 0.329142 0.370499 -0.873557
C76   C     C_R   0.492182 0.501647 0.326258 -0.340561
C77   C     C_3   0.400140 0.367275 0.681891 -0.327780
C78   C     C_3   0.318627 0.407561 0.656819 -0.327022
C79   C     C_3   0.264355 0.336923 0.627318 -0.859479
C80   C     C_3   0.322422 0.593612 0.353897 0.143340
C81   C     C_3   0.249481 0.611304 0.311435 -0.394139
C82   C     C_3   0.229480 0.530221 0.274487 -0.799497
C83   C     C_3   0.676572 0.596580 0.657101 0.117921
C84   C     C_3   0.735782 0.609553 0.708868 -0.340085
C85   C     C_3   0.828229 0.594148 0.692891 -0.963276
C86   C     C_3   0.463850 0.730585 0.218453 0.079675
C87   C     C_R   0.502071 0.501584 0.673822 -0.330950
C88   C     C_3   0.419479 0.810520 0.191355 -0.343047
C89   C     C_3   0.474396 0.894054 0.195018 -0.976090
C90   C     C_3   0.521546 0.731830 0.779937 0.085415
C91   C     C_3   0.563711 0.812952 0.807303 -0.341751
C92   C     C_3   0.508760 0.895705 0.800859 -0.977982
C93   C     C_3   0.122565 0.615099 0.618836 0.109932
C94   C     C_3   0.055153 0.625870 0.665617 -0.338909
C95   C     C_3   0.093457 0.615068 0.725386 -0.982320
C96   C     C_3   0.895917 0.283570 0.522759 0.127314
C97   C     C_3   0.832516 0.212893 0.502869 -0.326790
C98   C     C_R   0.443815 0.570746 0.301268 0.357106
C99   C     C_3   0.817998 0.142326 0.548990 -1.000022
C100  C     C_3   0.905609 0.703513 0.516797 0.122748
C101  C     C_3   0.848652 0.778001 0.538682 -0.342381
C102  C     C_3   0.837276 0.850823 0.493688 -0.973506
C103  C     C_3   0.095655 0.346554 0.417946 0.126937
C104  C     C_3   0.138094 0.261233 0.397379 -0.325064
C105  C     C_3   0.149935 0.261243 0.332443 -0.979339
C106  C     C_3   0.488692 0.099937 0.391280 -0.410056
C107  C     C_3   0.397783 0.122068 0.372521 -0.320074
C108  C     C_3   0.397297 0.174920 0.316573 -0.910437
H1    H     H_    0.290392 0.694099 0.900862 0.121973
H2    H     H_    0.843172 0.657274 0.127502 0.240368
H3    H     H_    0.969054 0.731787 0.506092 0.171576
H4    H     H_    0.785508 0.749903 0.549854 0.223195
H5    H     H_    0.877041 0.807382 0.578048 0.227004
H6    H     H_    0.899698 0.880116 0.482021 0.268014
H7    H     H_    0.796480 0.904252 0.511187 0.263066
H8    H     H_    0.806461 0.823355 0.454622 0.265597
H9    H     H_    0.135994 0.404379 0.405451 0.124115
H10   H     H_    0.032541 0.352287 0.396560 0.164515
H11   H     H_    0.201101 0.254186 0.418448 0.226695
H12   H     H_    0.098134 0.203279 0.409733 0.229007
H13   H     H_    0.864234 0.686286 0.053769 0.224816
H14   H     H_    0.088219 0.271652 0.310358 0.272120
H15   H     H_    0.175943 0.196194 0.318779 0.266927
H16   H     H_    0.195071 0.314424 0.319589 0.264419
H17   H     H_    0.429127 0.240101 0.322719 0.257950
H18   H     H_    0.430199 0.137404 0.282228 0.259408
H19   H     H_    0.330930 0.187052 0.302787 0.258059
H20   H     H_    0.360556 0.060219 0.366121 0.229659
H21   H     H_    0.366142 0.161882 0.406382 0.224544
H22   H     H_    0.525280 0.162832 0.395328 0.198805
H23   H     H_    0.523454 0.064145 0.357130 0.184726
H24   H     H_    0.819758 0.843073 0.073046 0.265675
H25   H     H_    0.680700 0.906191 0.685075 0.254594
H26   H     H_    0.636586 0.795957 0.677914 0.306031
H27   H     H_    0.741193 0.819968 0.650546 0.246616
H28   H     H_    0.642660 0.815158 0.569348 0.231319
H29   H     H_    0.676707 0.928021 0.580578 0.214850
H30   H     H_    0.538731 0.939880 0.644714 0.205846
H31   H     H_    0.504171 0.841944 0.611332 0.202891
H32   H     H_    0.567326 0.242322 0.675162 0.258995
H33   H     H_    0.572813 0.140599 0.716766 0.259418
H34   H     H_    0.668884 0.195045 0.693265 0.254295
H35   H     H_    0.905072 0.808898 0.119817 0.270720
H36   H     H_    0.639831 0.064127 0.632606 0.232356
H37   H     H_    0.631279 0.164925 0.591334 0.231875
H38   H     H_    0.472529 0.161725 0.604370 0.198858
H39   H     H_    0.477274 0.063659 0.643181 0.184491
H40   H     H_    0.318375 0.906394 0.315825 0.253173
H41   H     H_    0.361211 0.795767 0.322498 0.307125
H42   H     H_    0.257236 0.820082 0.350452 0.244824
H43   H     H_    0.357231 0.813058 0.430833 0.232339
H44   H     H_    0.322908 0.925853 0.420788 0.214096
H45   H     H_    0.460593 0.939771 0.355451 0.206107
H46   H     H_    0.798118 0.814058 0.147097 0.267273
H47   H     H_    0.495411 0.842106 0.388925 0.202746
H48   H     H_    0.268344 0.720388 0.051663 0.069678
H49   H     H_    0.299682 0.670985 0.118696 0.192431
H50   H     H_    0.118448 0.677235 0.069697 0.217194
H51   H     H_    0.149046 0.622205 0.135358 0.242702
H52   H     H_    0.200600 0.766419 0.175672 0.270678
H53   H     H_    0.219504 0.696928 0.961995 0.120327
H54   H     H_    0.090663 0.772864 0.154291 0.268396
H55   H     H_    0.171445 0.822436 0.109629 0.265219
H56   H     H_    0.757445 0.708117 0.950211 0.108351
H57   H     H_    0.683269 0.680819 0.893583 0.145712
H58   H     H_    0.872059 0.628564 0.899110 0.218236
H59   H     H_    0.798757 0.596513 0.843379 0.257632
H60   H     H_    0.773896 0.756851 0.819490 0.272169
H61   H     H_    0.884408 0.727313 0.813763 0.268456
H62   H     H_    0.848074 0.789023 0.875264 0.267388
H63   H     H_    0.449583 0.352461 0.153788 0.170770
H64   H     H_    0.177876 0.615565 0.844294 0.256963
H65   H     H_    0.471958 0.291144 0.219314 0.133695
H66   H     H_    0.569715 0.276692 0.105385 0.238754
H67   H     H_    0.594215 0.217436 0.170683 0.223418
H68   H     H_    0.450976 0.144720 0.168193 0.261808
H69   H     H_    0.510227 0.123367 0.103589 0.266602
H70   H     H_    0.426030 0.204353 0.102699 0.274670
H71   H     H_    0.534945 0.349364 0.844507 0.168375
H72   H     H_    0.511547 0.289198 0.778760 0.133760
H73   H     H_    0.413058 0.275167 0.892508 0.238521
H74   H     H_    0.387203 0.217314 0.827010 0.223738
H75   H     H_    0.107990 0.619284 0.905335 0.226767
H76   H     H_    0.528568 0.141701 0.829325 0.261045
H77   H     H_    0.468763 0.120673 0.893855 0.266994
H78   H     H_    0.554949 0.199924 0.895013 0.274131
H79   H     H_    0.686122 0.301059 0.406630 0.263297
H80   H     H_    0.739551 0.275139 0.340013 0.255684
H81   H     H_    0.783308 0.357659 0.387902 0.280979
H82   H     H_    0.711849 0.429844 0.304680 0.238029
H83   H     H_    0.660800 0.455797 0.371303 0.210446
H84   H     H_    0.554209 0.326153 0.348137 0.208001
H85   H     H_    0.606208 0.315225 0.282253 0.221909
H86   H     H_    0.114222 0.786227 0.903705 0.269199
H87   H     H_    0.299456 0.307484 0.590739 0.274214
H88   H     H_    0.246983 0.283577 0.658173 0.255204
H89   H     H_    0.205195 0.367637 0.610725 0.256711
H90   H     H_    0.281182 0.438258 0.691924 0.232743
H91   H     H_    0.333764 0.460327 0.625128 0.209785
H92   H     H_    0.434993 0.328457 0.649290 0.207757
H93   H     H_    0.381056 0.317278 0.714510 0.222270
H94   H     H_    0.306503 0.627535 0.394733 0.145116
H95   H     H_    0.327213 0.521647 0.365063 0.099647
H96   H     H_    0.191257 0.628645 0.335777 0.173346
H97   H     H_    0.075259 0.740984 0.837053 0.274085
H98   H     H_    0.264976 0.668855 0.283364 0.269104
H99   H     H_    0.286978 0.506726 0.251943 0.293603
H100  H     H_    0.180575 0.547741 0.242058 0.260401
H101  H     H_    0.204499 0.475579 0.301759 0.222552
H102  H     H_    0.702967 0.633725 0.619910 0.180623
H103  H     H_    0.674661 0.525235 0.644217 0.102171
H104  H     H_    0.729292 0.678220 0.725663 0.255139
H105  H     H_    0.717992 0.562092 0.743397 0.251073
H106  H     H_    0.836143 0.527877 0.672702 0.270989
H107  H     H_    0.868331 0.597332 0.732068 0.267024
H108  H     H_    0.182940 0.781610 0.841527 0.268242
H109  H     H_    0.849788 0.646694 0.662767 0.299441
H110  H     H_    0.521645 0.715317 0.192842 0.129529
H111  H     H_    0.483097 0.747947 0.263104 0.166937
H112  H     H_    0.405345 0.795969 0.145571 0.206683
H113  H     H_    0.358465 0.822758 0.213760 0.230495
H114  H     H_    0.487353 0.911095 0.240573 0.262458
H115  H     H_    0.440636 0.950582 0.174607 0.269178
H116  H     H_    0.535451 0.883736 0.172304 0.262982
H117  H     H_    0.461524 0.717078 0.803397 0.133860
H118  H     H_    0.506477 0.747582 0.734287 0.167847
H119  H     H_    0.690754 0.697810 0.114100 0.157867
H120  H     H_    0.574847 0.799698 0.853646 0.209110
H121  H     H_    0.626089 0.825368 0.786585 0.227128
H122  H     H_    0.498891 0.911509 0.754747 0.261448
H123  H     H_    0.540856 0.953111 0.821587 0.269009
H124  H     H_    0.446237 0.885203 0.821759 0.263830
H125  H     H_    0.175221 0.662520 0.627478 0.163424
H126  H     H_    0.150749 0.547313 0.621096 0.122278
H127  H     H_    0.025628 0.692645 0.662039 0.246947
H128  H     H_    0.005024 0.574645 0.659794 0.231880
H129  H     H_    0.123155 0.548556 0.729908 0.274312
H130  H     H_    0.711840 0.728550 0.040860 0.073114
H131  H     H_    0.042751 0.621423 0.758111 0.269117
H132  H     H_    0.142086 0.667270 0.733267 0.273654
H133  H     H_    0.869002 0.317181 0.561278 0.124165
H134  H     H_    0.956685 0.250704 0.534707 0.170197
H135  H     H_    0.770998 0.245205 0.492583 0.227455
H136  H     H_    0.856631 0.180331 0.463390 0.231852
H137  H     H_    0.878030 0.106589 0.558347 0.273054
H138  H     H_    0.770084 0.093441 0.533730 0.262962
H139  H     H_    0.794303 0.173462 0.589017 0.266831
H140  H     H_    0.876271 0.675017 0.477267 0.127475
N1    N     N_R   0.496426 0.535494 0.853316 -0.317659
N2    N     N_R   0.489189 0.537620 0.146804 -0.315371
N3    N     N_1   0.500000 0.270550 0.500000 -0.100291
N4    N     N_1   0.500000 0.729450 0.500000 -0.089896
O1    O     O_R   0.378020 0.573650 0.500020 -0.619685
O2    O     O_2   0.341918 0.515166 0.143817 -0.541266
O3    O     O_2   0.348748 0.549850 0.847019 -0.528586
O4    O     O_2   0.637140 0.552055 0.152375 -0.518542
O5    O     O_3   0.261267 0.571254 0.938915 -0.564723
O6    O     O_3   0.722369 0.592231 0.060773 -0.565035
O7    O     O_3   0.259453 0.581222 0.055720 -0.573470
O8    O     O_3   0.726473 0.574263 0.944726 -0.570632
O9    O     O_3   0.562832 0.385256 0.194864 -0.605600
O10   O     O_3   0.422691 0.384603 0.803181 -0.607230
O11   O     O_3   0.399659 0.631313 0.334349 -0.618419
O12   O     O_R   0.621980 0.426350 0.499980 -0.607281
O13   O     O_3   0.594924 0.631565 0.668085 -0.627042
O14   O     O_3   0.407287 0.657683 0.218497 -0.619664
O15   O     O_3   0.577725 0.659229 0.783624 -0.628992
O16   O     O_3   0.088997 0.635953 0.564000 -0.624026
O17   O     O_3   0.909856 0.344385 0.477508 -0.633066
O18   O     O_3   0.913292 0.638532 0.560205 -0.637941
O19   O     O_3   0.086986 0.342373 0.478158 -0.621765
O20   O     O_R   0.621980 0.573650 0.499980 -0.616757
O21   O     O_R   0.378020 0.426350 0.500020 -0.602705
O22   O     O_R   0.499980 0.573680 0.416160 -0.575920
O23   O     O_R   0.500020 0.426320 0.583840 -0.626337
O24   O     O_R   0.500020 0.573680 0.583840 -0.571717
O25   O     O_R   0.499980 0.426320 0.416160 -0.624747
O26   O     O_2   0.643793 0.515648 0.856205 -0.548952
Zn1   Zn    Zn3+2 0.500000 0.598370 0.500000 0.980508
Zn2   Zn    Zn3+2 0.500000 0.401630 0.500000 0.943700

loop_
_geom_bond_atom_site_label_1
_geom_bond_atom_site_label_2
_ccdc_geom_bond_type
C55   C56   S    
C90   H118  S    
C101  C102  S    
C79   H89   S    
C73   H85   S    
C91   H120  S    
C5    H26   S    
C101  H5    S    
C73   C74   S    
C71   H73   S    
C90   H117  S    
C104  C105  S    
C75   H80   S    
C17   O19   S    
C94   H128  S    
C89   H116  S    
C82   H100  S    
C81   C82   S    
C57   C58   S    
C7    C8    S    
C19   O17   S    
C39   O2    S    
C100  O18   S    
C45   C46   A    
C101  H4    S    
C5    H25   S    
C81   H98   S    
C41   O4    S    
C93   C94   S    
C30   C35   A    
C91   H121  S    
C83   C84   S    
C100  H140  S    
C60   O7    S    
C16   C20   A    
C75   H81   S    
N4    Zn1   S    
C107  H20   S    
C64   H59   S    
C61   H51   S    
C95   H129  S    
C30   C31   A    
C6    H38   S    
C86   C88   S    
C11   H40   S    
C28   O24   A    
C80   H95   S    
C106  C107  S    
C92   H124  S    
C53   H1    S    
C52   O8    S    
C29   C33   A    
C57   O6    S    
C79   H87   S    
C105  H15   S    
C106  H22   S    
C86   H110  S    
C23   C26   T    
C2    C13   A    
C85   H109  S    
N3    Zn2   S    
C82   H99   S    
C64   H58   S    
C102  H7    S    
O1    Zn1   S    
C69   H69   S    
C4    H29   S    
C74   H82   S    
C40   O3    S    
C49   O5    S    
C98   O11   S    
C11   H41   S    
C48   C51   A    
C80   H94   S    
C56   H97   S    
C19   C20   A    
C1    O1    A    
C68   C69   S    
C49   C51   A    
C41   N2    A    
C50   C52   A    
C107  C108  S    
C20   C23   S    
C70   C71   S    
C69   H68   S    
C108  H17   S    
C99   H137  S    
C21   C26   S    
C9    C10   S    
C7    H37   S    
C1    O21   A    
C57   H130  S    
C9    C29   S    
C86   H111  S    
C82   H101  S    
C10   H44   S    
C40   C42   A    
C59   H35   S    
C58   H2    S    
C96   C97   S    
C62   H52   S    
C1    C25   S    
C71   H74   S    
C103  H9    S    
C80   O11   S    
C107  H21   S    
C13   O15   S    
C32   C54   A    
C7    H36   S    
C67   O9    S    
C68   H67   S    
C38   O26   S    
C65   C87   A    
C81   H96   S    
C45   C47   A    
C106  H23   S    
C96   H133  S    
C46   C48   A    
C59   H24   S    
O21   Zn2   S    
C65   C77   S    
C74   C75   S    
C85   H106  S    
O22   Zn1   S    
C73   H84   S    
C83   O13   S    
C53   O5    S    
C24   C25   T    
C72   H76   S    
C27   O25   A    
C97   C99   S    
C91   C92   S    
C93   O16   S    
C53   H53   S    
C68   H66   S    
C78   C79   S    
C4    C5    S    
C28   O23   A    
C44   C46   A    
C92   H123  S    
C67   H63   S    
C58   C59   S    
C77   C78   S    
C2    O13   S    
C29   C34   A    
C10   H43   S    
C79   H88   S    
C67   C68   S    
C105  H16   S    
C60   C61   S    
C42   C45   A    
C64   C66   S    
C3    C31   S    
C60   H48   S    
C102  H6    S    
C69   H70   S    
C97   H135  S    
C54   C73   S    
C56   H86   S    
C11   H42   S    
C62   H55   S    
O24   Zn1   S    
C92   H122  S    
C43   C65   A    
C72   H78   S    
C63   H56   S    
C28   C87   S    
C31   C34   A    
C2    C87   A    
C3    H30   S    
C95   H131  S    
C84   C85   S    
C99   H138  S    
C40   N1    A    
C59   H46   S    
C38   C47   A    
C6    C7    S    
C27   O22   A    
C54   C76   A    
C6    C30   S    
C12   C14   A    
C96   H134  S    
O20   Zn1   S    
C13   C15   A    
C41   C44   A    
C22   C24   S    
C103  H10   S    
C3    H31   S    
C78   H91   S    
C86   O14   S    
C53   C55   S    
C99   H139  S    
C3    C4    S    
C55   H64   S    
C89   H114  S    
C84   H105  S    
C44   C50   A    
C60   H49   S    
C5    H27   S    
C51   O7    S    
C58   H13   S    
C35   C37   S    
C18   C22   A    
C12   C98   A    
C66   H62   S    
C75   H79   S    
C33   C106  S    
C14   C32   A    
C80   C81   S    
C77   H93   S    
C89   H115  S    
C43   O10   S    
C16   O18   S    
C84   H104  S    
C47   C52   A    
C14   N2    S    
C21   O12   A    
C93   H126  S    
C38   N1    A    
C15   N1    S    
C17   C22   A    
C66   H60   S    
C8    H32   S    
C93   H125  S    
C104  H11   S    
C85   H107  S    
C90   O15   S    
C96   O17   S    
C15   C43   A    
C71   C72   S    
C37   N3    T    
C63   O8    S    
O12   Zn2   S    
C97   H136  S    
C18   O16   S    
C6    H39   S    
C8    H33   S    
C33   C35   A    
C70   H72   S    
C90   C91   S    
C62   H54   S    
C39   N2    A    
C94   H127  S    
C67   H65   S    
C66   H61   S    
C70   O10   S    
C36   N4    T    
C100  C101  S    
C17   C19   A    
C105  H14   S    
O23   Zn2   S    
C34   C36   S    
C95   H132  S    
C108  H19   S    
C61   C62   S    
C70   H71   S    
C77   H92   S    
C12   O14   S    
C72   H77   S    
C56   H108  S    
C83   H102  S    
C102  H8    S    
C10   C11   S    
C42   C49   A    
C9    H45   S    
C63   C64   S    
C57   H119  S    
C88   H112  S    
C4    H28   S    
C63   H57   S    
C88   C89   S    
C9    H47   S    
C100  H3    S    
C16   C18   A    
O25   Zn2   S    
C50   O6    S    
C103  C104  S    
C55   H75   S    
C88   H113  S    
C39   C48   A    
C8    H34   S    
C78   H90   S    
C108  H18   S    
C32   O9    S    
C61   H50   S    
C76   C98   A    
C94   C95   S    
C83   H103  S    
C27   C76   S    
C21   O20   A    
C103  O19   S    
C74   H83   S    
C104  H12   S    
