data_mof_unit_45883.cif
_audit_creation_date              2012-12-10T17:02:13-0500
_audit_creation_method            fapswitch 2.2
_symmetry_space_group_name_H-M    P1
_symmetry_Int_Tables_number       1
_space_group_crystal_system       triclinic
_cell_length_a                    10.629332
_cell_length_b                    10.739752
_cell_length_c                    10.066101
_cell_angle_alpha                 90.125402
_cell_angle_beta                  90.280643
_cell_angle_gamma                 90.177857
_cell_volume                      1149.08763592

loop_
_atom_site_label
_atom_site_type_symbol
_atom_type_description
_atom_site_fract_x
_atom_site_fract_y
_atom_site_fract_z
_atom_type_partial_charge
C1    C     C_R   0.496636 0.262849 0.499736 0.898596
C2    C     C_R   0.065943 0.387577 0.560909 0.094514
C3    C     C_R   0.128355 0.487673 0.498739 -0.095050
C4    C     C_R   0.064268 0.582623 0.433933 -0.210743
C5    C     C_R   0.935720 0.583019 0.434734 -0.212624
C6    C     C_R   0.871662 0.488395 0.500214 -0.092939
C7    C     C_2   0.491543 0.932758 0.388241 -0.165086
C8    C     C_2   0.512676 0.869006 0.499863 -0.336149
C9    C     C_2   0.498796 0.066744 0.387575 -0.156618
C10   C     C_2   0.483200 0.131387 0.499568 -0.341051
C11   C     C_2   0.555744 0.584619 0.925573 -0.124688
C12   C     C_R   0.260679 0.496422 0.499696 0.861024
C13   C     C_2   0.572360 0.570493 0.073596 -0.049961
C14   C     C_R   0.502346 0.737225 0.500014 0.930628
C15   C     C_R   0.739332 0.496701 0.500218 0.862983
C16   C     C_R   0.131112 0.286320 0.618578 -0.182835
C17   C     C_R   0.065418 0.188224 0.676938 -0.138862
C18   C     C_R   0.934508 0.188502 0.677564 -0.136940
C19   C     C_R   0.868816 0.286914 0.619884 -0.178869
C20   C     C_R   0.934037 0.387921 0.561640 0.094906
H1    H     H_    0.114147 0.657991 0.385355 0.149435
H2    H     H_    0.457246 0.088946 0.593163 0.148038
H3    H     H_    0.596407 0.665819 0.878211 0.149293
H4    H     H_    0.484001 0.416121 0.894443 0.209466
H5    H     H_    0.648101 0.622522 0.120593 0.120885
H6    H     H_    0.232616 0.280880 0.617421 0.143784
H7    H     H_    0.116243 0.111178 0.720611 0.134763
H8    H     H_    0.883651 0.111664 0.721721 0.134297
H9    H     H_    0.767234 0.281911 0.619750 0.149584
H10   H     H_    0.885846 0.658571 0.386506 0.148275
H11   H     H_    0.470480 0.886490 0.294574 0.169906
H12   H     H_    0.541108 0.912276 0.592688 0.145968
H13   H     H_    0.516607 0.112102 0.293076 0.171779
N1    N     N_2   0.501340 0.501330 0.852150 -0.184072
N2    N     N_2   0.501380 0.501360 0.147810 -0.028088
O1    O     O_R   0.499980 0.319060 0.613040 -0.638530
O2    O     O_R   0.500020 0.319100 0.386900 -0.609344
O3    O     O_R   0.316750 0.499980 0.613090 -0.606053
O4    O     O_R   0.316790 0.500020 0.386950 -0.627530
O5    O     O_R   0.499980 0.680900 0.613100 -0.615519
O6    O     O_R   0.500020 0.680940 0.386960 -0.621223
O7    O     O_R   0.683210 0.499980 0.613050 -0.616108
O8    O     O_R   0.683250 0.500020 0.386910 -0.613792
Zn1   Zn    Zn3+2 0.499970 0.499970 0.650990 0.938370
Zn2   Zn    Zn3+2 0.500030 0.500030 0.349010 0.938260
N3    N     N_2   0.384674 0.473065 0.095263 -0.240267
H14   H     H_    0.316059 0.534334 0.125703 0.243555
C21   C     C_3   0.348379 0.344335 0.112613 -0.705191
H15   H     H_    0.266013 0.323461 0.048027 0.210307
H16   H     H_    0.321526 0.325938 0.216936 0.264074
H17   H     H_    0.426625 0.281557 0.083941 0.215443

loop_
_geom_bond_atom_site_label_1
_geom_bond_atom_site_label_2
_ccdc_geom_bond_type
C18   H8    S    
O3    Zn1   S    
C2    C16   A    
C9    C10   D    
C19   C20   A    
C1    O2    A    
O4    Zn2   S    
C12   O4    A    
C21   H16   S    
C17   C18   A    
C15   O8    A    
C7    C8    D    
C19   H9    S    
C10   H2    S    
C9    H13   S    
C4    H1    S    
O8    Zn2   S    
C13   H5    S    
C8    H12   S    
O7    Zn1   S    
C14   O6    A    
C13   N2    D    
C11   H3    S    
C21   H15   S    
C14   O5    A    
C2    C3    A    
C11   N1    D    
C16   H6    S    
C5    C6    A    
N3    C21   S    
O1    Zn1   S    
C11   C13   S    
C7    H11   S    
O2    Zn2   S    
C3    C4    A    
N2    Zn2   S    
C12   O3    A    
O5    Zn1   S    
C6    C20   A    
C15   O7    A    
C18   C19   A    
C5    H10   S    
C7    C9    S    
N1    Zn1   S    
O6    Zn2   S    
N3    H14   S    
C4    C5    A    
C8    C14   S    
C3    C12   S    
C6    C15   S    
N2    N3    S    
C2    C20   A    
C21   H17   S    
H4    N1    S    
C1    C10   S    
C1    O1    A    
C16   C17   A    
C17   H7    S    
