data_mof_unit_38211.cif
_audit_creation_date              2012-12-11T14:04:06-0500
_audit_creation_method            fapswitch 2.2
_symmetry_space_group_name_H-M    P1
_symmetry_Int_Tables_number       1
_space_group_crystal_system       triclinic
_cell_length_a                    19.112991
_cell_length_b                    10.948529
_cell_length_c                    18.778834
_cell_angle_alpha                 90.239616
_cell_angle_beta                  89.723554
_cell_angle_gamma                 89.690172
_cell_volume                      3929.50459382

loop_
_atom_site_label
_atom_site_type_symbol
_atom_type_description
_atom_site_fract_x
_atom_site_fract_y
_atom_site_fract_z
_atom_type_partial_charge
C1    C     C_R   0.239430 0.467578 0.646460 0.555805
C2    C     C_R   0.761462 0.469071 0.354313 0.573673
C3    C     C_R   0.743264 0.954429 0.656196 0.580769
C4    C     C_R   0.256925 0.958908 0.348365 0.613999
C5    C     C_2   0.249958 0.770866 0.518797 -0.125542
C6    C     C_2   0.744933 0.880164 0.465611 -0.089109
C7    C     C_2   0.796595 0.360786 0.540516 -0.095857
C8    C     C_2   0.210346 0.347131 0.462439 -0.076359
C9    C     C_R   0.004951 0.668795 0.425754 0.010809
C10   C     C_R   0.992571 0.658537 0.575581 0.023432
C11   C     C_R   0.457284 0.164222 0.439275 0.023968
C12   C     C_R   0.544291 0.152451 0.559650 -0.024904
C13   C     C_R   0.991007 0.894918 0.434101 -0.007395
C14   C     C_R   0.962687 0.875694 0.579396 -0.046587
C15   C     C_R   0.465387 0.390789 0.443600 -0.031300
C16   C     C_R   0.569455 0.369527 0.543251 -0.005577
C17   C     C_R   0.969575 0.997393 0.473043 -0.102516
C18   C     C_R   0.953504 0.986883 0.545102 -0.118444
C19   C     C_R   0.499285 0.495283 0.467559 -0.090420
C20   C     C_R   0.553573 0.483985 0.515712 -0.038965
C21   C     C_R   0.984228 0.771167 0.540967 0.009597
C22   C     C_R   0.993708 0.778219 0.466070 0.013754
C23   C     C_R   0.531960 0.265395 0.525104 0.009017
C24   C     C_R   0.484562 0.273419 0.468153 0.035645
C25   C     C_R   0.995384 0.550420 0.533820 -0.032524
C26   C     C_R   0.017094 0.558509 0.462524 -0.041220
C27   C     C_R   0.519310 0.044337 0.526888 -0.018718
C28   C     C_R   0.465343 0.056020 0.477971 -0.002790
C29   C     C_R   0.980361 0.433435 0.561736 0.395904
C30   C     C_R   0.043453 0.452219 0.428246 0.388661
C31   C     C_R   0.539486 0.924230 0.546151 0.399476
C32   C     C_R   0.416696 0.962091 0.473240 0.382675
C33   C     C_R   0.000633 0.328502 0.524674 -0.175028
C34   C     C_R   0.034673 0.337950 0.459348 -0.169007
C35   C     C_R   0.495706 0.825944 0.532757 -0.123551
C36   C     C_R   0.431758 0.846469 0.500618 -0.143178
C37   C     C_2   0.254697 0.928099 0.916712 -0.094640
C38   C     C_2   0.761481 0.896768 0.071260 -0.085420
C39   C     C_2   0.738462 0.397835 0.928750 -0.084098
C40   C     C_2   0.245382 0.427044 0.083123 -0.108684
C41   C     C_2   0.255069 0.937136 0.073137 -0.029621
C42   C     C_2   0.751802 0.897156 0.914911 -0.098300
C43   C     C_2   0.748196 0.395812 0.085111 -0.079245
C44   C     C_2   0.244750 0.437846 0.926749 -0.089066
C45   C     C_R   0.209991 0.830483 0.639583 0.537454
C46   C     C_R   0.769166 0.886021 0.344130 0.543392
C47   C     C_R   0.728274 0.377306 0.649077 0.547093
C48   C     C_R   0.272655 0.375195 0.352011 0.562500
C49   C     C_2   0.227085 0.022662 0.030043 -0.125600
C50   C     C_2   0.810923 0.915424 0.950693 -0.158619
C51   C     C_2   0.689066 0.415266 0.049415 -0.169447
C52   C     C_2   0.272949 0.522363 0.970344 -0.150124
C53   C     C_2   0.214273 0.002480 0.955088 -0.173713
C54   C     C_2   0.816371 0.889458 0.026199 -0.139027
C55   C     C_2   0.683674 0.389921 0.973766 -0.161945
C56   C     C_2   0.285462 0.501674 0.045281 -0.165463
C57   C     C_2   0.988409 0.667409 0.915547 -0.118293
C58   C     C_2   0.985169 0.654261 0.071819 -0.116514
C59   C     C_2   0.488780 0.166656 0.915712 -0.121773
C60   C     C_2   0.485528 0.154145 0.071903 -0.110525
C61   C     C_2   0.950121 0.579141 0.027322 0.365914
C62   C     C_2   0.966400 0.570296 0.951810 0.378370
C63   C     C_2   0.452611 0.075660 0.027633 0.370382
C64   C     C_2   0.467838 0.068693 0.951910 0.375466
C65   C     C_R   0.026602 0.654336 0.646584 0.563023
C66   C     C_R   0.972701 0.656233 0.354019 0.583234
C67   C     C_R   0.562518 0.149358 0.636996 0.565443
C68   C     C_R   0.438182 0.152260 0.362892 0.598060
C69   C     C_R   0.237729 0.470533 0.852551 0.551302
C70   C     C_R   0.760832 0.463023 0.150388 0.581658
C71   C     C_R   0.739193 0.963672 0.849651 0.545507
C72   C     C_R   0.262189 0.969685 0.147499 0.555420
C73   C     C_R   0.228220 0.875736 0.851594 0.562253
C74   C     C_R   0.774435 0.869717 0.145362 0.549869
C75   C     C_R   0.725675 0.370456 0.854574 0.568485
C76   C     C_R   0.271833 0.375186 0.148314 0.561040
C77   C     C_R   0.027543 0.653370 0.849663 0.582182
C78   C     C_R   0.967560 0.651208 0.146955 0.590199
C79   C     C_R   0.527543 0.153297 0.849629 0.581188
C80   C     C_R   0.467547 0.151158 0.146952 0.589413
C81   C     C_2   0.225396 0.856965 0.564570 -0.034386
C82   C     C_2   0.743447 0.945349 0.406656 -0.114056
C83   C     C_2   0.752320 0.426088 0.581365 -0.018929
C84   C     C_2   0.250097 0.419237 0.421353 -0.030632
C85   C     C_2   0.229740 0.885833 0.408440 0.406049
C86   C     C_2   0.757837 0.887796 0.592387 0.418552
C87   C     C_2   0.750401 0.412105 0.422995 0.352686
C88   C     C_2   0.253697 0.407443 0.578983 0.364092
C89   C     C_2   0.265884 0.799691 0.442864 -0.053612
C90   C     C_2   0.740415 0.943176 0.532521 -0.040515
C91   C     C_2   0.805567 0.389365 0.465284 -0.138260
C92   C     C_2   0.200173 0.373682 0.537706 -0.135233
Cr1   Cr    Cr6+3 0.113970 0.508630 0.747920 1.095478
Cr2   Cr    Cr6+3 0.886030 0.508630 0.252080 1.094618
Cr3   Cr    Cr6+3 0.613970 0.008630 0.747920 1.121556
Cr4   Cr    Cr6+3 0.386030 0.008630 0.252080 1.079275
Cr5   Cr    Cr6+3 0.269200 0.666740 0.749850 1.071020
Cr6   Cr    Cr6+3 0.730800 0.666740 0.250150 1.054141
Cr7   Cr    Cr6+3 0.769200 0.166740 0.749850 1.067150
Cr8   Cr    Cr6+3 0.230800 0.166740 0.250150 1.071102
Cr9   Cr    Cr6+3 0.112300 0.820070 0.749800 1.032635
Cr10  Cr    Cr6+3 0.887700 0.820070 0.250200 1.025788
Cr11  Cr    Cr6+3 0.612300 0.320070 0.749800 1.047272
Cr12  Cr    Cr6+3 0.387700 0.320070 0.250200 1.027910
H1    H     H_    0.311872 0.759714 0.417850 0.078042
H2    H     H_    0.721697 0.037568 0.533486 0.089595
H3    H     H_    0.858884 0.395833 0.445375 0.113803
H4    H     H_    0.147112 0.370656 0.558384 0.111280
H5    H     H_    0.167385 0.043680 0.932893 0.163671
H6    H     H_    0.868889 0.872266 0.045962 0.154703
H7    H     H_    0.631256 0.372714 0.953928 0.155272
H8    H     H_    0.331914 0.543036 0.067959 0.169372
H9    H     H_    0.275368 0.850426 0.053580 0.112407
H10   H     H_    0.708763 0.846457 0.938265 0.125561
H11   H     H_    0.791123 0.343975 0.061549 0.165812
H12   H     H_    0.224148 0.351682 0.945780 0.100030
H13   H     H_    0.303514 0.892419 0.937867 0.175040
H14   H     H_    0.708358 0.912972 0.053311 0.100347
H15   H     H_    0.791473 0.414126 0.946829 0.170909
H16   H     H_    0.196923 0.391168 0.061630 0.114972
H17   H     H_    0.023370 0.719698 0.052880 0.018488
H18   H     H_    0.985939 0.758079 0.939289 0.026796
H19   H     H_    0.521474 0.223184 0.052765 0.011103
H20   H     H_    0.486153 0.257160 0.939596 0.033596
H21   H     H_    0.263593 0.680792 0.538465 0.122110
H22   H     H_    0.756738 0.782639 0.464169 0.191700
H23   H     H_    0.825254 0.282942 0.561423 0.160207
H24   H     H_    0.185559 0.265743 0.441306 0.173280
H25   H     H_    0.214617 0.949143 0.546429 0.202665
H26   H     H_    0.738113 0.044325 0.407706 0.102418
H27   H     H_    0.725460 0.505513 0.559884 0.173967
H28   H     H_    0.273951 0.501325 0.442811 0.125514
H29   H     H_    0.964764 0.084898 0.446944 0.104855
H30   H     H_    0.934218 0.064863 0.574905 0.120592
H31   H     H_    0.484889 0.584037 0.446928 0.101369
H32   H     H_    0.584371 0.562598 0.530619 0.142373
H33   H     H_    0.006193 0.908720 0.379227 0.156703
H34   H     H_    0.949666 0.870470 0.635485 0.143084
H35   H     H_    0.423124 0.403944 0.407776 0.174633
H36   H     H_    0.615552 0.357471 0.572381 0.160442
H37   H     H_    0.991804 0.240031 0.547775 0.138960
H38   H     H_    0.053101 0.256516 0.432141 0.150224
H39   H     H_    0.509290 0.735877 0.551682 0.140080
H40   H     H_    0.394774 0.772891 0.498612 0.127936
H41   H     H_    0.207651 0.109081 0.051194 0.156217
H42   H     H_    0.855552 0.959520 0.925841 0.166948
H43   H     H_    0.644450 0.460345 0.074423 0.164343
H44   H     H_    0.292714 0.608212 0.949647 0.165851
O1    O     O_R   0.043230 0.549300 0.667990 -0.447250
O2    O     O_R   0.956770 0.549300 0.332010 -0.461666
O3    O     O_R   0.543230 0.049300 0.667990 -0.448582
O4    O     O_R   0.456770 0.049300 0.332010 -0.503183
O5    O     O_R   0.262920 0.788600 0.824420 -0.488295
O6    O     O_R   0.737080 0.788600 0.175580 -0.492313
O7    O     O_R   0.762920 0.288600 0.824420 -0.467247
O8    O     O_R   0.237080 0.288600 0.175580 -0.495603
O9    O     O_R   0.167530 0.905110 0.830340 -0.506214
O10   O     O_R   0.832470 0.905110 0.169660 -0.515208
O11   O     O_R   0.667530 0.405110 0.830340 -0.505548
O12   O     O_R   0.332470 0.405110 0.169660 -0.511343
O13   O     O_R   0.054010 0.748440 0.822860 -0.515445
O14   O     O_R   0.945990 0.748440 0.177140 -0.512029
O15   O     O_R   0.554010 0.248440 0.822860 -0.512196
O16   O     O_R   0.445990 0.248440 0.177140 -0.499861
O17   O     O_3   0.165160 0.665150 0.749190 -0.298075
O18   O     O_3   0.834840 0.665150 0.250810 -0.269099
O19   O     O_3   0.665160 0.165150 0.749190 -0.306617
O20   O     O_3   0.334840 0.165150 0.250810 -0.284769
O21   O     O_R   0.178620 0.457600 0.674100 -0.544933
O22   O     O_R   0.821380 0.457600 0.325900 -0.556093
O23   O     O_R   0.678620 0.957600 0.674100 -0.445746
O24   O     O_R   0.321380 0.957600 0.325900 -0.502452
O25   O     O_R   0.284680 0.542100 0.669460 -0.478282
O26   O     O_R   0.715320 0.542100 0.330540 -0.472634
O27   O     O_R   0.784680 0.042100 0.669460 -0.564841
O28   O     O_R   0.215320 0.042100 0.330540 -0.473972
O29   O     O_R   0.262860 0.790390 0.676650 -0.480383
O30   O     O_R   0.737140 0.790390 0.323350 -0.493270
O31   O     O_R   0.762860 0.290390 0.676650 -0.478235
O32   O     O_R   0.237140 0.290390 0.323350 -0.470711
O33   O     O_R   0.167460 0.907030 0.670940 -0.497054
O34   O     O_R   0.832540 0.907030 0.329060 -0.513747
O35   O     O_R   0.667460 0.407030 0.670940 -0.538705
O36   O     O_R   0.332540 0.407030 0.329060 -0.555550
O37   O     O_R   0.053950 0.750220 0.675100 -0.534073
O38   O     O_R   0.946050 0.750220 0.324900 -0.526909
O39   O     O_R   0.553950 0.250220 0.675100 -0.501941
O40   O     O_R   0.446050 0.250220 0.324900 -0.522034
O41   O     O_R   0.043300 0.547370 0.827390 -0.418193
O42   O     O_R   0.956700 0.547370 0.172610 -0.430389
O43   O     O_R   0.543300 0.047370 0.827390 -0.426955
O44   O     O_R   0.456700 0.047370 0.172610 -0.441939
O45   O     O_R   0.178690 0.455820 0.821860 -0.488797
O46   O     O_R   0.821310 0.455820 0.178140 -0.450696
O47   O     O_R   0.678690 0.955820 0.821860 -0.498442
O48   O     O_R   0.321310 0.955820 0.178140 -0.458308
O49   O     O_R   0.284750 0.540170 0.828860 -0.506343
O50   O     O_R   0.715250 0.540170 0.171140 -0.518461
O51   O     O_R   0.784750 0.040170 0.828860 -0.509338
O52   O     O_R   0.215250 0.040170 0.171140 -0.534268
F1    F     F_    0.901617 0.499527 0.052469 -0.606950
F2    F     F_    0.961627 0.458237 0.920532 -0.573671
F3    F     F_    0.407333 0.990752 0.053079 -0.599137
F4    F     F_    0.463176 0.956947 0.920196 -0.579145
F5    F     F_    0.164566 0.916314 0.432887 -0.663291
F6    F     F_    0.780462 0.769794 0.594710 -0.660319
F7    F     F_    0.683857 0.397201 0.446561 -0.674992
F8    F     F_    0.320815 0.404271 0.554177 -0.643457
F9    F     F_    0.077649 0.459267 0.364802 -0.624806
F10   F     F_    0.944037 0.420612 0.623612 -0.607777
F11   F     F_    0.351114 0.992960 0.455729 -0.665714
F12   F     F_    0.601063 0.900542 0.577080 -0.634400

loop_
_geom_bond_atom_site_label_1
_geom_bond_atom_site_label_2
_ccdc_geom_bond_type
C47   C83   S    
C7    C83   D    
Cr6   O6    S    
C65   O37   A    
Cr11  O19   S    
C6    C82   D    
C87   C91   D    
Cr7   O51   S    
C14   C18   A    
Cr1   O1    S    
C35   C36   A    
C78   O42   A    
C8    H24   S    
C57   C77   S    
C3    O23   A    
C86   F6    S    
C30   F9    S    
C19   H31   S    
C45   O33   A    
C57   C62   D    
C15   C19   A    
C12   C23   A    
Cr1   O21   S    
C59   C64   D    
C50   C54   S    
C63   F3    S    
C60   C63   D    
Cr11  O35   S    
C32   C36   A    
C14   C21   A    
Cr12  O12   S    
C66   O2    A    
Cr6   O26   S    
C39   H15   S    
C9    C22   A    
Cr12  O20   S    
C6    H22   S    
C75   O11   A    
Cr4   O4    S    
C73   O9    A    
C11   C24   A    
C74   O6    A    
C25   C29   A    
C46   O30   A    
C9    C66   S    
C62   F2    S    
C47   O31   A    
C61   F1    S    
C57   H18   S    
C46   C82   S    
Cr5   O29   S    
C92   H4    S    
C80   O16   A    
C31   F12   S    
C14   H34   S    
C29   C33   A    
C40   C76   S    
C40   C56   D    
Cr7   O7    S    
Cr8   O28   S    
Cr3   O47   S    
C23   C24   A    
Cr4   O20   S    
C8    C92   S    
C39   C75   S    
C82   H26   S    
C4    O24   A    
C15   H35   S    
C61   C62   S    
C2    O26   A    
C16   C20   A    
C37   C53   D    
C70   O46   A    
C44   C52   D    
C58   C61   D    
C64   F4    S    
Cr1   O17   S    
C52   H44   S    
C79   O43   A    
C21   C22   A    
C3    C86   S    
C69   O49   A    
Cr7   O27   S    
C80   O44   A    
Cr2   O18   S    
C16   H36   S    
C88   F8    S    
Cr9   O37   S    
C41   C49   D    
C67   O39   A    
C9    C26   A    
C17   C18   A    
Cr7   O19   S    
C10   C21   A    
C77   O13   A    
Cr12  O40   S    
C12   C67   S    
C39   C55   D    
Cr5   O25   S    
C30   C34   A    
C12   C27   A    
C27   C31   A    
Cr10  O34   S    
C34   H38   S    
C91   H3    S    
C29   F10   S    
Cr11  O39   S    
C90   H2    S    
C47   O35   A    
C86   C90   D    
C59   C79   S    
C48   O36   A    
C32   F11   S    
Cr6   O50   S    
C4    C85   S    
C8    C84   D    
C25   C26   A    
C6    C90   S    
C67   O3    A    
C76   O8    A    
C48   C84   S    
C43   H11   S    
C54   H6    S    
C13   H33   S    
C60   H19   S    
C42   H10   S    
Cr2   O42   S    
Cr7   O31   S    
C68   O4    A    
Cr5   O49   S    
C72   O52   A    
C5    C81   D    
C71   O47   A    
C38   C54   D    
C28   C32   A    
Cr10  O14   S    
C1    O25   A    
C69   O45   A    
C33   C34   A    
C49   H41   S    
C2    C87   S    
C88   C92   D    
C20   H32   S    
C74   O10   A    
Cr9   O17   S    
C87   F7    S    
C51   H43   S    
Cr6   O18   S    
C42   C50   D    
C41   C72   S    
Cr8   O52   S    
C10   C25   A    
C3    O27   A    
C15   C24   A    
Cr12  O36   S    
C2    O22   A    
C78   O14   A    
C16   C23   A    
Cr5   O5    S    
C66   O38   A    
C17   H29   S    
C81   H25   S    
C31   C35   A    
C55   H7    S    
Cr3   O3    S    
Cr8   O8    S    
C73   O5    A    
Cr8   O32   S    
C7    C91   S    
C48   O32   A    
Cr9   O33   S    
C11   C68   S    
Cr6   O30   S    
C38   C74   S    
C10   C65   S    
C53   H5    S    
C59   H20   S    
C37   C73   S    
C60   C80   S    
C58   H17   S    
C85   C89   D    
Cr3   O43   S    
Cr10  O38   S    
C40   H16   S    
Cr2   O46   S    
C44   H12   S    
C45   C81   S    
C79   O15   A    
Cr10  O10   S    
Cr3   O19   S    
Cr4   O24   S    
C72   O48   A    
Cr10  O18   S    
C71   O51   A    
Cr1   O41   S    
C43   C70   S    
C50   H42   S    
Cr11  O15   S    
C13   C17   A    
Cr8   O20   S    
C33   H37   S    
C89   H1    S    
C46   O34   A    
C19   C20   A    
Cr9   O13   S    
C83   H27   S    
C36   H40   S    
C41   H9    S    
C77   O41   A    
Cr2   O22   S    
C45   O29   A    
Cr11  O11   S    
Cr12  O16   S    
C76   O12   A    
C11   C28   A    
C1    C88   S    
Cr5   O17   S    
C43   C51   D    
C1    O21   A    
C42   C71   S    
C84   H28   S    
C13   C22   A    
C18   H30   S    
C51   C55   S    
C65   O1    A    
Cr4   O44   S    
C49   C53   S    
C58   C78   S    
Cr9   O9    S    
C63   C64   S    
C38   H14   S    
C75   O7    A    
Cr2   O2    S    
Cr4   O48   S    
C37   H13   S    
C68   O40   A    
C70   O50   A    
C4    O28   A    
C5    H21   S    
C27   C28   A    
C44   C69   S    
Cr1   O45   S    
C7    H23   S    
C85   F5    S    
Cr3   O23   S    
C56   H8    S    
C5    C89   S    
C52   C56   S    
C35   H39   S    
C26   C30   A    
