data_mof_unit_29977.cif
_audit_creation_date              2013-03-05T15:49:05-0500
_audit_creation_method            fapswitch 2.2
_symmetry_space_group_name_H-M    P1
_symmetry_Int_Tables_number       1
_space_group_crystal_system       triclinic
_cell_length_a                    22.230476
_cell_length_b                    7.221737
_cell_length_c                    19.448218
_cell_angle_alpha                 89.818691
_cell_angle_beta                  98.602729
_cell_angle_gamma                 89.535873
_cell_volume                      3087.00911316

loop_
_atom_site_label
_atom_site_type_symbol
_atom_site_description
_atom_site_fract_x
_atom_site_fract_y
_atom_site_fract_z
_atom_type_partial_charge
O1    O     O_R   0.448470 0.506130 0.415700 -0.553250
O2    O     O_R   0.551530 0.006130 0.584300 -0.581865
O3    O     O_R   0.436320 0.174490 0.555800 -0.577017
O4    O     O_R   0.563680 0.674490 0.444200 -0.582265
C1    C     C_R   0.423664 0.343917 0.578097 0.996524
C2    C     C_R   0.577824 0.844013 0.423552 0.988275
O5    O     O_R   0.441350 0.176340 0.414480 -0.563171
O6    O     O_R   0.558650 0.676340 0.585520 -0.546885
O7    O     O_R   0.556600 0.007100 0.441970 -0.575557
O8    O     O_R   0.443400 0.507100 0.558030 -0.582838
C3    C     C_R   0.425059 0.346600 0.390987 0.972953
C4    C     C_R   0.574931 0.844325 0.609246 0.962791
O9    O     O_3   0.537810 0.339550 0.509190 -0.294484
O10   O     O_3   0.462190 0.839550 0.490810 -0.270207
V1    V     V_3+5 0.492990 0.064280 0.498300 1.270806
V2    V     V_3+5 0.507010 0.564280 0.501700 1.268397
C5    C     C_R   0.873106 0.905289 0.698429 -0.138045
C6    C     C_R   0.125383 0.413711 0.301009 -0.135726
H1    H     H_    0.959194 0.938921 0.762764 0.136544
H2    H     H_    0.039351 0.438779 0.235720 0.136309
H3    H     H_    0.798269 0.810713 0.588357 0.166155
H4    H     H_    0.201955 0.418075 0.415077 0.166948
H5    H     H_    0.894085 0.892448 0.651790 0.138251
H6    H     H_    0.104441 0.414157 0.347902 0.138297
C7    C     C_R   0.885358 0.940750 0.823046 -0.096436
C8    C     C_R   0.113779 0.434513 0.176295 -0.093309
C9    C     C_R   0.587646 0.885796 0.736702 0.320205
C10   C     C_R   0.410402 0.342658 0.262635 0.318708
C11   C     C_R   0.623006 0.921194 0.801655 -0.182748
C12   C     C_R   0.374298 0.341692 0.196597 -0.181167
C13   C     C_R   0.686345 0.930316 0.806824 -0.257512
C14   C     C_R   0.311090 0.359338 0.191432 -0.254788
C15   C     C_R   0.716999 0.894651 0.749781 0.113496
C16   C     C_R   0.281662 0.381954 0.250265 0.109368
C17   C     C_R   0.681478 0.846888 0.684304 0.008542
C18   C     C_R   0.318209 0.385510 0.317832 -0.000109
C19   C     C_R   0.782290 0.906025 0.756208 0.113338
C20   C     C_R   0.216453 0.399930 0.243535 0.112168
C21   C     C_R   0.809915 0.887808 0.695504 0.147767
C22   C     C_R   0.188799 0.402242 0.304524 0.139801
C23   C     C_R   0.775306 0.838931 0.632775 -0.245904
C24   C     C_R   0.224259 0.404185 0.369271 -0.243024
C25   C     C_R   0.713261 0.802545 0.628052 -0.113154
C26   C     C_R   0.287474 0.411223 0.376420 -0.074054
C27   C     C_R   0.821720 0.930865 0.820596 -0.233096
C28   C     C_R   0.177231 0.418357 0.178795 -0.237523
C29   C     C_R   0.910381 0.931457 0.761580 -0.143995
C30   C     C_R   0.088228 0.429236 0.237363 -0.144997
C31   C     C_R   0.615990 0.851114 0.677543 -0.305713
C32   C     C_R   0.383183 0.359473 0.323515 -0.322796
H7    H     H_    0.805009 0.935482 0.869799 0.106518
H8    H     H_    0.194178 0.424445 0.129746 0.109022
H9    H     H_    0.711045 0.966015 0.856821 0.173416
H10   H     H_    0.285345 0.348962 0.140162 0.171753
C33   C     C_3   0.776035 0.874440 0.314156 -0.203390
C34   C     C_3   0.227349 0.374490 0.688857 -0.199578
C35   C     C_3   0.782394 0.041873 0.266844 0.377870
C36   C     C_3   0.219753 0.541048 0.735894 0.379007
H11   H     H_    0.799225 0.856684 0.368451 0.175624
H12   H     H_    0.204782 0.358070 0.634340 0.177980
H13   H     H_    0.685183 0.182180 0.241665 0.171844
H14   H     H_    0.316254 0.679987 0.762328 0.170908
C37   C     C_1   0.874592 0.941366 0.120341 -0.245604
C38   C     C_1   0.126043 0.439480 0.880541 -0.243380
C39   C     C_1   0.622758 0.853373 0.376622 -0.111647
C40   C     C_1   0.380209 0.353237 0.626877 -0.104678
C41   C     C_3   0.782775 0.744748 0.251955 -0.165429
C42   C     C_3   0.220502 0.243587 0.750866 -0.170607
C43   C     C_3   0.789716 0.915307 0.205688 0.023806
C44   C     C_3   0.212297 0.413309 0.796865 0.025807
C45   C     C_3   0.712770 0.751969 0.228973 -0.078161
C46   C     C_3   0.290361 0.249708 0.774775 -0.081350
C47   C     C_3   0.706631 0.882384 0.290292 0.127750
C48   C     C_3   0.296594 0.381339 0.713629 0.126262
C49   C     C_3   0.720173 0.923065 0.182341 -0.185170
C50   C     C_3   0.281688 0.419986 0.821156 -0.184326
C51   C     C_3   0.713164 0.053586 0.244281 -0.229585
C52   C     C_3   0.288809 0.551700 0.759373 -0.232366
C53   C     C_1   0.836187 0.930781 0.158563 0.108445
C54   C     C_1   0.165051 0.428557 0.843066 0.109848
C55   C     C_1   0.660445 0.864954 0.337567 0.096186
C56   C     C_1   0.342994 0.364469 0.666553 0.104224
H15   H     H_    0.697190 0.942471 0.128042 0.164325
H16   H     H_    0.304037 0.438047 0.875675 0.166803
H17   H     H_    0.683584 0.630592 0.213485 0.151792
H18   H     H_    0.319989 0.127813 0.790696 0.153961
H19   H     H_    0.811406 0.617641 0.254714 0.209043
H20   H     H_    0.192423 0.116737 0.747748 0.208891
O11   O     O_R   0.056650 0.288730 0.942060 -0.584044
O12   O     O_R   0.943350 0.788730 0.057940 -0.584559
O13   O     O_R   0.058660 0.616870 0.085540 -0.587113
O14   O     O_R   0.941340 0.116870 0.914460 -0.586340
C57   C     C_R   0.072954 0.447483 0.109987 0.911847
C58   C     C_R   0.926843 0.949087 0.889678 0.909108
O15   O     O_R   0.063700 0.618520 0.944220 -0.576828
O16   O     O_R   0.936300 0.118520 0.055780 -0.576902
O17   O     O_R   0.948460 0.787610 0.915680 -0.581765
O18   O     O_R   0.051540 0.287610 0.084320 -0.583556
C59   C     C_R   0.079161 0.449734 0.925010 0.948870
C60   C     C_R   0.920936 0.950329 0.075172 0.950061
O19   O     O_3   0.962230 0.453430 0.990860 -0.282067
O20   O     O_3   0.037770 0.953430 0.009140 -0.281550
V3    V     V_3+5 0.007010 0.728750 0.001700 1.192812
V4    V     V_3+5 0.992990 0.228750 0.998300 1.194375
N1    N     N_R   0.522363 0.894687 0.729648 0.241242
O21   O     O_R   0.495315 0.047875 0.743208 -0.386157
O22   O     O_R   0.489812 0.753050 0.706276 -0.386883
N2    N     N_R   0.475490 0.333138 0.268177 0.239460
O23   O     O_R   0.505275 0.471534 0.247207 -0.374630
O24   O     O_R   0.504907 0.185271 0.293008 -0.382537
C61   C     C_2   0.594993 0.948688 0.865899 1.095026
O25   O     O_2   0.545730 0.880382 0.871227 -0.575771
O26   O     O_R   0.625937 0.049086 0.921477 -0.808513
H21   H     H_    0.602676 0.056701 0.962440 0.337150
C62   C     C_2   0.401092 0.316162 0.131354 1.090508
O27   O     O_2   0.450888 0.241934 0.132640 -0.571538
O28   O     O_R   0.368469 0.374110 0.067665 -0.811815
H22   H     H_    0.391011 0.348305 0.027032 0.334404
C63   C     C_2   0.688289 0.684917 0.569037 0.968536
O29   O     O_2   0.695270 0.728574 0.510041 -0.678882
O30   O     O_R   0.664360 0.512069 0.581888 -0.755666
H23   H     H_    0.653530 0.437115 0.537873 0.341016
C64   C     C_2   0.315901 0.478018 0.444482 0.930845
O31   O     O_2   0.305849 0.397530 0.496788 -0.681346
O32   O     O_R   0.344402 0.650026 0.449202 -0.752461
H24   H     H_    0.352851 0.696592 0.498768 0.342420
N3    N     N_R   0.819628 0.202017 0.289183 0.228701
O33   O     O_R   0.808365 0.298150 0.342297 -0.401224
O34   O     O_R   0.864214 0.249437 0.256682 -0.421386
N4    N     N_R   0.182017 0.702001 0.712963 0.228781
O35   O     O_R   0.193376 0.798648 0.659931 -0.400892
O36   O     O_R   0.136976 0.749877 0.744932 -0.420559

loop_
_geom_bond_atom_site_label_1
_geom_bond_atom_site_label_2
_geom_bond_distance
_ccdc_geom_bond_type
C45   C49   1.554717 S    
C33   H11   1.110150 S    
C9    C11   1.409678 A    
C23   C25   1.395719 A    
C61   O25   1.223016 D    
O1    C3    1.329491 A    
C46   C50   1.555059 S    
O2    C4    1.335093 A    
C50   H16   1.110145 S    
C2    O7    1.335026 A    
C4    C31   1.496075 S    
O3    V1    1.970267 S    
C64   O31   1.220231 D    
C21   C23   1.389676 A    
C37   C53   1.215679 T    
O5    C3    1.338469 A    
N1    O22   1.301164 A    
C5    H5    1.084068 S    
O11   C59   1.330021 A    
C6    H6    1.084205 S    
C50   C52   1.557482 S    
O15   C59   1.333418 A    
C64   O32   1.396068 S    
O13   C57   1.329745 A    
C27   H7    1.077554 S    
C62   O27   1.222878 D    
C28   H8    1.077640 S    
N2    O23   1.300996 A    
C5    C21   1.404123 A    
C14   H10   1.076037 S    
C6    C22   1.402922 A    
C45   H17   1.110163 S    
C10   C32   1.413077 A    
C2    C39   1.452209 S    
H13   C51   1.110330 S    
C62   O28   1.399418 S    
C17   C31   1.442109 A    
C13   C15   1.409453 A    
O6    C4    1.332786 A    
C12   C14   1.398398 A    
C17   C25   1.424216 A    
C7    C29   1.393468 A    
C16   C18   1.438286 A    
C8    C30   1.391587 A    
C8    C57   1.463962 S    
C22   C24   1.382230 A    
C7    C58   1.475567 S    
O6    V2    2.023291 S    
C38   C54   1.215610 T    
C24   C26   1.392684 A    
C48   C56   1.482644 S    
O12   C60   1.328738 A    
O15   V3    1.970387 S    
C12   C62   1.491496 S    
C63   O30   1.397194 S    
C34   C48   1.543908 S    
C44   C54   1.484495 S    
C35   C51   1.537496 S    
C46   C48   1.543132 S    
C45   C47   1.543232 S    
O14   V4    2.023143 S    
C36   C44   1.529341 S    
O5    V1    2.011694 S    
C58   O17   1.327037 A    
C34   C42   1.556043 S    
C15   C19   1.441113 A    
C34   H12   1.110189 S    
C41   C43   1.545386 S    
C14   C16   1.409701 A    
O4    V2    1.975645 S    
N4    O36   1.300270 A    
N3    O34   1.300310 A    
C37   C60   1.452166 S    
C40   C56   1.215199 T    
C39   C55   1.215274 T    
C42   C46   1.554103 S    
O14   C58   1.329620 A    
C38   C59   1.452044 S    
C61   O26   1.399222 S    
O1    V2    2.007355 S    
O17   V3    2.002162 S    
C13   H9    1.075908 S    
O2    V1    2.000720 S    
C49   C51   1.557169 S    
O30   H23   1.013473 S    
H2    C30   1.083870 S    
C47   C55   1.482952 S    
H3    C23   1.086133 S    
O4    C2    1.341564 A    
O19   V4    1.752778 S    
C33   C35   1.537315 S    
O11   V4    1.963858 S    
C44   C50   1.545460 S    
O32   H24   1.013167 S    
C42   H20   1.109408 S    
C43   C53   1.484637 S    
C19   C27   1.429742 A    
N3    O33   1.300293 A    
C7    C27   1.410769 A    
C18   C32   1.442755 A    
O26   H21   1.013983 S    
C47   C51   1.544428 S    
C16   C20   1.440656 A    
H14   C52   1.110340 S    
C5    C29   1.389364 A    
O13   V3    2.011564 S    
C1    C40   1.453022 S    
O3    C1    1.341104 A    
C6    C30   1.385174 A    
C35   N3    1.456881 S    
C46   H18   1.110167 S    
C63   O29   1.221366 D    
N2    O24   1.300818 A    
O9    V2    1.753461 S    
N1    O21   1.301340 A    
C26   C64   1.463861 S    
C41   H19   1.109307 S    
O16   V4    1.975770 S    
N4    O35   1.300326 A    
O7    V1    1.956311 S    
C1    O8    1.338009 A    
C19   C21   1.415914 A    
C3    C32   1.493157 S    
O8    V2    1.959681 S    
O28   H22   1.014009 S    
C20   C22   1.415351 A    
C49   H15   1.110109 S    
H4    C24   1.086916 S    
C33   C41   1.556330 S    
C36   N4    1.456945 S    
O18   V4    2.008877 S    
O16   C60   1.332884 A    
C10   C12   1.409075 A    
C15   C17   1.438910 A    
C34   C36   1.536900 S    
C43   C49   1.545250 S    
C41   C45   1.553987 S    
C11   C61   1.490190 S    
O20   V3    1.763847 S    
C10   N2    1.435866 S    
O12   V3    1.960323 S    
C20   C28   1.425437 A    
C18   C26   1.425420 A    
C36   C52   1.537393 S    
C33   C47   1.543797 S    
C11   C13   1.398667 A    
C48   C52   1.544210 S    
H1    C29   1.083721 S    
C42   C44   1.545310 S    
C9    N1    1.438036 S    
O10   V1    1.764546 S    
C35   C43   1.529354 S    
C8    C28   1.408004 A    
C57   O18   1.322978 A    
C9    C31   1.414105 A    
C25   C63   1.473193 S    
