data_mof_unit_8416.cif
_audit_creation_date              2013-03-05T15:52:20-0500
_audit_creation_method            fapswitch 2.2
_symmetry_space_group_name_H-M    P1
_symmetry_Int_Tables_number       1
_space_group_crystal_system       triclinic
_cell_length_a                    10.688992
_cell_length_b                    10.738822
_cell_length_c                    16.913121
_cell_angle_alpha                 80.947347
_cell_angle_beta                  99.057354
_cell_angle_gamma                 118.480863
_cell_volume                      1677.58928189

loop_
_atom_site_label
_atom_site_type_symbol
_atom_site_description
_atom_site_fract_x
_atom_site_fract_y
_atom_site_fract_z
_atom_type_partial_charge
O1    O     O_R   0.754020 0.497590 0.609930 -0.468269
O2    O     O_R   0.481420 0.271390 0.600630 -0.456313
C1    C     C_R   0.384380 0.284796 0.631968 0.507428
O3    O     O_R   0.263810 0.254550 0.589590 -0.491678
O4    O     O_R   0.300820 0.531200 0.560890 -0.460284
C2    C     C_R   0.412651 0.622976 0.601893 0.549211
O5    O     O_R   0.491480 0.744020 0.564270 -0.423633
O6    O     O_R   0.726290 0.693800 0.583010 -0.484521
C3    C     C_R   0.777917 0.619263 0.626388 0.587210
O7    O     O_R   0.747830 0.500190 0.434090 -0.408197
O8    O     O_R   0.475680 0.273800 0.437630 -0.514751
C4    C     C_R   0.347281 0.218469 0.402233 0.563480
O9    O     O_R   0.257620 0.257160 0.413750 -0.469122
O10   O     O_R   0.295080 0.533620 0.397890 -0.397045
C5    C     C_R   0.364944 0.655236 0.361411 0.585051
O11   O     O_R   0.485280 0.746620 0.388440 -0.545184
O12   O     O_R   0.720550 0.696220 0.420010 -0.491922
C6    C     C_R   0.700199 0.582991 0.389725 0.570778
Cr1   Cr    Cr6+3 0.608440 0.389080 0.519680 1.137851
Cr2   Cr    Cr6+3 0.288640 0.400090 0.490760 1.159925
Cr3   Cr    Cr6+3 0.602940 0.710800 0.489510 1.104980
O13   O     O_3   0.500010 0.499990 0.499980 -0.383172
C7    C     C_R   0.361549 0.648006 0.842707 0.038213
C8    C     C_R   0.263112 0.531747 0.801269 -0.080717
C9    C     C_R   0.284861 0.519403 0.725135 -0.067662
C10   C     C_R   0.512627 0.733398 0.732865 0.158702
C11   C     C_R   0.498302 0.731560 0.814585 0.219433
C12   C     C_3   0.104291 0.466887 0.783710 -0.212131
C13   C     C_3   0.126983 0.452598 0.699695 0.106312
C14   C     C_R   0.401412 0.627135 0.686396 -0.023649
H1    H     H_    0.061156 0.542155 0.785649 0.185258
H2    H     H_    0.049228 0.362483 0.819276 0.142012
H3    H     H_    0.082450 0.340447 0.685869 0.149128
C15   C     C_1   0.824709 0.656366 0.705758 0.029587
C16   C     C_1   0.852023 0.683828 0.773868 0.006358
C17   C     C_1   0.365008 0.235119 0.714642 -0.019889
C18   C     C_1   0.334011 0.188062 0.782041 -0.015064
C19   C     C_1   0.336805 0.667924 0.278203 0.078965
C20   C     C_1   0.325050 0.677078 0.207109 0.083403
C21   C     C_R   0.780367 0.644084 0.143305 0.001780
C22   C     C_R   0.741961 0.512875 0.189129 -0.041965
C23   C     C_R   0.711863 0.493291 0.266861 -0.079996
C24   C     C_R   0.708750 0.716066 0.251547 -0.071627
C25   C     C_R   0.738261 0.736335 0.170253 0.193150
C26   C     C_3   0.776119 0.389476 0.202630 0.416974
C27   C     C_3   0.740602 0.368647 0.289894 0.118228
C28   C     C_R   0.709740 0.598837 0.303229 -0.021548
H4    H     H_    0.688438 0.793097 0.274047 0.189477
H5    H     H_    0.643718 0.270427 0.303588 0.091456
C29   C     C_R   0.255087 0.040012 0.181862 -0.019096
C30   C     C_R   0.148483 0.047207 0.215375 -0.063573
C31   C     C_R   0.168751 0.083341 0.292616 0.004903
C32   C     C_R   0.389314 0.071924 0.315266 -0.147714
C33   C     C_R   0.368242 0.034148 0.235828 -0.162557
C34   C     C_3   0.048638 0.109585 0.185456 0.200765
C35   C     C_3   0.069013 0.148578 0.270699 0.425905
C36   C     C_R   0.300831 0.120370 0.338963 0.016721
H6    H     H_    0.480028 0.074470 0.355077 0.160214
H7    H     H_    0.445848 0.011788 0.215400 0.175105
H8    H     H_    0.939582 0.029386 0.167492 0.228468
O14   O     O_R   0.163320 0.092900 0.874450 -0.496934
O15   O     O_R   0.934650 0.822080 0.882840 -0.484043
C37   C     C_R   0.891646 0.701628 0.856127 0.542184
O16   O     O_R   0.915520 0.604140 0.893670 -0.520599
O17   O     O_R   0.191760 0.638110 0.923230 -0.518825
C38   C     C_R   0.318366 0.703904 0.900970 0.576859
O18   O     O_R   0.406180 0.826930 0.920660 -0.432927
O19   O     O_R   0.358620 0.062870 0.901950 -0.476957
C39   C     C_R   0.286736 0.118915 0.858742 0.559456
O20   O     O_R   0.163910 0.085460 0.050210 -0.475638
O21   O     O_R   0.935200 0.815170 0.045770 -0.520198
C40   C     C_R   0.877723 0.687096 0.080206 0.542267
O22   O     O_R   0.916120 0.596690 0.069430 -0.442336
O23   O     O_R   0.192310 0.631200 0.086170 -0.431280
C41   C     C_R   0.313383 0.701498 0.123666 0.559146
O24   O     O_R   0.406770 0.819480 0.096420 -0.509166
O25   O     O_R   0.359170 0.055960 0.064880 -0.494809
C42   C     C_R   0.244671 0.035405 0.094750 0.551847
Cr4   Cr    Cr6+3 0.052530 0.947560 0.964210 1.075303
Cr5   Cr    Cr6+3 0.059970 0.626800 0.992920 1.123656
Cr6   Cr    Cr6+3 0.373320 0.938440 0.995370 1.114943
O26   O     O_3   0.161940 0.837600 0.984160 -0.314155
N1    N     N_R   0.617702 0.862184 0.694415 0.093898
O27   O     O_R   0.749366 0.886247 0.697198 -0.357645
O28   O     O_R   0.585963 0.965043 0.667515 -0.262279
O29   O     O_3   0.680242 0.274826 0.157734 -0.655874
H9    H     H_    0.583578 0.268056 0.153790 0.307095
N2    N     N_R   0.860220 0.391547 0.351867 0.145138
O30   O     O_R   0.850246 0.286308 0.405037 -0.280309
O31   O     O_R   0.963299 0.518698 0.363460 -0.232513
O32   O     O_3   0.099449 0.228502 0.127676 -0.603233
H10   H     H_    0.205470 0.275375 0.131929 0.357809
N3    N     N_R   0.136799 0.301515 0.276357 0.153780
O33   O     O_R   0.265731 0.382832 0.255516 -0.427193
O34   O     O_R   0.080012 0.351377 0.316726 -0.199109
O35   O     O_3   0.942343 0.073095 0.309111 -0.672620
H11   H     H_    0.970810 0.077464 0.367771 0.356257
O36   O     O_3   0.608317 0.825394 0.863775 -0.664579
H12   H     H_    0.699258 0.866036 0.838920 0.365061
N4    N     N_R   0.085587 0.540655 0.637066 0.098969
O37   O     O_R   0.006442 0.485092 0.572654 -0.234866
O38   O     O_R   0.130446 0.674959 0.643621 -0.322064
O39   O     O_3   0.722222 0.843147 0.120151 -0.677902
H13   H     H_    0.716861 0.825433 0.063684 0.355344
N5    N     N_R   0.924669 0.430026 0.194201 0.185155
O40   O     O_R   0.952750 0.362652 0.147844 -0.193878
O41   O     O_R   0.025842 0.550755 0.217162 -0.327386

loop_
_geom_bond_atom_site_label_1
_geom_bond_atom_site_label_2
_geom_bond_distance
_ccdc_geom_bond_type
C34   C35   1.518381 S    
C11   O36   1.384212 S    
C10   N1    1.436159 S    
C18   C39   1.426528 S    
O20   C42   1.308432 A    
C22   C23   1.363000 A    
C41   O24   1.252572 A    
C6    C28   1.459988 S    
O21   Cr4   1.929763 S    
Cr6   O26   1.977341 S    
O4    Cr2   1.925688 S    
C32   C33   1.417567 A    
N5    O41   1.300081 A    
C27   H5    1.093392 S    
O8    Cr1   1.928008 S    
C10   C11   1.410428 A    
N3    O33   1.301702 A    
O19   Cr6   1.940200 S    
C7    C38   1.462198 S    
C17   C18   1.201054 T    
O7    C6    1.309355 A    
C19   C20   1.182504 T    
C5    O11   1.256460 A    
O36   H12   0.989139 S    
C13   H3    1.112920 S    
C15   C16   1.190848 T    
C23   C27   1.492708 S    
C34   O32   1.411983 S    
O19   C39   1.269849 A    
C7    C8    1.395464 A    
C20   C41   1.391154 S    
C24   H4    1.082879 S    
O9    Cr2   2.042073 S    
C38   O18   1.262817 A    
O2    Cr1   1.928572 S    
N3    O34   1.294918 A    
O17   Cr5   1.924321 S    
O23   Cr5   1.935964 S    
C34   H8    1.098284 S    
O16   Cr5   2.053092 S    
C29   C42   1.466835 S    
C25   O39   1.378070 S    
C26   N5    1.457225 S    
C29   C30   1.388090 A    
C27   N2    1.467378 S    
C33   H7    1.082343 S    
C9    C13   1.503841 S    
C35   N3    1.457463 S    
O1    Cr1   2.047375 S    
O23   C41   1.267832 A    
C30   C31   1.376370 A    
O10   Cr2   1.938878 S    
O15   Cr4   1.927615 S    
C12   H2    1.111381 S    
Cr1   O13   1.985697 S    
O1    C3    1.274270 A    
C8    C9    1.380968 A    
Cr5   O26   1.981559 S    
O32   H10   0.992217 S    
C32   C36   1.407156 A    
O29   H9    0.992724 S    
O6    C3    1.261936 A    
O25   C42   1.305280 A    
O12   Cr3   1.922886 S    
C24   C25   1.419224 A    
C5    C19   1.391037 S    
O15   C37   1.280632 A    
N1    O27   1.298370 A    
O25   Cr6   1.924218 S    
O7    Cr1   2.044297 S    
O8    C4    1.292514 A    
O35   H11   0.992509 S    
N4    O38   1.302438 A    
O12   C6    1.302632 A    
C29   C33   1.416665 A    
C4    O9    1.262185 A    
C4    C36   1.479873 S    
C21   C22   1.399794 A    
N1    O28   1.301092 A    
Cr2   O13   1.977335 S    
C10   C14   1.423857 A    
C7    C11   1.414836 A    
C3    C15   1.406336 S    
C1    O3    1.289708 A    
O14   C39   1.274519 A    
C9    C14   1.401286 A    
C35   O35   1.406011 S    
C12   C13   1.521222 S    
C21   C40   1.473544 S    
C13   N4    1.465709 S    
C2    C14   1.462300 S    
O20   Cr4   2.043816 S    
C12   H1    1.111535 S    
C8    C12   1.494640 S    
N2    O31   1.303179 A    
C40   O22   1.266285 A    
O6    Cr3   1.937717 S    
O24   Cr6   2.058379 S    
Cr4   O26   1.985796 S    
C32   H6    1.081327 S    
O11   Cr3   2.056543 S    
O18   Cr6   2.042305 S    
C2    O5    1.291698 A    
N5    O40   1.299249 A    
O2    C1    1.310374 A    
O21   C40   1.289567 A    
O5    Cr3   2.041336 S    
O4    C2    1.308301 A    
C1    C17   1.426096 S    
O14   Cr4   2.049570 S    
N4    O37   1.300577 A    
O22   Cr5   2.040565 S    
C26   O29   1.410149 S    
C30   C34   1.499644 S    
C23   C28   1.382703 A    
C31   C36   1.407119 A    
C37   O16   1.248563 A    
O3    Cr2   2.056486 S    
C26   C27   1.537515 S    
C21   C25   1.422540 A    
N2    O30   1.301059 A    
O17   C38   1.279500 A    
O39   H13   0.990510 S    
C22   C26   1.510457 S    
O10   C5    1.267020 A    
C16   C37   1.404450 S    
Cr3   O13   1.981556 S    
C24   C28   1.418635 A    
C31   C35   1.506964 S    
