data_mof_unit_27203.cif
_audit_creation_date              2012-12-10T20:41:46-0500
_audit_creation_method            fapswitch 2.2
_symmetry_space_group_name_H-M    P1
_symmetry_Int_Tables_number       1
_space_group_crystal_system       triclinic
_cell_length_a                    15.054733
_cell_length_b                    15.121475
_cell_length_c                    9.873126
_cell_angle_alpha                 89.99998
_cell_angle_beta                  89.698217
_cell_angle_gamma                 89.999817
_cell_volume                      2247.58367309

loop_
_atom_site_label
_atom_site_type_symbol
_atom_type_description
_atom_site_fract_x
_atom_site_fract_y
_atom_site_fract_z
_atom_type_partial_charge
C1    C     C_R   0.381507 0.878786 0.500204 0.918362
C2    C     C_R   0.923273 0.484805 0.071992 0.103861
C3    C     C_R   0.577011 0.993368 0.071109 0.703140
C4    C     C_R   0.077013 0.506608 0.071109 0.703161
C5    C     C_R   0.576967 0.993321 0.927219 -0.250403
C6    C     C_R   0.076969 0.506655 0.927219 -0.250419
C7    C     C_R   0.423279 0.015354 0.929539 0.213216
C8    C     C_R   0.923275 0.484669 0.929540 0.213216
C9    C     C_3   0.340658 0.961197 0.925259 -0.495174
C10   C     C_3   0.840668 0.538849 0.925254 -0.495148
C11   C     C_3   0.340809 0.961039 0.078925 -0.456938
C12   C     C_R   0.383475 0.123246 0.500125 0.915342
C13   C     C_3   0.840821 0.539014 0.078922 -0.456925
C14   C     C_R   0.622153 0.117701 0.499843 0.984651
C15   C     C_R   0.621011 0.881449 0.499859 0.981560
C16   C     C_R   0.121013 0.618549 0.499859 0.981552
C17   C     C_R   0.122156 0.382301 0.499842 0.984631
C18   C     C_R   0.281301 0.217938 0.620073 0.068882
C19   C     C_R   0.256287 0.806772 0.602510 0.016424
C20   C     C_R   0.756269 0.693208 0.602488 0.016421
C21   C     C_R   0.781266 0.282097 0.620062 0.068868
C22   C     C_R   0.328926 0.200096 0.502135 -0.173940
C23   C     C_R   0.883473 0.376756 0.500126 0.915340
C24   C     C_R   0.321375 0.806975 0.502214 -0.167547
C25   C     C_R   0.821372 0.693023 0.502216 -0.167535
C26   C     C_R   0.828914 0.299914 0.502138 -0.173949
C27   C     C_R   0.323931 0.259310 0.391307 -0.185980
C28   C     C_R   0.329625 0.735140 0.411602 -0.181646
C29   C     C_R   0.829634 0.764869 0.411632 -0.181656
C30   C     C_R   0.823937 0.240684 0.391329 -0.185995
C31   C     C_R   0.763726 0.829328 0.411946 0.602773
C32   C     C_R   0.757052 0.177119 0.391583 0.613440
C33   C     C_R   0.257045 0.322875 0.391562 0.613442
C34   C     C_R   0.881508 0.621214 0.500205 0.918366
C35   C     C_R   0.263718 0.670679 0.411919 0.602750
C36   C     C_R   0.691919 0.820783 0.501866 -0.201590
C37   C     C_R   0.697756 0.173446 0.501763 -0.222634
C38   C     C_R   0.197766 0.326564 0.501761 -0.222653
C39   C     C_R   0.191924 0.679210 0.501867 -0.201605
C40   C     C_R   0.692126 0.756815 0.602408 -0.062398
C41   C     C_R   0.716292 0.219722 0.619691 -0.057954
C42   C     C_R   0.216327 0.280312 0.619703 -0.057968
C43   C     C_R   0.192147 0.743164 0.602430 -0.062390
C44   C     C_3   0.620654 0.692945 0.641106 0.516686
C45   C     C_3   0.229854 0.157739 0.711606 -0.510448
C46   C     C_3   0.657074 0.272918 0.710421 0.521558
C47   C     C_3   0.157132 0.227140 0.710497 0.521581
C48   C     C_3   0.120679 0.807024 0.641185 0.516703
C49   C     C_1   0.383257 0.254609 0.275739 0.357408
C50   C     C_1   0.402978 0.727389 0.317105 0.390698
C51   C     C_1   0.903003 0.772635 0.317167 0.390681
C52   C     C_1   0.883281 0.245367 0.275782 0.357390
C53   C     C_3   0.191702 0.877942 0.640449 -0.497978
C54   C     C_3   0.691681 0.622031 0.640373 -0.497990
C55   C     C_3   0.729796 0.342319 0.711531 -0.510452
C56   C     C_R   0.423278 0.015220 0.071992 0.103873
F1    F     F_    0.768357 0.898335 0.323928 -0.573849
F2    F     F_    0.154861 0.515316 0.137728 -0.542959
F3    F     F_    0.747693 0.122498 0.283180 -0.575412
F4    F     F_    0.247667 0.377475 0.283139 -0.575422
F5    F     F_    0.268338 0.601686 0.323875 -0.573864
F6    F     F_    0.558949 0.681187 0.539098 -0.655382
F7    F     F_    0.581261 0.301800 0.644894 -0.641741
F8    F     F_    0.081303 0.198242 0.645031 -0.641725
F9    F     F_    0.058953 0.818795 0.539210 -0.655386
F10   F     F_    0.654857 0.984639 0.137728 -0.542982
H1    H     H_    0.284356 0.998365 0.124068 0.215203
H2    H     H_    0.204120 0.905046 0.742810 0.160477
H3    H     H_    0.704083 0.594910 0.742729 0.160471
H4    H     H_    0.761826 0.349167 0.812121 0.171486
H5    H     H_    0.211048 0.094468 0.661936 0.216585
H6    H     H_    0.183385 0.928342 0.559399 0.226830
H7    H     H_    0.683381 0.571645 0.559303 0.226828
H8    H     H_    0.711002 0.405578 0.661813 0.216582
H9    H     H_    0.638919 0.986189 0.872288 0.189716
H10   H     H_    0.138923 0.513768 0.872288 0.189704
H11   H     H_    0.284161 0.998914 0.882579 0.196350
H12   H     H_    0.352165 0.894344 0.122972 0.219112
H13   H     H_    0.351581 0.894593 0.880440 0.227130
H14   H     H_    0.851606 0.605446 0.880425 0.227146
H15   H     H_    0.784162 0.501143 0.882584 0.196335
H16   H     H_    0.852200 0.605708 0.122958 0.219112
H17   H     H_    0.784355 0.501710 0.124073 0.215203
H18   H     H_    0.591097 0.706469 0.742408 0.089848
H19   H     H_    0.644437 0.241152 0.810208 0.096946
H20   H     H_    0.144520 0.258932 0.810272 0.096955
H21   H     H_    0.091145 0.793481 0.742497 0.089846
H22   H     H_    0.261909 0.150916 0.812182 0.171502
N1    N     N_R   0.499140 0.000000 0.142800 -0.177420
N2    N     N_R   0.999140 0.500000 0.142800 -0.177422
N3    N     N_R   0.499160 1.000000 0.857150 -0.140474
N4    N     N_R   0.999160 0.500000 0.857150 -0.140468
N5    N     N_1   0.430690 0.250899 0.183266 -0.174285
N6    N     N_1   0.461683 0.721266 0.241524 -0.150007
N7    N     N_1   0.961721 0.778770 0.241612 -0.149997
N8    N     N_1   0.930729 0.249064 0.183324 -0.174239
O1    O     O_R   0.408400 0.908380 0.614690 -0.612306
O2    O     O_R   0.591610 0.908390 0.614650 -0.648843
O3    O     O_R   0.091610 0.591610 0.614650 -0.648834
O4    O     O_R   0.091610 0.408390 0.614650 -0.631417
O5    O     O_R   0.591590 0.091600 0.385310 -0.538170
O6    O     O_R   0.591590 0.908400 0.385310 -0.530437
O7    O     O_R   0.091590 0.591600 0.385310 -0.530461
O8    O     O_R   0.091590 0.408400 0.385310 -0.538159
O9    O     O_R   0.408400 0.091620 0.614690 -0.599603
O10   O     O_R   0.908400 0.408380 0.614690 -0.599584
O11   O     O_R   0.908400 0.591620 0.614690 -0.612305
O12   O     O_R   0.408370 0.908370 0.385350 -0.646865
O13   O     O_R   0.408370 0.091630 0.385350 -0.639673
O14   O     O_R   0.908370 0.408370 0.385350 -0.639671
O15   O     O_R   0.908370 0.591630 0.385350 -0.646862
O16   O     O_R   0.591610 0.091610 0.614650 -0.631436
Zn1   Zn    Zn3+2 0.500010 1.000000 0.653130 0.973685
Zn2   Zn    Zn3+2 0.000010 0.500000 0.653130 0.973703
Zn3   Zn    Zn3+2 0.499980 1.000000 0.346870 1.052124
Zn4   Zn    Zn3+2 0.999980 0.500000 0.346870 1.052118

loop_
_geom_bond_atom_site_label_1
_geom_bond_atom_site_label_2
_ccdc_geom_bond_type
C21   C26   A    
N1    Zn3   S    
C45   H5    S    
O3    Zn2   S    
C27   C33   A    
C14   O16   A    
O10   Zn2   S    
C34   O11   A    
O12   Zn3   S    
O9    Zn1   S    
C17   O8    A    
C38   C42   A    
C18   C42   A    
C12   O9    A    
C20   C40   A    
C20   C25   A    
C12   C22   S    
C9    H13   S    
C23   C26   S    
C2    N2    A    
C53   H2    S    
O16   Zn1   S    
O6    Zn3   S    
O8    Zn4   S    
C55   H8    S    
C28   C50   S    
C28   C35   A    
C19   C43   A    
C46   C55   S    
C41   C46   S    
C52   N8    T    
O15   Zn4   S    
C8    N4    A    
N2    Zn4   S    
C48   F9    S    
C43   C48   S    
C25   C34   S    
C3    C5    A    
C46   H19   S    
C19   C53   S    
C34   O15   A    
C7    C56   A    
C12   O13   A    
C11   H1    S    
C4    N2    A    
C45   C47   S    
C25   C29   A    
C48   C53   S    
C47   H20   S    
C36   C40   A    
C45   H22   S    
O4    Zn2   S    
C20   C54   S    
C1    O1    A    
C47   F8    S    
C21   C55   S    
C10   H14   S    
C50   N6    T    
C14   O5    A    
C39   C43   A    
C16   C39   S    
C44   F6    S    
C23   O10   A    
C13   H16   S    
N3    Zn1   S    
C5    H9    S    
C35   C39   A    
O11   Zn2   S    
C11   H12   S    
C54   H7    S    
C16   O7    A    
C7    N3    A    
C48   H21   S    
C35   F5    S    
C9    H11   S    
C32   C37   A    
C9    C11   S    
C5    N3    A    
C21   C41   A    
C4    C6    A    
C56   N1    A    
C26   C30   A    
C33   F4    S    
C22   C27   A    
O5    Zn3   S    
C3    F10   S    
C15   O2    A    
O1    Zn1   S    
C18   C45   S    
O14   Zn4   S    
C15   C36   S    
C29   C51   S    
C7    C9    S    
C23   O14   A    
C30   C52   S    
C18   C22   A    
C2    C8    A    
C24   C28   A    
O2    Zn1   S    
C10   C13   S    
C16   O3    A    
C6    H10   S    
C13   H17   S    
C10   H15   S    
C33   C38   A    
C44   H18   S    
C46   F7    S    
C3    N1    A    
C31   F1    S    
C19   C24   A    
C29   C31   A    
C14   C37   S    
C30   C32   A    
C54   H3    S    
C6    N4    A    
O7    Zn4   S    
C42   C47   S    
C15   O6    A    
C37   C41   A    
C17   O4    A    
C55   H4    S    
O13   Zn3   S    
C1    O12   A    
C44   C54   S    
C40   C44   S    
C2    C13   S    
C17   C38   S    
C1    C24   S    
C8    C10   S    
C4    F2    S    
C31   C36   A    
C32   F3    S    
C49   N5    T    
C53   H6    S    
N4    Zn2   S    
C11   C56   S    
C27   C49   S    
C51   N7    T    
