data_mof_unit_57779.cif
_audit_creation_date              2012-12-10T17:41:27-0500
_audit_creation_method            fapswitch 2.2
_symmetry_space_group_name_H-M    P1
_symmetry_Int_Tables_number       1
_space_group_crystal_system       triclinic
_cell_length_a                    15.037152
_cell_length_b                    13.852813
_cell_length_c                    14.306952
_cell_angle_alpha                 90.353679
_cell_angle_beta                  85.473343
_cell_angle_gamma                 89.721722
_cell_volume                      2970.84069561

loop_
_atom_site_label
_atom_site_type_symbol
_atom_type_description
_atom_site_fract_x
_atom_site_fract_y
_atom_site_fract_z
_atom_type_partial_charge
C1    C     C_R   0.328887 0.500150 0.498909 0.845321
C2    C     C_R   0.671140 0.499852 0.499562 0.809717
C3    C     C_R   0.952925 0.497140 0.503958 0.015307
C4    C     C_R   0.046304 0.496008 0.503043 0.032580
C5    C     C_R   0.910817 0.432971 0.444884 0.033341
C6    C     C_R   0.088575 0.561677 0.560491 0.046287
C7    C     C_R   0.944825 0.624196 0.624721 0.412419
C8    C     C_R   0.053905 0.362996 0.388442 0.396873
C9    C     C_R   0.037991 0.623651 0.621479 -0.261197
C10   C     C_R   0.960996 0.366596 0.388418 -0.204904
C11   C     C_R   0.437938 0.796022 0.556230 0.541579
C12   C     C_R   0.563406 0.200740 0.449201 0.565966
C13   C     C_R   0.563845 0.796972 0.446465 0.548556
C14   C     C_R   0.435119 0.208442 0.560774 0.477123
C15   C     C_R   0.577574 0.897144 0.468901 -0.213046
C16   C     C_R   0.428284 0.102560 0.559156 -0.196600
C17   C     C_R   0.428507 0.896462 0.540080 -0.206096
C18   C     C_R   0.575963 0.102090 0.472982 -0.214038
C19   C     C_R   0.503478 0.948774 0.508898 -0.053946
C20   C     C_R   0.502098 0.051537 0.513058 -0.050334
C21   C     C_R   0.659870 0.947594 0.452639 0.350191
C22   C     C_R   0.351437 0.042448 0.593542 0.349331
C23   C     C_R   0.349044 0.946580 0.560900 0.385899
C24   C     C_R   0.658968 0.051548 0.456524 0.371647
C25   C     C_R   0.500413 0.499747 0.331174 0.824276
C26   C     C_R   0.501676 0.500320 0.668675 0.858561
C27   C     C_1   0.500678 0.499339 0.228840 -0.089654
C28   C     C_1   0.501745 0.500750 0.771007 -0.087760
C29   C     C_1   0.500938 0.499463 0.143350 0.041327
C30   C     C_1   0.501610 0.500697 0.856487 0.058659
C31   C     C_1   0.501205 0.499891 0.042668 0.069427
C32   C     C_1   0.501401 0.500313 0.957167 0.074878
C33   C     C_R   0.818561 0.435576 0.443132 -0.098828
C34   C     C_R   0.181271 0.563804 0.557182 -0.162127
C35   C     C_R   0.767626 0.499536 0.500901 -0.080573
C36   C     C_R   0.232121 0.499395 0.499736 -0.083533
C37   C     C_R   0.808463 0.562440 0.560805 -0.104785
C38   C     C_R   0.190744 0.431473 0.445368 -0.104057
C39   C     C_R   0.901548 0.562260 0.563701 0.001193
C40   C     C_R   0.097504 0.429323 0.444956 0.000617
Cu1   Cu    Cu3+1 0.500000 0.597420 0.500000 1.115584
Cu2   Cu    Cu3+1 0.500000 0.402580 0.500000 1.100446
H1    H     H_    0.071594 0.670996 0.667665 0.208106
H2    H     H_    0.927142 0.316938 0.344589 0.224167
N1    N     N_R   0.500000 0.743810 0.500000 -0.289367
N2    N     N_R   0.500000 0.256190 0.500000 -0.292339
O1    O     O_R   0.370260 0.582280 0.500020 -0.543498
O2    O     O_R   0.629740 0.417720 0.499980 -0.551791
O3    O     O_R   0.629740 0.582280 0.499980 -0.537901
O4    O     O_R   0.370260 0.417720 0.500020 -0.523209
O5    O     O_R   0.500000 0.582290 0.376050 -0.513903
O6    O     O_R   0.500000 0.417710 0.623950 -0.524200
O7    O     O_R   0.500000 0.582290 0.623950 -0.509037
O8    O     O_R   0.500000 0.417710 0.376050 -0.516308
H3    H     H_    0.786499 0.388957 0.395443 0.220333
H4    H     H_    0.213759 0.614117 0.600947 0.219482
H5    H     H_    0.766402 0.610110 0.605226 0.212765
H6    H     H_    0.232573 0.382206 0.402483 0.207809
S1    S     S_3+6 0.885277 0.699991 0.708634 0.043986
O9    O     O_2   0.828352 0.638255 0.775208 -0.270988
O10   O     O_2   0.948286 0.757775 0.763048 -0.221533
O11   O     O_3   0.819277 0.775938 0.654095 -0.483352
H7    H     H_    0.783010 0.809765 0.705154 0.405025
S2    S     S_3+6 0.112738 0.274579 0.317367 0.061517
O12   O     O_2   0.164737 0.210951 0.378389 -0.227054
O13   O     O_2   0.049536 0.213485 0.266410 -0.199797
O14   O     O_3   0.183657 0.330092 0.238555 -0.528994
H8    H     H_    0.221022 0.277611 0.208683 0.396518
S3    S     S_3+6 0.410886 0.759632 0.674249 0.083176
O15   O     O_2   0.496293 0.738282 0.718296 -0.278672
O16   O     O_2   0.364797 0.838714 0.731204 -0.210966
O17   O     O_3   0.344955 0.662126 0.680130 -0.534007
H9    H     H_    0.337406 0.645800 0.747587 0.365846
S4    S     S_3+6 0.597681 0.233317 0.331612 0.087239
O18   O     O_2   0.652060 0.323885 0.328086 -0.293422
O19   O     O_2   0.651543 0.153796 0.282203 -0.221816
O20   O     O_3   0.505619 0.251027 0.274241 -0.514808
H10   H     H_    0.528022 0.270295 0.210124 0.375866
S5    S     S_3+6 0.594500 0.762087 0.328190 0.105172
O21   O     O_2   0.511117 0.739801 0.280948 -0.269217
O22   O     O_2   0.640856 0.843034 0.275002 -0.210002
O23   O     O_3   0.662106 0.664840 0.323225 -0.489300
H11   H     H_    0.669025 0.646302 0.256060 0.368261
S6    S     S_3+6 0.352318 0.271275 0.638246 0.090446
O24   O     O_2   0.264817 0.248228 0.599535 -0.246800
O25   O     O_2   0.359498 0.229367 0.733429 -0.215749
O26   O     O_3   0.345259 0.389352 0.664430 -0.533613
H12   H     H_    0.287893 0.397926 0.702747 0.368750
S7    S     S_3+6 0.762821 0.880529 0.437958 0.132840
O27   O     O_2   0.748440 0.775167 0.457805 -0.253195
O28   O     O_2   0.802459 0.891695 0.338876 -0.165407
O29   O     O_3   0.837332 0.919765 0.510695 -0.419027
H13   H     H_    0.893463 0.885090 0.490661 0.399139
S8    S     S_3+6 0.285657 0.047266 0.705754 0.163565
O30   O     O_2   0.348092 0.054022 0.782627 -0.205219
O31   O     O_2   0.217579 0.126812 0.716165 -0.154549
O32   O     O_3   0.225622 0.946213 0.724989 -0.420997
H14   H     H_    0.201395 0.950590 0.791320 0.397064
S9    S     S_3+6 0.249235 0.897713 0.522833 0.102674
O33   O     O_2   0.177477 0.973939 0.526406 -0.189108
O34   O     O_2   0.266922 0.862120 0.423620 -0.251771
O35   O     O_3   0.214920 0.804468 0.590535 -0.473829
H15   H     H_    0.156257 0.786987 0.568628 0.368036
S10   S     S_3+6 0.760230 0.117609 0.464677 0.097421
O36   O     O_2   0.828083 0.088990 0.386553 -0.165057
O37   O     O_2   0.745797 0.224600 0.461649 -0.307990
O38   O     O_3   0.800138 0.093738 0.568637 -0.458076
H16   H     H_    0.858241 0.127356 0.566948 0.395039

loop_
_geom_bond_atom_site_label_1
_geom_bond_atom_site_label_2
_ccdc_geom_bond_type
C2    C35   S    
C33   H3    S    
C23   S9    S    
O26   H12   S    
C13   S5    S    
C34   H4    S    
C12   S4    S    
C27   C29   T    
O35   H15   S    
Cu1   Cu2   S    
C19   C20   A    
S6    O26   S    
C14   S6    S    
C6    C9    A    
S10   O37   D    
O32   H14   S    
C14   N2    A    
C21   S7    S    
O20   H10   S    
C15   C19   A    
C17   C23   A    
S4    O19   D    
C18   C24   A    
C7    C39   A    
C35   C37   A    
S6    O25   D    
Cu2   N2    S    
Cu1   O3    S    
S3    O16   D    
C33   C35   A    
C38   H6    S    
C4    C40   A    
S4    O20   S    
C5    C33   A    
O38   H16   S    
S7    O28   D    
C1    O4    A    
C18   C20   A    
C3    C39   A    
S1    O9    D    
C38   C40   A    
C22   S8    S    
S3    O15   D    
C7    S1    S    
S10   O36   D    
C37   C39   A    
S1    O10   D    
C9    H1    S    
S4    O18   D    
C10   H2    S    
O14   H8    S    
S2    O14   S    
C25   O8    A    
C4    C6    A    
S5    O22   D    
C1    O1    A    
S8    O32   S    
C2    O2    A    
C6    C34   A    
C24   S10   S    
S2    O13   D    
S3    O17   S    
C25   O5    A    
O11   H7    S    
C2    O3    A    
C26   O6    A    
C31   C32   T    
C16   C20   A    
Cu1   O1    S    
Cu2   O2    S    
S6    O24   D    
S7    O29   S    
S8    O31   D    
Cu1   O7    S    
Cu2   O4    S    
C12   N2    A    
S9    O34   D    
C8    S2    S    
C13   C15   A    
C14   C16   A    
C11   N1    A    
C3    C4    A    
C26   O7    A    
C13   N1    A    
C7    C9    A    
C11   C17   A    
S1    O11   S    
C16   C22   A    
O17   H9    S    
C3    C5    A    
S5    O23   S    
C11   S3    S    
C25   C27   S    
C26   C28   S    
S9    O33   D    
S2    O12   D    
C28   C30   T    
C5    C10   A    
C29   C31   S    
Cu2   O8    S    
C30   C32   S    
C36   C38   A    
O29   H13   S    
C17   C19   A    
C34   C36   A    
S8    O30   D    
S5    O21   D    
C15   C21   A    
S9    O35   S    
C8    C10   A    
O23   H11   S    
C21   C24   A    
C12   C18   A    
Cu1   N1    S    
C22   C23   A    
C8    C40   A    
S7    O27   D    
Cu1   O5    S    
S10   O38   S    
C37   H5    S    
C1    C36   S    
Cu2   O6    S    
