data_mof_unit_33681.cif
_audit_creation_date              2012-10-26T21:24:48-0400
_audit_creation_method            fapswitch 2.2
_symmetry_space_group_name_H-M    P1
_symmetry_Int_Tables_number       1
_space_group_crystal_system       triclinic
_cell_length_a                    9.53446
_cell_length_b                    10.861367
_cell_length_c                    15.540875
_cell_angle_alpha                 89.88431
_cell_angle_beta                  74.067161
_cell_angle_gamma                 90.020196
_cell_volume                      1547.54136606

loop_
_atom_site_label
_atom_site_type_symbol
_atom_type_description
_atom_site_fract_x
_atom_site_fract_y
_atom_site_fract_z
_atom_type_partial_charge
C1    C     C_R   0.999916 0.262671 0.499805 0.549719
C2    C     C_R   0.243884 0.608564 0.054762 0.079078
C3    C     C_R   0.334629 0.542865 0.097966 0.008389
C4    C     C_R   0.917246 0.497942 0.672352 0.571653
C5    C     C_R   0.097348 0.635233 0.101341 0.095045
C6    C     C_R   0.041869 0.594031 0.189685 -0.121800
C7    C     C_R   0.272811 0.498634 0.184918 -0.147650
C8    C     C_R   0.119846 0.062022 0.502573 0.021512
C9    C     C_R   0.998747 0.130071 0.498601 0.012001
C10   C     C_R   0.873472 0.064535 0.493243 -0.160364
C11   C     C_R   0.873628 0.935371 0.493009 -0.159542
C12   C     C_R   0.677350 0.513592 0.911704 0.029844
C13   C     C_R   0.999038 0.869920 0.498192 0.011192
C14   C     C_R   0.120080 0.938069 0.502251 0.021078
C15   C     C_3   0.271728 0.929305 0.510640 -0.264282
C16   C     C_R   0.000059 0.737324 0.499550 0.550140
C17   C     C_3   0.271374 0.071100 0.511073 -0.271386
C18   C     C_R   0.592831 0.591536 0.457454 0.159751
C19   C     C_R   0.552406 0.416900 0.549228 0.011159
C20   C     C_R   0.403419 0.416926 0.549260 -0.013350
C21   C     C_R   0.445288 0.591670 0.457554 0.159533
C22   C     C_3   0.483110 0.622638 0.360382 -0.274310
C23   C     C_R   0.779886 0.483023 0.958965 0.017408
C24   C     C_3   0.642125 0.622100 0.360284 -0.289644
C25   C     C_R   0.082290 0.503691 0.328111 0.545763
C26   C     C_R   0.869812 0.494634 0.771149 0.037526
C27   C     C_R   0.129532 0.526902 0.231583 -0.023653
C28   C     C_R   0.926772 0.465411 0.912615 -0.161677
C29   C     C_R   0.972336 0.477076 0.819787 -0.184088
C30   C     C_R   0.720223 0.503299 0.817282 0.217565
C31   C     C_R   0.534552 0.550019 0.960328 0.020498
C32   C     C_R   0.484465 0.523565 0.052921 0.032511
C33   C     C_R   0.587541 0.484504 0.097749 -0.133279
C34   C     C_R   0.734009 0.469778 0.051797 -0.136090
C35   C     C_R   0.444602 0.619600 0.920161 -0.155789
C36   C     C_R   0.302561 0.649176 0.966697 -0.132449
Cu1   Cu    Cu3+1 0.140670 0.499980 0.500000 0.934182
Cu2   Cu    Cu3+1 0.859330 0.500020 0.500000 0.967228
H1    H     H_    0.811122 0.445390 0.088906 0.114732
H2    H     H_    0.456170 0.547360 0.319514 0.148804
H3    H     H_    0.334447 0.441487 0.218175 0.116248
H4    H     H_    0.443044 0.715130 0.347802 0.124250
H5    H     H_    0.704645 0.546015 0.319528 0.144317
H6    H     H_    0.694276 0.714394 0.347810 0.119720
H7    H     H_    0.932476 0.619391 0.226997 0.111517
H8    H     H_    0.238763 0.703138 0.932519 0.144967
H9    H     H_    0.006886 0.444628 0.948342 0.122069
H10   H     H_    0.087167 0.466692 0.785812 0.137053
H11   H     H_    0.559924 0.471876 0.169218 0.095888
H12   H     H_    0.775568 0.112273 0.489534 0.132033
H13   H     H_    0.484964 0.656146 0.853128 0.169822
H14   H     H_    0.987813 0.660297 0.008377 0.229705
H15   H     H_    0.906591 0.726892 0.106183 0.229758
H16   H     H_    0.534272 0.442231 0.807383 0.315636
H17   H     H_    0.775830 0.887562 0.489125 0.135090
H18   H     H_    0.275649 0.887875 0.575399 0.145092
H19   H     H_    0.348438 0.889186 0.450121 0.132466
H20   H     H_    0.274882 0.111275 0.576171 0.129194
H21   H     H_    0.347807 0.112774 0.450842 0.140538
H22   H     H_    0.591060 0.348162 0.587695 0.130168
H23   H     H_    0.330200 0.348347 0.587819 0.109570
N1    N     N_R   0.648210 0.500930 0.499430 -0.229382
N2    N     N_R   0.352300 0.500890 0.499430 -0.232619
N3    N     N_3   0.008261 0.710234 0.060905 -0.637381
O1    O     O_R   0.118810 0.319640 0.500000 -0.507011
O2    O     O_R   0.881230 0.319680 0.499990 -0.518406
O3    O     O_R   0.055580 0.499970 0.629840 -0.521907
O4    O     O_R   0.818000 0.500010 0.629830 -0.426293
O5    O     O_R   0.118770 0.680320 0.500010 -0.498438
O6    O     O_R   0.881190 0.680360 0.500000 -0.507673
O7    O     O_R   0.182000 0.499990 0.370170 -0.506982
O8    O     O_R   0.944420 0.500030 0.370160 -0.508884
O9    O     O_3   0.618005 0.489482 0.769868 -0.707083

loop_
_geom_bond_atom_site_label_1
_geom_bond_atom_site_label_2
_ccdc_geom_bond_type
Cu2   O6    S    
C28   H9    S    
C6    H7    S    
Cu1   O5    S    
C18   C21   A    
C19   C20   A    
C12   C23   A    
C18   C24   S    
C28   C29   A    
C3    C7    A    
C5    C6    A    
H15   N3    S    
C19   N1    A    
C33   H11   S    
C7    C27   A    
C20   H23   S    
Cu2   O2    S    
C8    C9    A    
Cu1   O1    S    
C1    O1    A    
C36   H8    S    
C25   O7    A    
C9    C10   A    
C17   H20   S    
C13   C14   A    
C15   H19   S    
Cu1   N2    S    
C33   C34   A    
Cu2   O8    S    
C29   H10   S    
C34   H1    S    
C16   O6    A    
H14   N3    S    
C4    O4    A    
C30   O9    S    
C18   N1    A    
C5    N3    S    
C35   C36   A    
Cu1   Cu2   S    
H16   O9    S    
C6    C27   A    
C23   C34   A    
C22   H2    S    
C1    O2    A    
C1    C9    S    
C25   O8    A    
C23   C28   A    
C17   H21   S    
Cu2   O4    S    
C26   C30   A    
Cu1   O7    S    
C12   C31   A    
C35   H13   S    
C24   H6    S    
C31   C35   A    
C2    C5    A    
C10   H12   S    
C11   H17   S    
C2    C36   A    
C15   C17   S    
C8    C14   A    
C12   C30   A    
C31   C32   A    
C16   O5    A    
C4    O3    A    
C4    C26   S    
C19   H22   S    
C25   C27   S    
C8    C17   S    
C32   C33   A    
C20   N2    A    
C2    C3    A    
C15   H18   S    
C11   C13   A    
C22   H4    S    
Cu1   O3    S    
C22   C24   S    
C7    H3    S    
C3    C32   A    
C21   N2    A    
C10   C11   A    
C26   C29   A    
C13   C16   S    
C24   H5    S    
C14   C15   S    
C21   C22   S    
Cu2   N1    S    
