data_mof_unit_31570.cif
_audit_creation_date              2012-12-10T20:45:34-0500
_audit_creation_method            fapswitch 2.2
_symmetry_space_group_name_H-M    P1
_symmetry_Int_Tables_number       1
_space_group_crystal_system       triclinic
_cell_length_a                    10.698406
_cell_length_b                    10.66742
_cell_length_c                    9.842672
_cell_angle_alpha                 89.780957
_cell_angle_beta                  90.05751
_cell_angle_gamma                 90.189176
_cell_volume                      1123.27405613

loop_
_atom_site_label
_atom_site_type_symbol
_atom_type_description
_atom_site_fract_x
_atom_site_fract_y
_atom_site_fract_z
_atom_type_partial_charge
C1    C     C_R   0.503668 0.259860 0.500200 0.876847
C2    C     C_R   0.825219 0.372887 0.966279 -0.135967
C3    C     C_R   0.762743 0.258906 0.948182 -0.122774
C4    C     C_R   0.260207 0.504504 0.499786 0.872076
C5    C     C_R   0.759226 0.203105 0.819920 -0.127843
C6    C     C_R   0.816635 0.261932 0.708940 -0.120239
C7    C     C_R   0.879349 0.376608 0.726463 0.144386
C8    C     C_R   0.517900 0.063122 0.623396 0.125098
C9    C     C_R   0.523431 0.128512 0.501099 -0.101316
C10   C     C_R   0.553425 0.065452 0.380624 -0.240381
C11   C     C_R   0.554238 0.935721 0.380520 -0.248211
C12   C     C_R   0.234411 0.788701 0.079635 -0.114123
C13   C     C_R   0.524709 0.871328 0.500774 -0.098669
C14   C     C_R   0.518973 0.935458 0.623362 0.132758
C15   C     C_3   0.425461 0.926636 0.735773 -0.493370
C16   C     C_R   0.504400 0.740041 0.499828 0.868333
C17   C     C_3   0.424051 0.068672 0.735520 -0.499825
C18   C     C_R   0.449917 0.401289 0.071796 0.206362
C19   C     C_R   0.560236 0.591143 0.071736 -0.132207
C20   C     C_R   0.560552 0.590950 0.927611 -0.123239
C21   C     C_R   0.448146 0.402344 0.929053 0.236623
C22   C     C_3   0.314412 0.362156 0.925939 -0.531748
C23   C     C_R   0.932812 0.558699 0.395196 -0.254379
C24   C     C_3   0.318278 0.356505 0.079888 -0.498747
C25   C     C_R   0.739910 0.496872 0.500398 0.866391
C26   C     C_R   0.257094 0.816924 0.215973 -0.121728
C27   C     C_R   0.200594 0.745825 0.318754 -0.090800
C28   C     C_R   0.121007 0.645287 0.285616 0.134584
C29   C     C_R   0.096252 0.619713 0.148117 -0.193265
C30   C     C_R   0.153779 0.690391 0.045717 -0.137377
C31   C     C_R   0.872474 0.496039 0.501405 -0.075501
C32   C     C_R   0.939186 0.441005 0.609557 -0.006864
C33   C     C_R   0.067238 0.447580 0.606689 -0.262697
C34   C     C_R   0.127746 0.509238 0.500012 -0.081942
C35   C     C_R   0.061157 0.568658 0.394296 -0.001424
C36   C     C_R   0.884115 0.431289 0.856069 -0.146398
H1    H     H_    0.278698 0.843499 0.000321 0.125695
H2    H     H_    0.463989 0.109836 0.829701 0.199760
H3    H     H_    0.606827 0.665927 0.125955 0.136794
H4    H     H_    0.318305 0.894084 0.241988 0.132126
H5    H     H_    0.607637 0.665432 0.872890 0.142542
H6    H     H_    0.251696 0.436878 0.886656 0.214612
H7    H     H_    0.300977 0.268953 0.878592 0.197583
H8    H     H_    0.255498 0.424732 0.129567 0.236063
H9    H     H_    0.218918 0.768956 0.423982 0.091632
H10   H     H_    0.034652 0.543261 0.120294 0.125071
H11   H     H_    0.135958 0.668801 0.940073 0.128029
H12   H     H_    0.717261 0.213707 0.033578 0.116953
H13   H     H_    0.879399 0.604839 0.315742 0.156019
H14   H     H_    0.119893 0.401472 0.686638 0.156718
H15   H     H_    0.931852 0.519878 0.871091 0.116081
H16   H     H_    0.827758 0.416078 0.065632 0.133316
H17   H     H_    0.312075 0.259438 0.120887 0.195790
H18   H     H_    0.712172 0.114122 0.806755 0.127856
H19   H     H_    0.812298 0.218441 0.609750 0.107650
H20   H     H_    0.567729 0.115155 0.285673 0.165258
H21   H     H_    0.568839 0.886927 0.285543 0.162719
H22   H     H_    0.335357 0.884053 0.702952 0.200574
H23   H     H_    0.466443 0.885928 0.829871 0.195448
H24   H     H_    0.333227 0.108711 0.701929 0.199900
N1    N     N_R   0.499160 0.499140 0.142800 -0.100513
N2    N     N_R   0.499160 0.499180 0.857150 -0.100783
O1    O     O_R   0.500020 0.316790 0.614690 -0.610269
O2    O     O_R   0.500000 0.316760 0.385350 -0.626331
O3    O     O_R   0.316770 0.500030 0.614670 -0.627551
O4    O     O_R   0.316750 0.499990 0.385330 -0.607777
O5    O     O_R   0.500000 0.683240 0.614650 -0.623005
O6    O     O_R   0.499980 0.683210 0.385310 -0.622854
O7    O     O_R   0.683250 0.500010 0.614670 -0.607262
O8    O     O_R   0.683230 0.499970 0.385330 -0.631412
Zn1   Zn    Zn3+2 0.500010 0.500020 0.653130 0.948898
Zn2   Zn    Zn3+2 0.499990 0.499980 0.346870 0.942246

loop_
_geom_bond_atom_site_label_1
_geom_bond_atom_site_label_2
_ccdc_geom_bond_type
C25   C31   S    
O8    Zn2   S    
C18   N1    A    
C29   C30   A    
C16   O6    A    
C22   H7    S    
C30   H11   S    
C24   H17   S    
C18   C21   A    
C10   H20   S    
C9    C10   A    
C6    H19   S    
C23   C35   A    
C8    C17   S    
C14   C15   S    
C29   H10   S    
O6    Zn2   S    
C32   C33   A    
C27   H9    S    
C22   C24   S    
C2    C3    A    
C21   N2    A    
C1    C9    S    
C16   O5    A    
O3    Zn1   S    
C13   C14   A    
C4    O4    A    
C5    H18   S    
C11   C13   A    
C26   H4    S    
C26   C27   A    
C22   H6    S    
C36   H15   S    
C2    H16   S    
C19   N1    A    
C18   C24   S    
C19   H3    S    
N1    Zn2   S    
C21   C22   S    
C28   C29   A    
O1    Zn1   S    
N2    Zn1   S    
C20   H5    S    
C6    C7    A    
O5    Zn1   S    
C17   H2    S    
O2    Zn2   S    
C20   N2    A    
C5    C6    A    
C24   H8    S    
C15   H22   S    
C4    C34   S    
C23   H13   S    
C7    C32   S    
C25   O7    A    
C10   C11   A    
C17   H24   S    
C1    O2    A    
C1    O1    A    
C3    H12   S    
C27   C28   A    
C33   C34   A    
O7    Zn1   S    
C34   C35   A    
C7    C36   A    
C13   C16   S    
C2    C36   A    
C12   H1    S    
C15   C17   S    
C4    O3    A    
C8    C14   A    
C25   O8    A    
C12   C30   A    
C33   H14   S    
C11   H21   S    
C15   H23   S    
C31   C32   A    
O4    Zn2   S    
C19   C20   A    
C28   C35   S    
C12   C26   A    
C8    C9    A    
C3    C5    A    
C23   C31   A    
