data_mof_unit_41617.cif
_audit_creation_date              2012-12-10T17:39:10-0500
_audit_creation_method            fapswitch 2.2
_symmetry_space_group_name_H-M    P1
_symmetry_Int_Tables_number       1
_space_group_crystal_system       triclinic
_cell_length_a                    11.964703
_cell_length_b                    12.918016
_cell_length_c                    23.386567
_cell_angle_alpha                 89.97731
_cell_angle_beta                  86.299956
_cell_angle_gamma                 91.842471
_cell_volume                      3605.22267384

loop_
_atom_site_label
_atom_site_type_symbol
_atom_type_description
_atom_site_fract_x
_atom_site_fract_y
_atom_site_fract_z
_atom_type_partial_charge
C1    C     C_R   0.520091 0.700146 0.495140 0.956935
C2    C     C_R   0.412401 0.437899 0.304010 -0.273333
C3    C     C_R   0.578739 0.554978 0.759022 -0.069540
C4    C     C_R   0.405882 0.431205 0.245140 -0.060062
C5    C     C_R   0.502908 0.490704 0.791365 0.245573
C6    C     C_R   0.484453 0.485417 0.209084 0.239888
C7    C     C_R   0.467677 0.189328 0.487509 -0.204660
C8    C     C_R   0.529301 0.810443 0.484711 -0.178039
C9    C     C_R   0.646844 0.964891 0.476960 -0.075770
C10   C     C_R   0.349557 0.034925 0.493900 -0.089708
C11   C     C_R   0.635327 0.859372 0.485146 -0.209549
C12   C     C_R   0.479352 0.299872 0.496337 0.970418
C13   C     C_R   0.362694 0.140688 0.500169 -0.189982
C14   C     C_R   0.433573 0.868567 0.475384 0.384617
C15   C     C_R   0.560142 0.130677 0.467932 0.335589
C16   C     C_R   0.499868 0.497140 0.610568 0.936477
C17   C     C_R   0.499927 0.501782 0.389305 0.963874
C18   C     C_R   0.443655 0.975518 0.480973 -0.020785
C19   C     C_R   0.551186 0.023920 0.474800 0.005937
C20   C     C_R   0.959845 0.435248 0.433779 -0.266018
C21   C     C_R   0.040639 0.567808 0.565561 -0.280930
C22   C     C_R   0.842835 0.438893 0.441273 0.213148
C23   C     C_R   0.426588 0.425947 0.764682 -0.179847
C24   C     C_R   0.157829 0.565272 0.557659 0.174768
C25   C     C_R   0.855401 0.523271 0.530610 -0.033899
C26   C     C_R   0.144591 0.476172 0.469655 -0.016980
C27   C     C_R   0.973778 0.523142 0.524459 0.085630
C28   C     C_R   0.026423 0.477636 0.475538 0.064228
C29   C     C_R   0.514995 0.396906 0.119384 0.527871
C30   C     C_R   0.461613 0.574299 0.881700 0.518796
C31   C     C_R   0.439100 0.566086 0.121516 0.527206
C32   C     C_R   0.538015 0.405318 0.879469 0.525343
C33   C     C_R   0.441668 0.569027 0.061773 -0.025737
C34   C     C_R   0.569773 0.545975 0.231508 -0.156750
C35   C     C_R   0.532027 0.400936 0.939267 -0.026010
C36   C     C_R   0.483168 0.483580 0.030629 -0.016705
C37   C     C_R   0.489739 0.486027 0.970433 -0.016570
C38   C     C_R   0.519088 0.396111 0.059540 -0.025916
C39   C     C_R   0.454446 0.573753 0.941548 -0.022147
C40   C     C_R   0.405894 0.655719 0.032617 -0.136433
C41   C     C_R   0.566757 0.313810 0.968443 -0.139803
C42   C     C_R   0.412250 0.658071 0.972989 -0.142781
C43   C     C_R   0.560262 0.311387 0.028091 -0.138019
C44   C     C_R   0.424817 0.424583 0.705195 0.339001
C45   C     C_R   0.577175 0.554260 0.290554 0.352683
C46   C     C_R   0.499930 0.491774 0.672578 -0.152829
C47   C     C_R   0.497715 0.498645 0.327192 -0.148617
C48   C     C_R   0.577403 0.555355 0.699745 -0.272796
H1    H     H_    0.373628 0.722193 0.055726 0.201831
H2    H     H_    0.588282 0.243372 0.049416 0.201229
H3    H     H_    0.369295 0.376273 0.790811 0.187415
H4    H     H_    0.629193 0.587665 0.202365 0.185711
H5    H     H_    0.635769 0.606391 0.675017 0.165346
H6    H     H_    0.351130 0.394904 0.331604 0.168166
H7    H     H_    0.290229 0.184367 0.514301 0.213300
H8    H     H_    0.709831 0.816014 0.490886 0.204116
H9    H     H_    0.730012 0.000522 0.476657 0.213058
H10   H     H_    0.267207 0.999554 0.503372 0.212169
H11   H     H_    0.194374 0.436587 0.678070 0.339201
H12   H     H_    0.599253 0.247434 0.945331 0.199958
H13   H     H_    0.567024 0.751172 0.352371 0.375052
H14   H     H_    0.638133 0.604755 0.779904 0.157623
H15   H     H_    0.339692 0.384536 0.227494 0.161594
H16   H     H_    0.572331 0.255077 0.363990 0.348949
H17   H     H_    0.268252 0.681032 0.395121 0.389238
H18   H     H_    0.186185 0.439719 0.432810 0.123652
H19   H     H_    0.813731 0.558942 0.567680 0.129623
H20   H     H_    0.209024 0.599106 0.589683 0.133041
H21   H     H_    0.792570 0.409002 0.408017 0.217384
H22   H     H_    0.997781 0.400816 0.395317 0.170703
H23   H     H_    0.002818 0.603955 0.603530 0.147929
H24   H     H_    0.384356 0.726146 0.951674 0.199624
N1    N     N_R   0.476864 0.481574 0.148700 -0.353572
N2    N     N_R   0.502542 0.490819 0.852234 -0.351207
N3    N     N_R   0.207800 0.519350 0.510590 -0.095288
N4    N     N_R   0.792200 0.480650 0.489410 -0.118165
O1    O     O_R   0.421690 0.658830 0.502820 -0.568375
O2    O     O_2   0.426758 0.656774 0.853044 -0.542447
O3    O     O_2   0.400393 0.647219 0.152377 -0.520697
O4    O     O_2   0.578823 0.325031 0.848619 -0.526901
O5    O     O_2   0.396938 0.277207 0.626416 -0.279154
O6    O     O_2   0.285717 0.256013 0.717239 -0.263266
O7    O     O_3   0.227391 0.395116 0.646005 -0.525549
O8    O     O_2   0.773739 0.577271 0.338071 -0.261400
O9    O     O_2   0.730574 0.709466 0.268915 -0.251431
O10   O     O_3   0.626647 0.712440 0.369579 -0.527242
O11   O     O_2   0.765194 0.220898 0.462839 -0.291403
O12   O     O_R   0.578310 0.341170 0.497180 -0.552972
O13   O     O_2   0.723634 0.105110 0.383849 -0.249255
O14   O     O_3   0.634333 0.284140 0.385751 -0.559971
O15   O     O_2   0.229308 0.777492 0.495326 -0.322494
O16   O     O_2   0.253910 0.893296 0.412272 -0.265140
O17   O     O_3   0.341392 0.713920 0.403359 -0.542421
O18   O     O_R   0.609320 0.646410 0.496030 -0.615642
O19   O     O_R   0.390680 0.353590 0.503970 -0.610074
O20   O     O_R   0.406170 0.506240 0.587240 -0.588329
O21   O     O_R   0.593830 0.493760 0.412760 -0.552972
O22   O     O_R   0.593790 0.493820 0.580450 -0.638199
O23   O     O_R   0.406210 0.506180 0.419550 -0.637829
O24   O     O_2   0.550681 0.314911 0.148132 -0.524123
S1    S     S_3+6 0.333360 0.333652 0.673587 0.054930
S2    S     S_3+6 0.681608 0.639491 0.316117 0.074138
S3    S     S_3+6 0.675710 0.184605 0.424645 0.027216
S4    S     S_3+6 0.309518 0.813844 0.446817 0.036157
Zn1   Zn    Zn3+2 0.374720 0.508290 0.504530 1.039493
Zn2   Zn    Zn3+2 0.625280 0.491710 0.495470 1.059903

loop_
_geom_bond_atom_site_label_1
_geom_bond_atom_site_label_2
_ccdc_geom_bond_type
O20   Zn1   S    
C1    C8    S    
C1    O1    A    
C14   C18   A    
C25   H19   S    
H16   O14   S    
O15   S4    D    
O5    S1    D    
C15   C19   A    
C4    H15   S    
C21   H23   S    
C36   C37   A    
C35   C37   A    
H11   O7    S    
C32   N2    A    
C30   N2    A    
C31   N1    A    
C29   N1    A    
C40   H1    S    
C3    C48   A    
C33   C36   A    
O12   Zn2   S    
C18   C19   A    
C5    N2    S    
O19   Zn1   S    
C14   S4    S    
C9    C19   A    
C1    O18   A    
C29   C38   A    
C8    C14   A    
C31   C33   A    
C12   O19   A    
C22   N4    A    
C22   H21   S    
O8    S2    D    
C40   C42   A    
C21   C27   A    
O13   S3    D    
C41   C43   A    
C20   H22   S    
C7    C12   S    
O17   S4    S    
C44   C46   A    
C39   C42   A    
C45   C47   A    
C48   H5    S    
O23   Zn1   S    
C46   C48   A    
C16   O20   A    
C33   C40   A    
C12   O12   A    
H13   O10   S    
C26   H18   S    
C32   C35   A    
C4    C6    A    
C2    H6    S    
C16   C46   S    
O16   S4    D    
C20   C28   A    
O9    S2    D    
C23   C44   A    
C6    C34   A    
C2    C4    A    
C32   O4    S    
C9    C11   A    
C23   H3    S    
C5    C23   A    
C42   H24   S    
C26   N3    A    
C24   N3    A    
C34   C45   A    
C17   O23   A    
O11   S3    D    
O21   Zn2   S    
C20   C22   A    
N3    Zn1   S    
O10   S2    S    
C6    N1    S    
C3    H14   S    
O18   Zn2   S    
N4    Zn2   S    
O7    S1    S    
C29   O24   S    
C10   H10   S    
C34   H4    S    
C17   C47   S    
C41   H12   S    
C3    C5    A    
C10   C13   A    
C44   S1    S    
C43   H2    S    
C31   O3    S    
C2    C47   A    
C25   C27   A    
C26   C28   A    
O1    Zn1   S    
O22   Zn2   S    
C25   N4    A    
C36   C38   A    
C38   C43   A    
C37   C39   A    
C16   O22   A    
C10   C18   A    
C8    C11   A    
C7    C15   A    
H17   O17   S    
O6    S1    D    
C30   C39   A    
C9    H9    S    
C35   C41   A    
O14   S3    S    
C45   S2    S    
C24   H20   S    
C30   O2    S    
C7    C13   A    
C21   C24   A    
C27   C28   A    
C15   S3    S    
C17   O21   A    
C11   H8    S    
C13   H7    S    
