data_mof_unit_49569.cif
_audit_creation_date              2012-12-11T16:53:46-0500
_audit_creation_method            fapswitch 2.2
_symmetry_space_group_name_H-M    P1
_symmetry_Int_Tables_number       1
_space_group_crystal_system       triclinic
_cell_length_a                    14.969306
_cell_length_b                    14.754514
_cell_length_c                    16.957241
_cell_angle_alpha                 109.035268
_cell_angle_beta                  106.262305
_cell_angle_gamma                 108.154002
_cell_volume                      3045.46205838

loop_
_atom_site_label
_atom_site_type_symbol
_atom_type_description
_atom_site_fract_x
_atom_site_fract_y
_atom_site_fract_z
_atom_type_partial_charge
C1    C     C_R   0.088630 0.272983 0.044901 -0.058399
C2    C     C_R   0.063523 0.548383 0.265255 -0.119610
C3    C     C_R   0.279460 0.784765 0.175533 -0.140516
C4    C     C_R   0.935293 0.521311 0.747689 -0.136874
C5    C     C_R   0.698550 0.407343 0.996666 -0.131565
C6    C     C_R   0.335789 0.781432 0.253650 0.063253
C7    C     C_R   0.641270 0.441151 0.943926 0.094662
C8    C     C_R   0.971193 0.533858 0.274785 0.059302
C9    C     C_R   0.991327 0.825871 0.028988 0.054961
C10   C     C_R   0.404765 0.478136 0.884455 0.153972
C11   C     C_R   0.358600 0.428749 0.929931 0.062343
C12   C     C_R   0.025507 0.582961 0.746106 0.067043
C13   C     C_R   0.381484 0.347661 0.942247 -0.063047
C14   C     C_R   0.468340 0.338449 0.933039 -0.237311
C15   C     C_R   0.531154 0.410911 0.911761 0.031895
C16   C     C_R   0.767820 0.199993 0.810206 -0.114436
C17   C     C_R   0.490574 0.469521 0.875563 0.152266
C18   C     C_3   0.540696 0.583609 0.892841 -0.513946
C19   C     C_3   0.446304 0.592660 0.902145 -0.508141
C20   C     C_R   0.961563 0.578054 0.361543 0.125317
C21   C     C_R   0.032488 0.624868 0.679258 0.127464
C22   C     C_R   0.135892 0.696915 0.607574 -0.219735
C23   C     C_R   0.752012 0.194552 0.723740 0.062976
C24   C     C_R   0.129687 0.681344 0.682790 -0.173024
C25   C     C_R   0.941581 0.597239 0.604802 -0.278120
C26   C     C_R   0.947225 0.607347 0.527437 0.185967
C27   C     C_R   0.045225 0.653025 0.527408 0.189266
C28   C     C_R   0.256467 0.533004 0.947428 -0.216013
C29   C     C_R   0.051399 0.642083 0.444760 -0.272078
C30   C     C_R   0.863717 0.544715 0.363516 -0.161461
C31   C     C_R   0.856633 0.560766 0.446571 -0.216582
C32   C     C_R   0.710429 0.098191 0.636841 0.133603
C33   C     C_R   0.444256 0.854313 0.319023 0.131602
C34   C     C_R   0.295618 0.467324 0.969520 0.001014
C35   C     C_R   0.586946 0.031407 0.392184 -0.218549
C36   C     C_R   0.496144 0.950266 0.316827 -0.173200
C37   C     C_R   0.492018 0.834737 0.391361 -0.255466
C38   C     C_R   0.578617 0.917756 0.469368 0.179445
C39   C     C_R   0.623326 0.018312 0.471189 0.184762
C40   C     C_R   0.779243 0.297923 0.734394 -0.124995
C41   C     C_R   0.693237 0.107155 0.554661 -0.268596
C42   C     C_R   0.676680 0.996285 0.633513 -0.160963
C43   C     C_R   0.612172 0.905819 0.549446 -0.219471
C44   C     C_R   0.095352 0.056459 0.966414 -0.063081
C45   C     C_R   0.273635 0.688808 0.252445 -0.115376
C46   C     C_R   0.003703 0.066002 0.961252 0.108433
C47   C     C_R   0.909802 0.970171 0.910622 -0.183290
C48   C     C_R   0.907865 0.873178 0.856880 -0.187492
C49   C     C_R   0.999382 0.869459 0.853970 0.112651
C50   C     C_R   0.093107 0.959848 0.915003 0.057252
C51   C     C_3   0.181911 0.012050 0.896505 -0.608667
C52   C     C_R   0.266667 0.450664 0.036867 0.462765
C53   C     C_3   0.183622 0.117712 0.950987 0.636404
C54   C     C_R   0.107108 0.605584 0.824322 -0.137870
C55   C     C_R   0.916672 0.190963 0.972209 -0.125223
C56   C     C_R   0.706105 0.502242 0.918708 -0.159632
C57   C     C_R   0.003289 0.172360 0.994532 0.060581
C58   C     C_R   0.890070 0.463714 0.187899 -0.135327
C59   C     C_R   0.080103 0.809207 0.046534 -0.123091
C60   C     C_R   0.907999 0.724838 0.970217 -0.120129
Cl1   Cl    Cl    0.342887 0.434647 0.126496 -0.751078
F1    F     F_    0.154003 0.164033 0.895595 -0.694200
H1    H     H_    0.166732 0.287370 0.080845 0.153780
H2    H     H_    0.492778 0.285284 0.954369 0.132813
H3    H     H_    0.612261 0.635118 0.958484 0.205729
H4    H     H_    0.856799 0.502196 0.705320 0.084262
H5    H     H_    0.548261 0.590095 0.831288 0.187511
H6    H     H_    0.463877 0.649019 0.972943 0.207618
H7    H     H_    0.399526 0.603974 0.845690 0.187819
H8    H     H_    0.127289 0.673402 0.445278 0.118510
H9    H     H_    0.792568 0.499484 0.300969 0.124930
H10   H     H_    0.211651 0.734042 0.609059 0.127270
H11   H     H_    0.780749 0.527624 0.446038 0.133053
H12   H     H_    0.683869 0.525804 0.865083 0.100965
H13   H     H_    0.201403 0.707119 0.740403 0.113803
H14   H     H_    0.865861 0.557430 0.601940 0.115855
H15   H     H_    0.723599 0.184261 0.555299 0.118420
H16   H     H_    0.747007 0.133291 0.825286 0.083769
H17   H     H_    0.693659 0.986214 0.695526 0.116455
H18   H     H_    0.621911 0.107763 0.392224 0.128962
H19   H     H_    0.580340 0.828472 0.548519 0.129369
H20   H     H_    0.463298 0.966436 0.260553 0.116128
H21   H     H_    0.456080 0.759709 0.392697 0.124898
H22   H     H_    0.836602 0.970759 0.906370 0.112756
H23   H     H_    0.807896 0.435162 0.169180 0.100258
H24   H     H_    0.834504 0.802354 0.813381 0.117987
H25   H     H_    0.251634 0.003752 0.931405 0.151207
H26   H     H_    0.159684 0.989851 0.822094 0.237306
H27   H     H_    0.255545 0.172926 0.015636 0.020067
H28   H     H_    0.263119 0.562399 0.897976 0.134958
H29   H     H_    0.775791 0.325266 0.682469 0.094762
H30   H     H_    0.186560 0.664694 0.852539 0.083453
H31   H     H_    0.837338 0.132791 0.944512 0.080728
H32   H     H_    0.296411 0.651727 0.294727 0.107000
H33   H     H_    0.159091 0.870386 0.089349 0.099783
H34   H     H_    0.827000 0.707595 0.942097 0.097514
H35   H     H_    0.141869 0.597565 0.318058 0.094303
H36   H     H_    0.308752 0.836854 0.147040 0.087367
H37   H     H_    0.669080 0.346193 0.017007 0.089111
H38   H     H_    0.341198 0.300747 0.969428 0.192659
N1    N     N_R   0.055640 0.348550 0.045600 -0.048974
N2    N     N_R   0.811290 0.303400 0.871650 -0.040548
N3    N     N_R   0.205180 0.552990 0.997660 -0.059155
N4    N     N_R   0.814810 0.361830 0.823710 -0.041341
N5    N     N_R   0.201660 0.494570 0.045600 -0.074531
N6    N     N_R   0.068420 0.560530 0.871650 -0.034114
N7    N     N_R   0.948050 0.295860 0.997660 -0.043495
N8    N     N_R   0.185190 0.638170 0.176290 -0.041797
N9    N     N_R   0.798340 0.505430 0.954400 -0.038736
N10   N     N_R   0.931580 0.439470 0.128350 -0.044936
N11   N     N_R   0.051950 0.704140 0.002340 -0.042288
N12   N     N_R   0.944360 0.651450 0.954400 -0.043002
N13   N     N_R   0.039170 0.492150 0.176290 -0.042789
N14   N     N_R   0.188710 0.696600 0.128350 -0.040583
N15   N     N_R   0.794820 0.447010 0.002340 -0.041156
N16   N     N_R   0.960830 0.507850 0.823710 -0.036945
Ni1   Ni    Ni4+2 0.119330 0.493420 0.109950 0.256945
Ni2   Ni    Ni4+2 0.880670 0.506580 0.890050 0.208076
Ni3   Ni    Ni4+2 0.872590 0.372590 0.000000 0.212515
Ni4   Ni    Ni4+2 0.127410 0.627410 0.000000 0.211078

loop_
_geom_bond_atom_site_label_1
_geom_bond_atom_site_label_2
_ccdc_geom_bond_type
N1    N7    A    
C4    H4    S    
C6    C45   A    
C27   C29   A    
N3    Ni4   S    
C28   N3    A    
C55   H31   S    
C3    C6    A    
C30   H9    S    
C39   C41   A    
C20   C30   A    
C18   H3    S    
C26   C27   A    
C8    C20   S    
C52   Cl1   S    
C41   H15   S    
C30   C31   A    
C2    N13   A    
C31   H11   S    
C10   C17   A    
N8    N14   A    
C23   C40   A    
C35   H18   S    
C33   C36   A    
C18   C19   S    
C22   H10   S    
C8    C58   A    
C44   C53   S    
C5    H37   S    
C2    H35   S    
C36   H20   S    
C59   N11   A    
C32   C41   A    
C4    C12   A    
C16   H16   S    
C45   N8    A    
C7    C15   S    
C28   C34   A    
C42   H17   S    
C13   C14   A    
C5    N15   A    
N5    Ni1   S    
C59   H33   S    
C7    C56   A    
C45   H32   S    
C1    H1    S    
N7    Ni3   S    
C44   C46   A    
N9    Ni2   S    
C50   C51   S    
N4    Ni2   S    
C20   C29   A    
C56   H12   S    
C54   N6    A    
C51   H25   S    
C5    C7    A    
C18   H5    S    
C12   C21   S    
C33   C37   A    
C55   N7    A    
N11   Ni4   S    
C9    C59   A    
C35   C36   A    
C51   H26   S    
C35   C39   A    
C54   H30   S    
C37   C38   A    
C60   N12   A    
C1    C57   A    
C40   N4    A    
C53   F1    S    
C47   C48   A    
C10   C19   S    
C14   H2    S    
C17   C18   S    
C19   H6    S    
N3    N5    A    
C47   H22   S    
N2    N4    A    
N10   N13   A    
N13   Ni1   S    
C60   H34   S    
C16   N2    A    
C48   C49   A    
C52   N5    A    
C16   C23   A    
N15   Ni3   S    
C22   C27   A    
C55   C57   A    
C46   C57   S    
C53   H27   S    
C43   H19   S    
C22   C24   A    
C19   H7    S    
C42   C43   A    
C58   H23   S    
C1    N1    A    
C56   N9    A    
C29   H8    S    
C44   C50   A    
C15   C17   A    
C21   C25   A    
C46   C47   A    
N11   N12   A    
N6    Ni4   S    
C58   N10   A    
N8    Ni1   S    
C4    N16   A    
C11   C34   S    
C2    C8    A    
C3    N14   A    
N10   Ni3   S    
C24   H13   S    
C34   C52   A    
C6    C33   S    
C9    C60   A    
N1    Ni1   S    
C23   C32   S    
C25   H14   S    
C13   H38   S    
C25   C26   A    
C38   C43   A    
N12   Ni2   S    
C11   C13   A    
C3    H36   S    
C38   C39   A    
N16   Ni2   S    
C48   H24   S    
C40   H29   S    
C12   C54   A    
C10   C11   A    
N9    N15   A    
C26   C31   A    
C49   C50   A    
C21   C24   A    
N6    N16   A    
C32   C42   A    
C14   C15   A    
C37   H21   S    
C28   H28   S    
C51   C53   S    
N14   Ni4   S    
N2    Ni3   S    
