data_mof_unit_53723.cif
_audit_creation_date              2012-12-10T20:43:58-0500
_audit_creation_method            fapswitch 2.2
_symmetry_space_group_name_H-M    P1
_symmetry_Int_Tables_number       1
_space_group_crystal_system       triclinic
_cell_length_a                    17.478673
_cell_length_b                    10.680997
_cell_length_c                    9.839792
_cell_angle_alpha                 89.817173
_cell_angle_beta                  90.16018
_cell_angle_gamma                 89.883281
_cell_volume                      1836.96698672

loop_
_atom_site_label
_atom_site_type_symbol
_atom_type_description
_atom_site_fract_x
_atom_site_fract_y
_atom_site_fract_z
_atom_type_partial_charge
C1    C     C_R   0.497950 0.260021 0.500396 0.902236
C2    C     C_R   0.885652 0.564833 0.500942 0.128634
C3    C     C_1   0.966176 0.575581 0.497435 -0.058289
C4    C     C_1   0.034100 0.575660 0.496226 -0.077701
C5    C     C_R   0.152760 0.554536 0.620794 -0.170295
C6    C     C_R   0.230833 0.531207 0.622069 -0.197842
C7    C     C_R   0.270445 0.517792 0.499041 -0.036901
C8    C     C_R   0.231075 0.528579 0.374917 -0.209082
C9    C     C_R   0.153048 0.552115 0.373995 -0.163012
C10   C     C_R   0.114437 0.565075 0.496849 0.166507
C11   C     C_R   0.498398 0.062890 0.621703 0.129467
C12   C     C_R   0.353169 0.501691 0.499842 0.843386
C13   C     C_R   0.485298 0.129178 0.502697 -0.142316
C14   C     C_R   0.453888 0.069067 0.389607 -0.269176
C15   C     C_R   0.449780 0.938735 0.386759 0.151051
C16   C     C_R   0.480673 0.871824 0.500026 -0.145459
C17   C     C_R   0.496554 0.935666 0.620174 0.112291
C18   C     C_3   0.562808 0.925143 0.716312 -0.486236
C19   C     C_3   0.564774 0.067039 0.717425 -0.476962
C20   C     C_R   0.470031 0.401162 0.071445 0.224969
C21   C     C_R   0.536626 0.590993 0.071941 -0.150511
C22   C     C_R   0.536732 0.590864 0.927782 -0.137649
C23   C     C_R   0.495025 0.740056 0.499370 0.885448
C24   C     C_R   0.470109 0.401150 0.928760 0.217568
C25   C     C_3   0.389767 0.355342 0.922239 -0.510643
C26   C     C_3   0.389495 0.355761 0.076544 -0.518405
C27   C     C_R   0.646782 0.502365 0.500186 0.876063
C28   C     C_R   0.846382 0.562220 0.625667 0.204232
C29   C     C_R   0.767918 0.538918 0.624252 -0.246098
C30   C     C_R   0.729431 0.518593 0.500916 -0.073774
C31   C     C_R   0.769594 0.521987 0.377970 -0.206377
C32   C     C_R   0.847519 0.544881 0.378234 -0.210868
H1    H     H_    0.545769 0.884576 0.815814 0.198152
H2    H     H_    0.614186 0.882013 0.668999 0.197898
H3    H     H_    0.548927 0.107888 0.817286 0.202549
H4    H     H_    0.617125 0.106865 0.670155 0.199269
H5    H     H_    0.565032 0.665552 0.126305 0.142853
H6    H     H_    0.565493 0.664906 0.873170 0.142508
H7    H     H_    0.349967 0.425210 0.876962 0.212139
H8    H     H_    0.386083 0.259828 0.878173 0.201620
H9    H     H_    0.349693 0.426106 0.120050 0.212278
H10   H     H_    0.736989 0.537143 0.719548 0.158324
H11   H     H_    0.385149 0.260476 0.121343 0.191936
H12   H     H_    0.740899 0.507223 0.281649 0.163688
H13   H     H_    0.878325 0.545359 0.282739 0.144146
H14   H     H_    0.122142 0.562685 0.716033 0.134335
H15   H     H_    0.260005 0.524521 0.718957 0.147665
H16   H     H_    0.260444 0.519925 0.278764 0.149211
H17   H     H_    0.122717 0.558476 0.277979 0.129784
H18   H     H_    0.435375 0.123225 0.302226 0.157823
N1    N     N_R   0.499490 0.499140 0.142800 -0.103455
N2    N     N_R   0.499490 0.499180 0.857150 -0.104511
O1    O     O_R   0.500010 0.316790 0.614690 -0.613473
O2    O     O_R   0.500000 0.316760 0.385350 -0.618567
O3    O     O_R   0.389120 0.500020 0.614710 -0.619005
O4    O     O_R   0.389110 0.499990 0.385370 -0.621358
O5    O     O_R   0.500000 0.683240 0.614650 -0.616081
O6    O     O_R   0.499990 0.683210 0.385310 -0.622807
O7    O     O_R   0.610890 0.500010 0.614630 -0.620764
O8    O     O_R   0.610880 0.499980 0.385290 -0.616676
Zn1   Zn    Zn3+2 0.500010 0.500020 0.653130 0.940986
Zn2   Zn    Zn3+2 0.499990 0.499980 0.346870 0.937098
C33   C     C_3   0.886582 0.582570 0.760278 -0.436113
C34   C     C_3   0.923552 0.461728 0.811593 -0.858758
H19   H     H_    0.879421 0.388082 0.825269 0.260468
H20   H     H_    0.967442 0.427997 0.738969 0.264166
H21   H     H_    0.951701 0.479035 0.911057 0.243425
H22   H     H_    0.930714 0.656751 0.750216 0.207582
H23   H     H_    0.845235 0.615840 0.837967 0.198890
C35   C     C_3   0.413753 0.878297 0.262573 -0.388570
C36   C     C_3   0.338896 0.813063 0.298712 -0.808465
H24   H     H_    0.347725 0.743782 0.381132 0.258268
H25   H     H_    0.296038 0.883061 0.332878 0.249042
H26   H     H_    0.316047 0.763934 0.208026 0.238443
H27   H     H_    0.400117 0.949928 0.183826 0.185690
H28   H     H_    0.453839 0.813091 0.212086 0.224110

loop_
_geom_bond_atom_site_label_1
_geom_bond_atom_site_label_2
_ccdc_geom_bond_type
O6    Zn2   S    
C23   O6    A    
C24   N2    A    
C29   H10   S    
C32   H13   S    
C27   O7    A    
C7    C8    A    
C11   C19   S    
C5    C6    A    
O8    Zn2   S    
C28   C29   A    
C20   N1    A    
C19   H4    S    
C25   H8    S    
C30   C31   A    
C15   C16   A    
C22   H6    S    
C2    C32   A    
C18   C19   S    
C1    O1    A    
O1    Zn1   S    
C33   H23   S    
C16   C17   A    
C35   C36   S    
C9    C10   A    
C13   C14   A    
C27   C30   S    
N1    Zn2   S    
C26   H11   S    
C7    C12   S    
O7    Zn1   S    
C6    H15   S    
C34   H21   S    
C20   C24   A    
C9    H17   S    
C24   C25   S    
C31   H12   S    
C36   H25   S    
C8    C9    A    
O2    Zn2   S    
C25   C26   S    
C34   H20   S    
C1    O2    A    
C8    H16   S    
C29   C30   A    
C31   C32   A    
C17   C18   S    
C18   H2    S    
C12   O4    A    
C16   C23   S    
C35   H28   S    
O4    Zn2   S    
C1    C13   S    
C4    C10   S    
C3    C4    T    
C21   N1    A    
C22   N2    A    
C23   O5    A    
C15   C35   S    
C33   H22   S    
C11   C17   A    
N2    Zn1   S    
C36   H26   S    
O5    Zn1   S    
C6    C7    A    
C5    H14   S    
C27   O8    A    
C34   H19   S    
C2    C3    S    
C36   H24   S    
C19   H3    S    
C25   H7    S    
C11   C13   A    
C14   H18   S    
C20   C26   S    
O3    Zn1   S    
C18   H1    S    
C12   O3    A    
C33   C34   S    
C28   C33   S    
C5    C10   A    
C21   H5    S    
C35   H27   S    
C14   C15   A    
C2    C28   A    
C21   C22   A    
C26   H9    S    
