data_mof_unit_50095.cif
_audit_creation_date              2013-03-05T16:34:42-0500
_audit_creation_method            fapswitch 2.2
_symmetry_space_group_name_H-M    P1
_symmetry_Int_Tables_number       1
_space_group_crystal_system       triclinic
_cell_length_a                    14.971412
_cell_length_b                    14.18432
_cell_length_c                    8.920668
_cell_angle_alpha                 90.131863
_cell_angle_beta                  90.08698
_cell_angle_gamma                 90.013064
_cell_volume                      1894.37954947

loop_
_atom_site_label
_atom_site_type_symbol
_atom_site_description
_atom_site_fract_x
_atom_site_fract_y
_atom_site_fract_z
_atom_type_partial_charge
O1    O     O_R   0.369060 0.579480 0.500010 -0.613471
O2    O     O_R   0.630940 0.420520 0.499990 -0.622810
O3    O     O_R   0.630940 0.579480 0.499990 -0.626779
O4    O     O_R   0.369060 0.420520 0.500010 -0.627388
C1    C     C_R   0.328282 0.499966 0.499882 0.863499
C2    C     C_R   0.671987 0.500001 0.501134 0.874106
O5    O     O_R   0.500000 0.579460 0.285340 -0.621873
O6    O     O_R   0.500000 0.420540 0.714660 -0.613715
O7    O     O_R   0.500000 0.579460 0.714660 -0.624926
O8    O     O_R   0.500000 0.420540 0.285340 -0.613468
C3    C     C_R   0.431472 0.105146 0.429324 -0.278203
C4    C     C_R   0.536359 0.894957 0.620476 -0.278287
C5    C     C_R   0.568556 0.105413 0.570772 -0.277592
C6    C     C_R   0.463765 0.894619 0.379507 -0.278857
C7    C     C_R   0.500011 0.499933 0.218536 0.915331
C8    C     C_R   0.499367 0.500077 0.781454 0.928213
Zn1   Zn    Zn3+2 0.500000 0.606140 0.500000 0.934528
Zn2   Zn    Zn3+2 0.500000 0.393860 0.500000 0.934930
N1    N     N_R   0.500000 0.252470 0.500000 -0.090072
N2    N     N_R   0.500000 0.747530 0.500000 -0.090289
C9    C     C_R   0.500029 0.053400 0.500033 0.138227
C10   C     C_R   0.500038 0.946670 0.500023 0.138453
C11   C     C_1   0.499517 0.499908 0.065336 -0.212570
C12   C     C_1   0.499231 0.500111 0.934669 -0.205153
C13   C     C_R   0.094270 0.529246 0.371206 -0.207030
C14   C     C_R   0.906377 0.455014 0.383503 -0.207007
C15   C     C_R   0.907279 0.544689 0.615588 -0.214467
C16   C     C_R   0.094288 0.469587 0.626387 -0.205296
H1    H     H_    0.057501 0.552610 0.273235 0.141254
H2    H     H_    0.942901 0.419890 0.294530 0.141296
H3    H     H_    0.944739 0.578549 0.704865 0.136329
H4    H     H_    0.057529 0.446104 0.724123 0.142608
C17   C     C_R   0.186891 0.529215 0.369329 0.128000
C18   C     C_R   0.813747 0.454546 0.382211 0.118840
C19   C     C_R   0.814648 0.544443 0.619244 0.135273
C20   C     C_R   0.186883 0.469934 0.628971 0.126883
C21   C     C_R   0.232865 0.499787 0.499410 -0.088342
C22   C     C_R   0.767872 0.499877 0.500671 -0.082348
C23   C     C_R   0.048652 0.499535 0.498741 0.058127
C24   C     C_R   0.952410 0.500085 0.498916 0.062995
C25   C     C_R   0.432855 0.204354 0.430351 0.019142
C26   C     C_R   0.535895 0.795739 0.618002 0.018254
C27   C     C_R   0.567113 0.204615 0.569786 0.014753
C28   C     C_R   0.464261 0.795419 0.381904 0.015596
H5    H     H_    0.379781 0.242961 0.375563 0.126329
H6    H     H_    0.564194 0.757256 0.711225 0.123572
H7    H     H_    0.620127 0.243430 0.624704 0.125665
H8    H     H_    0.436245 0.756710 0.288416 0.130942
C29   C     C_3   0.233905 0.559081 0.226677 -0.407498
C30   C     C_3   0.237962 0.666248 0.214591 -0.841829
H9    H     H_    0.273280 0.696655 0.312990 0.270358
H10   H     H_    0.274659 0.686242 0.111352 0.241120
H11   H     H_    0.169494 0.696177 0.208735 0.251645
H12   H     H_    0.302616 0.530129 0.220042 0.196692
H13   H     H_    0.197551 0.530311 0.127999 0.190333
C31   C     C_3   0.766966 0.406971 0.251578 -0.406226
C32   C     C_3   0.761714 0.300503 0.274277 -0.807313
H14   H     H_    0.725114 0.283578 0.378898 0.270754
H15   H     H_    0.725892 0.267803 0.178271 0.243202
H16   H     H_    0.829878 0.269852 0.280694 0.243380
H17   H     H_    0.698916 0.435690 0.233068 0.206091
H18   H     H_    0.804659 0.421194 0.147080 0.194358
C33   C     C_3   0.768705 0.586367 0.755455 -0.417615
C34   C     C_3   0.737887 0.508765 0.861532 -0.877524
H19   H     H_    0.707697 0.540657 0.963331 0.246406
H20   H     H_    0.687580 0.462751 0.806794 0.258696
H21   H     H_    0.795879 0.464872 0.895134 0.253535
H22   H     H_    0.815334 0.633042 0.818303 0.199398
H23   H     H_    0.711585 0.631623 0.722906 0.223529
C35   C     C_3   0.233877 0.440470 0.772096 -0.410261
C36   C     C_3   0.241038 0.333399 0.782389 -0.824478
H24   H     H_    0.279492 0.304934 0.686053 0.275223
H25   H     H_    0.276040 0.313909 0.887684 0.243058
H26   H     H_    0.173465 0.301048 0.783140 0.247251
H27   H     H_    0.301597 0.471808 0.780806 0.198538
H28   H     H_    0.196097 0.467177 0.870532 0.189705
H29   H     H_    0.376181 0.069548 0.375189 0.134096
H30   H     H_    0.563931 0.930588 0.717446 0.133718
H31   H     H_    0.623853 0.070030 0.624934 0.133745
H32   H     H_    0.436265 0.929970 0.282493 0.134708

loop_
_geom_bond_atom_site_label_1
_geom_bond_atom_site_label_2
_geom_bond_distance
_ccdc_geom_bond_type
C5    H31   1.082042 S    
C18   C31   1.515778 S    
C1    C21   1.428520 S    
O2    Zn2   1.996412 S    
O3    C2    1.284140 A    
O1    C1    1.282362 A    
C20   C21   1.411936 A    
O7    C8    1.275179 A    
O8    C7    1.275310 A    
C32   H15   1.110363 S    
C17   C29   1.516362 S    
C29   H12   1.109334 S    
C4    C10   1.410805 A    
Zn1   N2    2.005521 S    
C31   C32   1.526182 S    
Zn2   N1    2.005521 S    
C26   H6    1.081732 S    
C4    C26   1.407486 A    
C3    H29   1.082061 S    
C14   C18   1.386852 A    
C33   H23   1.108174 S    
N1    C27   1.363178 A    
O5    Zn1   1.951092 S    
C4    H30   1.082089 S    
C30   H10   1.110461 S    
C11   C12   1.165652 T    
C2    C22   1.435548 S    
C3    C25   1.407361 A    
C35   C36   1.525505 S    
C6    H32   1.082090 S    
O4    Zn2   1.996583 S    
O5    C7    1.274567 A    
O6    C8    1.274693 A    
C9    C10   1.513887 S    
O2    C2    1.283889 A    
N2    C28   1.363569 A    
C20   C35   1.516471 S    
C13   H1    1.084718 S    
C30   H11   1.110789 S    
C15   H3    1.084534 S    
C34   H21   1.109778 S    
C16   H4    1.084739 S    
C19   C22   1.415386 A    
C23   C24   1.440917 S    
C36   H25   1.110444 S    
C32   H16   1.110789 S    
C16   C23   1.394222 A    
C15   C19   1.387255 A    
C29   H13   1.111052 S    
C3    C9    1.410887 A    
O6    Zn2   1.951092 S    
C34   H20   1.108559 S    
C15   C24   1.392615 A    
C30   H9    1.110338 S    
C5    C9    1.410893 A    
O7    Zn1   1.952801 S    
C14   H2    1.084800 S    
C35   H28   1.111123 S    
C31   H18   1.109304 S    
C5    C27   1.407327 A    
C6    C28   1.407314 A    
C33   H22   1.112140 S    
C18   C22   1.414609 A    
O4    C1    1.281757 A    
C36   H26   1.110805 S    
N2    C26   1.363551 A    
O1    Zn1   1.996414 S    
C34   H19   1.110431 S    
C6    C10   1.410741 A    
C36   H24   1.110410 S    
C13   C23   1.393860 A    
C14   C24   1.392220 A    
C32   H14   1.109701 S    
O8    Zn2   1.952801 S    
C7    C11   1.366652 S    
O3    Zn1   1.996581 S    
C17   C21   1.412258 A    
C33   C34   1.525060 S    
C28   H8    1.081493 S    
C16   C20   1.386440 A    
C8    C12   1.366780 S    
C29   C30   1.525351 S    
C35   H27   1.109483 S    
C25   H5    1.081840 S    
C31   H17   1.109581 S    
C19   C33   1.517427 S    
C27   H7    1.081868 S    
N1    C25   1.363157 A    
C13   C17   1.386803 A    
