data_mof_unit_30252.cif
_audit_creation_date              2012-12-10T18:59:16-0500
_audit_creation_method            fapswitch 2.2
_symmetry_space_group_name_H-M    P1
_symmetry_Int_Tables_number       1
_space_group_crystal_system       triclinic
_cell_length_a                    10.792728
_cell_length_b                    10.801125
_cell_length_c                    9.580616
_cell_angle_alpha                 90.053341
_cell_angle_beta                  89.754531
_cell_angle_gamma                 89.547724
_cell_volume                      1116.80137305

loop_
_atom_site_label
_atom_site_type_symbol
_atom_type_description
_atom_site_fract_x
_atom_site_fract_y
_atom_site_fract_z
_atom_type_partial_charge
C1    C     C_R   0.505639 0.262628 0.500001 0.845751
C2    C     C_R   0.063306 0.599872 0.586637 0.105328
C3    C     C_R   0.128469 0.513275 0.501753 -0.099895
C4    C     C_R   0.064865 0.433060 0.413477 -0.196227
C5    C     C_R   0.937054 0.432898 0.412589 -0.139974
C6    C     C_R   0.870694 0.514341 0.498345 -0.089017
C7    C     C_R   0.468467 0.065000 0.615108 0.084103
C8    C     C_R   0.518648 0.129289 0.502443 -0.180716
C9    C     C_R   0.585323 0.062365 0.399373 0.352554
C10   C     C_R   0.581985 0.932834 0.400394 -0.245349
C11   C     C_R   0.513170 0.870620 0.502837 -0.162984
C12   C     C_R   0.262552 0.504956 0.500555 0.776964
C13   C     C_R   0.465233 0.937796 0.615057 0.124508
C14   C     C_3   0.338150 0.936297 0.677218 -0.488540
C15   C     C_3   0.342800 0.076538 0.679588 -0.439254
C16   C     C_R   0.492333 0.608446 0.073197 0.176558
C17   C     C_R   0.497769 0.392412 0.073930 -0.011076
C18   C     C_R   0.498383 0.392343 0.925857 -0.042027
C19   C     C_R   0.490745 0.608311 0.926228 0.170428
C20   C     C_3   0.576525 0.715310 0.917405 -0.492973
C21   C     C_3   0.579549 0.715577 0.075621 0.184408
C22   C     C_R   0.501960 0.737528 0.500279 0.802193
C23   C     C_R   0.737214 0.504207 0.499570 0.810193
C24   C     C_R   0.124511 0.686643 0.672395 -0.199506
C25   C     C_R   0.057542 0.773548 0.750420 -0.127864
C26   C     C_R   0.929183 0.778617 0.741418 -0.087167
C27   C     C_R   0.866910 0.695136 0.656589 -0.158316
C28   C     C_R   0.932354 0.602333 0.581790 0.104049
Cu1   Cu    Cu3+1 0.499990 0.499980 0.640670 0.953132
Cu2   Cu    Cu3+1 0.500010 0.500020 0.359330 1.013783
H1    H     H_    0.114561 0.367573 0.347688 0.159206
H2    H     H_    0.336651 0.894399 0.783103 0.189642
H3    H     H_    0.274133 0.121300 0.609135 0.195269
H4    H     H_    0.346477 0.115628 0.786877 0.198554
H5    H     H_    0.496937 0.304741 0.127609 0.179688
H6    H     H_    0.498927 0.304544 0.872001 0.146451
H7    H     H_    0.666070 0.690101 0.867125 0.238365
H8    H     H_    0.530822 0.799083 0.873777 0.167317
H9    H     H_    0.536683 0.800084 0.121653 0.111855
H10   H     H_    0.224107 0.690333 0.678908 0.155019
H11   H     H_    0.105586 0.839024 0.815964 0.144959
H12   H     H_    0.877691 0.848355 0.799160 0.156438
H13   H     H_    0.767714 0.706152 0.647818 0.137091
H14   H     H_    0.889547 0.366839 0.346908 0.194656
H15   H     H_    0.631512 0.881438 0.320738 0.217421
H16   H     H_    0.268042 0.900425 0.603136 0.201035
N1    N     N_R   0.500790 0.500930 0.147930 -0.164776
N2    N     N_R   0.500790 0.500890 0.852020 -0.172136
O1    O     O_R   0.500000 0.319640 0.618810 -0.593440
O2    O     O_R   0.500010 0.319680 0.381230 -0.559920
O3    O     O_R   0.319640 0.499980 0.618820 -0.584940
O4    O     O_R   0.319650 0.500020 0.381230 -0.580850
O5    O     O_R   0.499990 0.680320 0.618770 -0.596852
O6    O     O_R   0.500000 0.680360 0.381190 -0.574869
O7    O     O_R   0.680350 0.499980 0.618770 -0.585375
O8    O     O_R   0.680360 0.500020 0.381180 -0.503491
Cl1   Cl    Cl    0.730112 0.677904 0.141022 -0.574103
Cl2   Cl    Cl    0.673809 0.135308 0.268731 -0.645279

loop_
_geom_bond_atom_site_label_1
_geom_bond_atom_site_label_2
_ccdc_geom_bond_type
C18   N2    A    
C23   O7    A    
Cu1   Cu2   S    
C1    C8    S    
C20   H8    S    
C9    C10   A    
C11   C22   S    
Cu1   O7    S    
C19   C20   S    
C21   H9    S    
C7    C13   A    
Cu2   O8    S    
C10   H15   S    
C7    C15   S    
C17   C18   A    
Cu2   O2    S    
C23   O8    A    
C22   O6    A    
Cu1   O1    S    
C13   C14   S    
C20   C21   S    
C21   Cl1   S    
C20   H7    S    
Cu2   O6    S    
C26   C27   A    
C16   C21   S    
Cu1   O5    S    
C16   C19   A    
C6    C23   S    
C16   N1    A    
C17   H5    S    
C12   O4    A    
C5    H14   S    
Cu1   O3    S    
C2    C3    A    
C22   O5    A    
C2    C24   A    
C5    C6    A    
C4    H1    S    
C7    C8    A    
C10   C11   A    
Cu1   N2    S    
C3    C4    A    
C27   H13   S    
Cu2   N1    S    
C11   C13   A    
C12   O3    A    
C24   C25   A    
C26   H12   S    
C14   H16   S    
C9    Cl2   S    
C1    O2    A    
C25   H11   S    
C27   C28   A    
Cu2   O4    S    
C14   C15   S    
C8    C9    A    
C2    C28   A    
C3    C12   S    
C15   H4    S    
C24   H10   S    
C25   C26   A    
C19   N2    A    
C18   H6    S    
C15   H3    S    
C6    C28   A    
C17   N1    A    
C14   H2    S    
C4    C5    A    
C1    O1    A    
