data_mof_unit_32416.cif
_audit_creation_date              2012-10-26T21:20:07-0400
_audit_creation_method            fapswitch 2.2
_symmetry_space_group_name_H-M    P1
_symmetry_Int_Tables_number       1
_space_group_crystal_system       triclinic
_cell_length_a                    12.93677
_cell_length_b                    10.935765
_cell_length_c                    9.639129
_cell_angle_alpha                 91.603202
_cell_angle_beta                  96.645321
_cell_angle_gamma                 92.815336
_cell_volume                      1352.10540407

loop_
_atom_site_label
_atom_site_type_symbol
_atom_type_description
_atom_site_fract_x
_atom_site_fract_y
_atom_site_fract_z
_atom_type_partial_charge
C1    C     C_R   0.501467 0.262587 0.498536 0.542845
C2    C     C_R   0.698980 0.504158 0.526246 0.516310
C3    C     C_R   0.812325 0.516131 0.538151 -0.046702
C4    C     C_R   0.189136 0.476051 0.459829 -0.008630
C5    C     C_R   0.041618 0.334181 0.478347 0.129864
C6    C     C_R   0.966407 0.653417 0.546841 0.167346
C7    C     C_R   0.147976 0.355975 0.465881 0.076996
C8    C     C_R   0.861709 0.633045 0.565807 0.070220
C9    C     C_R   0.126963 0.576491 0.467448 -0.018337
C10   C     C_R   0.868057 0.417502 0.494505 -0.012102
C11   C     C_R   0.023085 0.556569 0.498041 0.023376
C12   C     C_R   0.499313 0.737445 0.502053 0.547925
C13   C     C_R   0.976868 0.434722 0.488220 0.028240
C14   C     C_R   0.456120 0.056330 0.380880 0.005110
C15   C     C_R   0.546436 0.943349 0.621437 0.011961
C16   C     C_R   0.450012 0.928660 0.387147 0.061083
C17   C     C_R   0.552282 0.070855 0.615712 0.075086
C18   C     C_2   0.808189 0.302263 0.442356 0.316331
C19   C     C_2   0.171295 0.699067 0.434235 0.270909
C20   C     C_2   0.410014 0.110436 0.251140 0.239167
C21   C     C_2   0.588406 0.888876 0.753763 0.270516
C22   C     C_R   0.497201 0.871558 0.505575 -0.019961
C23   C     C_R   0.504598 0.128521 0.496806 -0.019680
C24   C     C_R   0.422738 0.437644 0.059405 0.253651
C25   C     C_R   0.577603 0.561967 0.942151 0.177280
C26   C     C_R   0.423022 0.436789 0.912906 0.245151
C27   C     C_R   0.575402 0.564991 0.089502 0.246966
C28   C     C_R   0.301387 0.495390 0.473460 0.560596
Cu1   Cu    Cu3+1 0.500000 0.500020 0.640660 0.910373
Cu2   Cu    Cu3+1 0.500000 0.499980 0.359340 1.026159
H1    H     H_    0.746362 0.265041 0.498224 0.094626
H2    H     H_    0.978391 0.838285 0.532133 0.289073
H3    H     H_    0.326343 0.117987 0.231837 0.098299
H4    H     H_    0.537669 0.831902 0.810141 0.119916
H5    H     H_    0.316084 0.882134 0.260372 0.239603
H6    H     H_    0.427044 0.871885 0.182449 0.259374
H7    H     H_    0.555333 0.180670 0.791775 0.271892
H8    H     H_    0.660122 0.204907 0.698576 0.243952
H9    H     H_    0.280957 0.443983 0.126942 0.242526
H10   H     H_    0.357038 0.334715 0.202304 0.288542
H11   H     H_    0.718452 0.557144 0.873746 0.253378
H12   H     H_    0.251220 0.727799 0.472601 0.110594
H13   H     H_    0.640100 0.664585 0.800161 0.281937
H14   H     H_    0.280491 0.429792 0.797291 0.249173
H15   H     H_    0.361712 0.317315 0.751710 0.279087
H16   H     H_    0.725829 0.608639 0.163841 0.247227
H17   H     H_    0.648359 0.729335 0.147301 0.246365
H18   H     H_    0.739885 0.744454 0.534811 0.250652
H19   H     H_    0.782495 0.718324 0.704946 0.265420
H20   H     H_    0.216236 0.208229 0.553386 0.231442
H21   H     H_    0.188641 0.197612 0.376349 0.230197
H22   H     H_    0.042654 0.177942 0.588176 0.230616
H23   H     H_    0.015499 0.155903 0.411990 0.268655
H24   H     H_    0.010779 0.787020 0.695043 0.249024
N1    N     N_R   0.500030 0.500030 0.852080 -0.251942
N2    N     N_3   0.665086 0.622668 0.891930 -0.626122
N3    N     N_3   0.337596 0.369943 0.832107 -0.583293
N4    N     N_3   0.652133 0.638576 0.178077 -0.532555
N5    N     N_R   0.499970 0.499970 0.147920 -0.226849
N6    N     N_3   0.805554 0.735235 0.607107 -0.600508
N7    N     N_3   0.216202 0.256411 0.461301 -0.650265
N8    N     N_3   0.002648 0.211314 0.497784 -0.582370
N9    N     N_3   0.017045 0.770617 0.589016 -0.574858
N10   N     N_3   0.393120 0.855831 0.274035 -0.591663
N11   N     N_3   0.608016 0.139637 0.733029 -0.533501
N12   N     N_3   0.334460 0.378135 0.110421 -0.570012
O1    O     O_R   0.499990 0.319660 0.618740 -0.530824
O2    O     O_2   0.120338 0.766105 0.356970 -0.489156
O3    O     O_2   0.465293 0.140821 0.162224 -0.462411
O4    O     O_2   0.678830 0.911076 0.803259 -0.453516
O5    O     O_R   0.500010 0.680340 0.381260 -0.437074
O6    O     O_R   0.499990 0.319630 0.381170 -0.469786
O7    O     O_R   0.500010 0.680370 0.618830 -0.553722
O8    O     O_R   0.349000 0.499990 0.599490 -0.515286
O9    O     O_R   0.651000 0.500010 0.400510 -0.457319
O10   O     O_R   0.348990 0.499960 0.361920 -0.517760
O11   O     O_R   0.651010 0.500040 0.638080 -0.531190
O12   O     O_2   0.823148 0.252818 0.331790 -0.447637

loop_
_geom_bond_atom_site_label_1
_geom_bond_atom_site_label_2
_ccdc_geom_bond_type
C14   C23   A    
H21   N7    S    
C25   N2    S    
C28   O8    A    
C26   N1    A    
Cu2   O5    S    
H15   N3    S    
C17   C23   A    
H19   N6    S    
C24   C26   A    
Cu1   O7    S    
H24   N9    S    
C12   C22   S    
C7    N7    S    
Cu1   O1    S    
C9    C19   S    
C15   C22   A    
H7    N11   S    
H5    N10   S    
C5    C13   A    
C19   H12   S    
C24   N12   S    
H10   N12   S    
C12   O7    A    
H16   N4    S    
C4    C7    A    
C4    C28   S    
H18   N6    S    
C1    O6    A    
C14   C20   S    
C3    C8    A    
C6    C11   A    
C5    C7    A    
C6    C8    A    
C21   H4    S    
Cu1   N1    S    
C10   C13   A    
C6    N9    S    
H11   N2    S    
Cu1   Cu2   S    
Cu2   O10   S    
H23   N8    S    
H8    N11   S    
H14   N3    S    
C18   O12   D    
Cu2   N5    S    
C19   O2    D    
C9    C11   A    
C20   H3    S    
C12   O5    A    
C1    C23   S    
H9    N12   S    
C14   C16   A    
C20   O3    D    
C28   O10   A    
C15   C17   A    
C16   C22   A    
C25   N1    A    
H2    N9    S    
C27   N4    S    
Cu2   O6    S    
Cu1   O8    S    
C25   C27   A    
C17   N11   S    
C21   O4    D    
C2    C3    S    
C2    O11   A    
C27   N5    A    
C8    N6    S    
H17   N4    S    
Cu2   O9    S    
C11   C13   A    
C10   C18   S    
C24   N5    A    
C1    O1    A    
C5    N8    S    
C26   N3    S    
H13   N2    S    
C15   C21   S    
Cu1   O11   S    
C3    C10   A    
H20   N7    S    
H22   N8    S    
C18   H1    S    
C16   N10   S    
C4    C9    A    
H6    N10   S    
C2    O9    A    
