data_mof_unit_44815.cif
_audit_creation_date              2013-03-05T15:52:44-0500
_audit_creation_method            fapswitch 2.2
_symmetry_space_group_name_H-M    P1
_symmetry_Int_Tables_number       1
_space_group_crystal_system       triclinic
_cell_length_a                    10.04533
_cell_length_b                    10.711771
_cell_length_c                    13.206938
_cell_angle_alpha                 94.190205
_cell_angle_beta                  72.477084
_cell_angle_gamma                 90.241275
_cell_volume                      1351.3066355

loop_
_atom_site_label
_atom_site_type_symbol
_atom_site_description
_atom_site_fract_x
_atom_site_fract_y
_atom_site_fract_z
_atom_type_partial_charge
O1    O     O_R   0.385310 0.683220 0.500000 -0.630825
O2    O     O_R   0.614640 0.683250 0.500010 -0.637478
C1    C     C_R   0.504246 0.738079 0.489400 0.871054
O3    O     O_R   0.328400 0.499950 0.653610 -0.523428
O4    O     O_R   0.557730 0.499970 0.653620 -0.655045
C2    C     C_R   0.424076 0.488638 0.702394 0.899909
Zn1   Zn    Zn3+2 0.346880 0.499980 0.499990 1.058418
Zn2   Zn    Zn3+2 0.653120 0.500020 0.500010 0.920243
O5    O     O_R   0.385360 0.316750 0.499990 -0.540406
O6    O     O_R   0.614690 0.316780 0.500000 -0.675302
O7    O     O_R   0.442270 0.500030 0.346380 -0.586705
O8    O     O_R   0.671600 0.500050 0.346390 -0.618547
C3    C     C_R   0.496122 0.260581 0.507092 0.892312
C4    C     C_R   0.576375 0.501249 0.296870 0.883878
C5    C     C_R   0.794534 0.445136 0.010171 -0.125457
H1    H     H_    0.832313 0.350567 0.810585 0.227277
H2    H     H_    0.902105 0.436078 0.963156 0.200798
C6    C     C_R   0.619232 0.487718 0.180217 -0.105448
C7    C     C_R   0.239896 0.455490 0.877567 0.390297
C8    C     C_R   0.202165 0.407633 0.977136 -0.239818
C9    C     C_R   0.302045 0.385542 0.026996 0.032344
C10   C     C_R   0.443800 0.405415 0.972679 0.078027
C11   C     C_R   0.483158 0.406220 0.860757 -0.021045
C12   C     C_R   0.548313 0.424993 0.023533 0.093552
C13   C     C_R   0.690226 0.415539 0.962657 0.060691
C14   C     C_R   0.725348 0.375818 0.855019 -0.143403
C15   C     C_R   0.622149 0.365212 0.804284 0.141834
C16   C     C_R   0.515266 0.464834 0.131163 -0.188423
C17   C     C_R   0.759985 0.488155 0.117800 0.088435
C18   C     C_R   0.381958 0.448763 0.813490 -0.219788
H3    H     H_    0.408074 0.483583 0.177251 0.196971
H4    H     H_    0.093903 0.393154 0.018837 0.147263
H5    H     H_    0.717846 0.888538 0.491320 0.167761
C19   C     C_R   0.284200 0.878601 0.433787 -0.142232
H6    H     H_    0.304580 0.792797 0.382571 0.163964
C20   C     C_R   0.149929 0.929607 0.464906 -0.171521
H7    H     H_    0.068011 0.882243 0.440393 0.153252
C21   C     C_R   0.119233 0.036386 0.534436 -0.125813
H8    H     H_    0.011462 0.068135 0.566421 0.185553
C22   C     C_R   0.226691 0.103230 0.560736 0.349320
C23   C     C_R   0.367485 0.058225 0.517470 0.015538
C24   C     C_R   0.388452 0.935135 0.472565 0.031647
C25   C     C_R   0.508751 0.870523 0.476262 -0.111956
C26   C     C_R   0.622915 0.935880 0.490860 -0.131401
H9    H     H_    0.708363 0.112869 0.510002 0.169431
C27   C     C_R   0.615340 0.063831 0.506126 -0.184822
C28   C     C_R   0.489315 0.126830 0.517244 -0.086700
C29   C     C_R   0.799988 0.671808 0.632787 -0.222964
H10   H     H_    0.693602 0.666298 0.637858 0.255611
C30   C     C_R   0.832944 0.768176 0.695769 0.273527
C31   C     C_R   0.968265 0.774869 0.698788 -0.283964
H11   H     H_    0.994911 0.848058 0.750113 0.204789
C32   C     C_R   0.071677 0.687544 0.640388 0.153665
C33   C     C_R   0.043584 0.590051 0.567002 0.119923
C34   C     C_R   0.899738 0.586249 0.566267 0.021606
N1    N     N_R   0.856860 0.501200 0.500990 -0.152009
C35   C     C_R   0.953803 0.417290 0.436261 0.036217
C36   C     C_R   0.093790 0.411700 0.440599 0.346302
N2    N     N_R   0.142450 0.501280 0.501020 -0.160253
N3    N     N_3   0.865372 0.536379 0.162711 -0.457609
H12   H     H_    0.833491 0.626805 0.196575 0.203112
H13   H     H_    0.957661 0.549935 0.102591 0.216126
N4    N     N_R   0.187990 0.203873 0.642163 0.220574
O9    O     O_R   0.257223 0.221004 0.710745 -0.423326
O10   O     O_R   0.069017 0.262358 0.660075 -0.388407
N5    N     N_3   0.917566 0.334415 0.359199 -0.406618
H14   H     H_    0.882938 0.385897 0.308035 0.234146
H15   H     H_    0.842510 0.272327 0.397169 0.236365
N6    N     N_R   0.728256 0.858266 0.757815 0.221371
O11   O     O_R   0.600127 0.851921 0.754574 -0.397709
O12   O     O_R   0.760862 0.949543 0.816094 -0.359760
N7    N     N_3   0.200442 0.703855 0.662631 -0.330317
H16   H     H_    0.184258 0.701871 0.743922 0.242623
H17   H     H_    0.231514 0.795894 0.647734 0.175409
N8    N     N_R   0.179127 0.304788 0.385539 0.214337
O13   O     O_R   0.306542 0.317128 0.327011 -0.373536
O14   O     O_R   0.121781 0.197167 0.376692 -0.418636
N9    N     N_R   0.133839 0.519277 0.848743 0.160566
O15   O     O_R   0.069799 0.615249 0.909923 -0.467661
O16   O     O_R   0.076375 0.464495 0.781979 -0.349662
N10   N     N_3   0.259469 0.333605 0.128362 -0.384354
H18   H     H_    0.213226 0.247490 0.119561 0.241563
H19   H     H_    0.182694 0.393117 0.180415 0.195319
N11   N     N_3   0.654084 0.285571 0.708034 -0.400757
H20   H     H_    0.724163 0.330674 0.647102 0.236091
H21   H     H_    0.562901 0.262500 0.689387 0.214097

loop_
_geom_bond_atom_site_label_1
_geom_bond_atom_site_label_2
_geom_bond_distance
_ccdc_geom_bond_type
C29   C34   1.405626 A    
N5    H15   1.038799 S    
C34   N1    1.365373 A    
N4    O10   1.300432 A    
C22   C23   1.427604 A    
C23   C24   1.395502 A    
C4    C6    1.465737 S    
C7    C8    1.390113 A    
C19   C24   1.413520 A    
C35   N5    1.429944 S    
C25   C26   1.396109 A    
Zn2   N1    2.050548 S    
N10   H18   1.045671 S    
C32   C33   1.457366 A    
Zn1   O7    1.965563 S    
C1    C25   1.440694 S    
C14   C15   1.393826 A    
C22   N4    1.432547 S    
C20   H7    1.082714 S    
C30   N6    1.443166 S    
N11   H21   1.041997 S    
C21   H8    1.082980 S    
O7    C4    1.308875 A    
N9    O16   1.297328 A    
C5    C13   1.398658 A    
N1    C35   1.371426 A    
N3    H13   1.040888 S    
C19   H6    1.082386 S    
N6    O12   1.301846 A    
O5    C3    1.298275 A    
C27   C28   1.400142 A    
C11   C15   1.424377 A    
C29   C30   1.380060 A    
N5    H14   1.038906 S    
C9    C10   1.411473 A    
O3    Zn1   1.980906 S    
Zn1   N2    2.049612 S    
N10   H19   1.046236 S    
C26   C27   1.369741 A    
C36   N8    1.444426 S    
C5    C17   1.400674 A    
C33   N2    1.419724 A    
H1    C14   1.082412 S    
C31   H11   1.084245 S    
C11   C18   1.434713 A    
C6    C16   1.397353 A    
C12   C13   1.409974 A    
N7    H17   1.047337 S    
C3    C28   1.448114 S    
N9    O15   1.301815 A    
C36   N2    1.384009 A    
H9    C27   1.082813 S    
N3    H12   1.045878 S    
O1    C1    1.302969 A    
C7    N9    1.426592 S    
N8    O13   1.292637 A    
C17   N3    1.438098 S    
Zn2   O8    1.980908 S    
C30   C31   1.373297 A    
C23   C28   1.424202 A    
C6    C17   1.406181 A    
N11   H20   1.043734 S    
N8    O14   1.299888 A    
O3    C2    1.318623 A    
C29   H10   1.052140 S    
C2    C18   1.493475 S    
C9    N10   1.430641 S    
C10   C12   1.414016 A    
C24   C25   1.410402 A    
C8    H4    1.077263 S    
C5    H2    1.072695 S    
C33   C34   1.448313 A    
C15   N11   1.429968 S    
O1    Zn1   1.998829 S    
H5    C26   1.083785 S    
C16   H3    1.076831 S    
O2    Zn2   2.002016 S    
C12   C16   1.393298 A    
O8    C4    1.311848 A    
N7    H16   1.038120 S    
O6    C3    1.313313 A    
O4    Zn2   1.965563 S    
C20   C21   1.387642 A    
O2    C1    1.305920 A    
C13   C14   1.391846 A    
C21   C22   1.407647 A    
C7    C18   1.422171 A    
C35   C36   1.426195 A    
O4    C2    1.312068 A    
C19   C20   1.387896 A    
N6    O11   1.301954 A    
N4    O9    1.300670 A    
Zn1   O5    2.002017 S    
C8    C9    1.385241 A    
Zn2   O6    1.998830 S    
C10   C11   1.411115 A    
C31   C32   1.403302 A    
C32   N7    1.417514 S    
