data_mof_unit_16588.cif
_audit_creation_date              2012-12-11T20:30:34-0500
_audit_creation_method            fapswitch 2.2
_symmetry_space_group_name_H-M    P1
_symmetry_Int_Tables_number       1
_space_group_crystal_system       triclinic
_cell_length_a                    8.370236
_cell_length_b                    17.266922
_cell_length_c                    18.716481
_cell_angle_alpha                 102.993441
_cell_angle_beta                  91.542184
_cell_angle_gamma                 98.545823
_cell_volume                      2601.42136682

loop_
_atom_site_label
_atom_site_type_symbol
_atom_type_description
_atom_site_fract_x
_atom_site_fract_y
_atom_site_fract_z
_atom_type_partial_charge
Ba1   Ba    Ba6+2 0.853800 0.535410 0.467450 1.754454
Ba2   Ba    Ba6+2 0.336030 0.464660 0.532560 1.727835
C1    C     C_3   0.630774 0.780858 0.214829 -0.214653
C2    C     C_R   0.901303 0.413706 0.087940 0.027504
C3    C     C_R   0.745099 0.374532 0.060755 -0.082517
C4    C     C_3   0.097289 0.689854 0.284270 0.416216
C5    C     C_R   0.687178 0.375285 0.990113 -0.096570
C6    C     C_R   0.785242 0.414112 0.944755 0.044025
C7    C     C_R   0.942624 0.452937 0.970965 0.038299
C8    C     C_R   0.727472 0.414911 0.873945 -0.101791
C9    C     C_R   0.827142 0.450392 0.826361 0.024227
C10   C     C_R   0.985474 0.490373 0.852813 0.121393
C11   C     C_R   0.040772 0.492909 0.925864 0.063153
C12   C     C_3   0.660987 0.745839 0.281047 0.890860
C13   C     C_R   0.772574 0.448439 0.753576 -0.028438
C14   C     C_R   0.879248 0.480272 0.706944 -0.230906
C15   C     C_R   0.033292 0.523404 0.732645 0.089806
C16   C     C_3   0.060457 0.708937 0.210255 0.261087
C17   C     C_R   0.085768 0.530974 0.807684 0.030743
C18   C     C_R   0.155488 0.494164 0.070477 0.023112
C19   C     C_R   0.212046 0.496631 0.143359 -0.000034
C20   C     C_R   0.110469 0.458846 0.189580 -0.078669
C21   C     C_R   0.958245 0.414884 0.159607 -0.050264
C22   C     C_R   0.228735 0.582200 0.840877 0.029645
C23   C     C_3   0.419782 0.293160 0.297520 0.610179
C24   C     C_R   0.282400 0.585737 0.913789 -0.013523
C25   C     C_R   0.192860 0.536837 0.954572 -0.017553
C26   C     C_R   0.251453 0.535839 0.026062 0.032491
C27   C     C_R   0.422510 0.638182 0.948106 0.422778
C28   C     C_3   0.261609 0.729733 0.662392 0.624209
C29   C     C_R   0.489145 0.629957 0.014699 -0.043112
C30   C     C_R   0.405109 0.578323 0.053691 -0.009525
C31   C     C_R   0.370295 0.536958 0.169534 -0.022072
C32   C     C_R   0.467392 0.573854 0.122449 -0.066213
C33   C     C_R   0.424684 0.541715 0.242770 0.081461
C34   C     C_3   0.337893 0.228108 0.231632 -0.037966
C35   C     C_R   0.319176 0.509213 0.289392 -0.202256
C36   C     C_R   0.163953 0.467253 0.264296 0.007440
C37   C     C_2   0.432665 0.721345 0.489325 -0.180462
C38   C     C_3   0.310803 0.778515 0.492960 0.071786
C39   C     C_2   0.389691 0.860921 0.488319 -0.043770
C40   C     C_3   0.385463 0.794747 0.712546 -0.004733
C41   C     C_2   0.550065 0.884587 0.506721 0.037706
C42   C     C_2   0.648807 0.824483 0.523377 -0.029825
C43   C     C_1   0.578583 0.749961 0.521701 0.087556
C44   C     C_R   0.788068 0.142802 0.548575 -0.142713
C45   C     C_3   0.028980 0.257964 0.720140 0.767035
C46   C     C_R   0.854631 0.222570 0.551852 -0.004359
C47   C     C_R   0.609608 0.242043 0.490498 0.034185
C48   C     C_R   0.540746 0.162973 0.489168 -0.106887
C49   C     C_R   0.628875 0.113168 0.518806 0.018148
C50   C     C_2   0.631309 0.967726 0.509556 -0.052082
C51   C     C_2   0.550478 0.030689 0.517596 -0.103177
C52   C     C_3   0.929493 0.290870 0.368632 0.306321
C53   C     C_R   0.763330 0.272694 0.524906 -0.264123
C54   C     C_3   0.888772 0.198761 0.348326 -0.075654
C55   C     C_3   0.766022 0.671264 0.700221 0.217804
C56   C     C_3   0.971773 0.179108 0.742280 -0.338942
C57   C     C_3   0.736578 0.696459 0.782572 0.420350
C58   C     C_3   0.614914 0.900385 0.708802 -0.282350
C59   C     C_3   0.988973 0.077288 0.363470 -0.168498
C60   C     C_3   0.943494 0.821675 0.807460 -0.146607
C61   C     C_3   0.107567 0.197424 0.141231 -0.201454
C62   C     C_3   0.557895 0.092612 0.801027 -0.260949
C63   C     C_3   0.548948 0.266521 0.718207 0.331314
C64   C     C_3   0.465281 0.192496 0.741919 -0.016253
C65   C     C_R   0.000045 0.453499 0.043125 0.008523
Cl1   Cl    Cl    0.802758 0.819300 0.342164 -0.665794
Cl2   Cl    Cl    0.831514 0.644920 0.839040 -0.739247
Cl3   Cl    Cl    0.481325 0.736952 0.327778 -0.765052
Cl4   Cl    Cl    0.545969 0.366963 0.263651 -0.758747
Cl5   Cl    Cl    0.236009 0.750398 0.172751 -0.668173
Cl6   Cl    Cl    0.129620 0.327623 0.798884 -0.724822
Cl7   Cl    Cl    0.498997 0.724744 0.918162 -0.677697
Cl8   Cl    Cl    0.119942 0.781986 0.629431 -0.805994
H1    H     H_    0.471121 0.764533 0.737486 0.091091
H2    H     H_    0.604918 0.678386 0.786487 0.106208
H3    H     H_    0.573359 0.835715 0.231326 0.176790
H4    H     H_    0.324587 0.321820 0.328739 0.022383
H5    H     H_    0.283804 0.174334 0.251191 0.063580
H6    H     H_    0.429765 0.208854 0.192202 0.111143
H7    H     H_    0.551469 0.736256 0.172115 0.130220
H8    H     H_    0.922543 0.283339 0.703785 -0.162455
H9    H     H_    0.077301 0.153735 0.759487 0.116079
H10   H     H_    0.892594 0.189784 0.789029 0.127887
H11   H     H_    0.902871 0.134406 0.695717 0.048635
H12   H     H_    0.323849 0.828804 0.758534 0.107867
H13   H     H_    0.670127 0.285135 0.747909 -0.032557
H14   H     H_    0.562196 0.251127 0.657860 -0.010959
H15   H     H_    0.360727 0.161686 0.702850 0.105978
H16   H     H_    0.987016 0.653573 0.297783 0.043715
H17   H     H_    0.418420 0.212865 0.797048 0.133771
H18   H     H_    0.666734 0.344102 0.094507 0.111127
H19   H     H_    0.565534 0.345218 0.970837 0.085947
H20   H     H_    0.836344 0.477127 0.651155 0.046165
H21   H     H_    0.604672 0.386560 0.856567 0.104984
H22   H     H_    0.881317 0.381700 0.191537 0.144435
H23   H     H_    0.816698 0.316174 0.378874 0.038290
H24   H     H_    0.300498 0.619023 0.810240 0.124746
H25   H     H_    0.600464 0.668709 0.038767 0.122945
H26   H     H_    0.589880 0.602655 0.139596 0.077605
H27   H     H_    0.193146 0.651548 0.278526 0.002167
H28   H     H_    0.361194 0.514119 0.345658 0.079556
H29   H     H_    0.420625 0.022516 0.522212 0.076890
H30   H     H_    0.775814 0.843828 0.541230 0.109559
H31   H     H_    0.860240 0.104577 0.569056 0.053102
H32   H     H_    0.761570 0.976891 0.505570 0.099682
H33   H     H_    0.313238 0.900712 0.472910 0.073752
H34   H     H_    0.010662 0.310464 0.419569 0.052779
H35   H     H_    0.421734 0.139154 0.462176 0.087203
H36   H     H_    0.398357 0.657801 0.463855 0.065314
H37   H     H_    0.816983 0.333736 0.525088 0.046570
H38   H     H_    0.003458 0.653006 0.170511 0.009146
H39   H     H_    0.977018 0.753483 0.216716 0.119447
H40   H     H_    0.321221 0.694404 0.616847 -0.045077
H41   H     H_    0.393430 0.884069 0.652959 0.233908
H42   H     H_    0.647349 0.951877 0.682684 0.105575
H43   H     H_    0.716473 0.865743 0.702340 0.162844
H44   H     H_    0.598719 0.923643 0.767983 0.111813
H45   H     H_    0.858973 0.176919 0.288166 0.120256
H46   H     H_    0.131027 0.181927 0.349363 0.209464
H47   H     H_    0.098031 0.056476 0.383172 0.124080
H48   H     H_    0.956992 0.045408 0.304960 0.121204
H49   H     H_    0.887462 0.062130 0.397824 0.130491
H50   H     H_    0.691183 0.817041 0.812687 0.208398
H51   H     H_    0.966201 0.882213 0.846059 0.102586
H52   H     H_    0.956145 0.830515 0.750889 0.133201
H53   H     H_    0.035036 0.785740 0.821364 0.182271
H54   H     H_    0.254989 0.308373 0.175815 0.217070
H55   H     H_    0.010112 0.225364 0.120399 0.111948
H56   H     H_    0.780361 0.179577 0.376581 0.052935
H57   H     H_    0.050012 0.148624 0.166476 0.122922
H58   H     H_    0.177342 0.171701 0.094404 0.107163
H59   H     H_    0.599879 0.103671 0.693817 0.196941
H60   H     H_    0.665426 0.063054 0.805343 0.118264
H61   H     H_    0.447252 0.046523 0.787342 0.122810
H62   H     H_    0.549098 0.133446 0.855349 0.124731
H63   H     H_    0.896037 0.683635 0.691184 0.104083
H64   H     H_    0.719085 0.605785 0.680041 -0.013369
H65   H     H_    0.745553 0.797639 0.189792 0.084072
N1    N     N_2   0.468326 0.850358 0.672658 -0.450706
N2    N     N_2   0.022946 0.163261 0.370260 -0.423923
N3    N     N_2   0.780813 0.782465 0.813815 -0.364631
N4    N     N_2   0.213119 0.257981 0.194961 -0.427698
N5    N     N_2   0.578850 0.137530 0.744553 -0.463632
O1    O     O_2   0.871520 0.445720 0.321500 -0.403739
O2    O     O_2   0.176328 0.220384 0.525097 -0.469693
O3    O     O_3   0.141312 0.244928 0.665620 -0.577040
O4    O     O_3   0.121030 0.451930 0.411150 -0.500450
O5    O     O_3   0.581210 0.598010 0.542960 -0.490600
O6    O     O_2   0.335820 0.303580 0.452320 -0.469346
O7    O     O_3   0.517518 0.257755 0.339399 -0.670231
O8    O     O_2   0.458181 0.481054 0.756515 -0.439640
O9    O     O_3   0.454459 0.327815 0.737224 -0.531363
O10   O     O_3   0.662190 0.593100 0.375060 -0.429949
O11   O     O_2   0.744373 0.524825 0.244799 -0.453324
O12   O     O_3   0.680571 0.716901 0.663994 -0.669136
O13   O     O_3   0.002263 0.317473 0.310147 -0.630066
O14   O     O_3   0.729379 0.674563 0.257199 -0.674377
O15   O     O_2   0.853880 0.696450 0.547730 -0.407454
O16   O     O_3   0.085100 0.636210 0.413950 -0.512590
O17   O     O_2   0.981103 0.773152 0.457584 -0.398657
O18   O     O_3   0.143720 0.761446 0.339208 -0.520170
O19   O     O_2   0.318180 0.554310 0.678550 -0.475020
O20   O     O_3   0.068680 0.548140 0.588860 -0.489095
O21   O     O_3   0.527520 0.406960 0.624950 -0.469126
O22   O     O_3   0.180331 0.682158 0.705925 -0.666541
O23   O     O_3   0.608500 0.402060 0.457050 -0.453275
O24   O     O_3   0.104610 0.363860 0.586060 -0.465316
P1    P     P_3+3 0.038810 0.422920 0.331160 1.004101
P2    P     P_3+3 0.678260 0.686080 0.568600 1.028897
P3    P     P_3+3 0.132008 0.739217 0.426488 1.106935
P4    P     P_3+3 0.150900 0.577150 0.668860 0.988991
P5    P     P_3+3 0.067391 0.261051 0.582534 0.992738
P6    P     P_3+3 0.635262 0.585574 0.280440 1.038609
P7    P     P_3+3 0.517421 0.300105 0.434194 0.958065
P8    P     P_3+3 0.557005 0.416192 0.718997 1.019862

loop_
_geom_bond_atom_site_label_1
_geom_bond_atom_site_label_2
_ccdc_geom_bond_type
Ba2   O5    S    
C46   C53   A    
C62   H61   S    
O11   P6    D    
C39   H33   S    
C62   N5    S    
Ba2   O24   S    
C22   H24   S    
C39   C41   D    
C18   C65   A    
C60   N3    S    
C4    O18   S    
C16   H39   S    
O2    P5    D    
C5    C6    A    
C64   H15   S    
H54   N4    S    
C42   H30   S    
C50   C51   D    
C63   H14   S    
C26   C30   A    
C24   C25   A    
C35   C36   A    
C59   H49   S    
C61   H58   S    
C33   C35   A    
C22   C24   A    
C28   O22   S    
Ba2   P4    S    
C60   H52   S    
C53   H37   S    
C41   C50   S    
C55   C57   S    
C19   C31   A    
C51   H29   S    
O20   P4    S    
C13   C14   A    
C20   C36   A    
C43   P2    S    
Ba1   P1    S    
C48   H35   S    
C55   H64   S    
C58   H44   S    
Ba1   Ba2   S    
C61   H55   S    
H59   N5    S    
Ba1   O10   S    
C7    C11   A    
C64   N5    S    
C31   C33   A    
O16   P3    S    
C9    C13   A    
C29   C30   A    
C50   H32   S    
C6    C7    A    
O24   P5    S    
Ba1   O4    S    
C23   Cl4   S    
C45   H8    S    
Ba2   O21   S    
C35   H28   S    
C37   C43   D    
C54   N2    S    
Ba2   O4    S    
C37   H36   S    
C62   H60   S    
Ba1   O16   S    
O14   P6    S    
C19   C20   A    
C12   Cl3   S    
C57   H2    S    
Ba1   O1    S    
C1    H7    S    
C13   P8    S    
C56   H11   S    
C16   H38   S    
C15   P4    S    
C36   P1    S    
C46   P5    S    
C28   H40   S    
C16   Cl5   S    
C4    C16   S    
O8    P8    D    
C32   H26   S    
C52   H23   S    
O4    P1    S    
O19   P4    D    
C31   C32   A    
C45   Cl6   S    
C34   H5    S    
Ba2   O19   S    
C37   C38   S    
C60   H51   S    
C2    C21   A    
C14   C15   A    
C64   H17   S    
C27   Cl7   S    
C18   C26   A    
Ba1   O23   S    
C47   C53   A    
C44   C49   A    
Ba1   P2    S    
O3    P5    S    
C52   H34   S    
C59   H47   S    
C49   C51   S    
C30   C32   A    
C41   C42   S    
C7    C65   A    
C63   O9    S    
C56   H9    S    
C58   N1    S    
C52   O13   S    
O5    P2    S    
C8    H21   S    
C34   H6    S    
C61   N4    S    
C40   N1    S    
C48   C49   A    
Ba1   O5    S    
O21   P8    S    
C29   H25   S    
C10   C11   A    
C58   H43   S    
O18   P3    S    
C1    H65   S    
Ba2   O20   S    
C1    C12   S    
C57   Cl2   S    
C38   C39   S    
C21   H22   S    
C63   C64   S    
C23   O7    S    
C58   H42   S    
C56   H10   S    
Ba2   O23   S    
C38   P3    S    
C42   C43   D    
C63   H13   S    
C3    C5    A    
O10   P6    S    
Ba2   O6    S    
O23   P7    S    
C5    H19   S    
C55   O12   S    
C45   O3    S    
C14   H20   S    
O6    P7    D    
Ba1   O20   S    
C23   H4    S    
H46   N2    S    
Ba1   O15   S    
O13   P1    S    
C2    C3    A    
C2    C65   A    
C3    H18   S    
C9    C10   A    
C52   C54   S    
C54   H45   S    
C40   H1    S    
O22   P4    S    
C12   O14   S    
C59   H48   S    
C33   P6    S    
O1    P1    D    
C17   C22   A    
C34   N4    S    
C27   C29   A    
O12   P2    S    
C45   C56   S    
C60   H53   S    
C28   Cl8   S    
H50   N3    S    
C44   H31   S    
C10   C17   A    
C15   C17   A    
O15   P2    D    
C61   H57   S    
C55   H63   S    
C28   C40   S    
C4    H27   S    
C54   H56   S    
C8    C9    A    
C23   C34   S    
C57   N3    S    
H41   N1    S    
O7    P7    S    
C44   C46   A    
C59   N2    S    
O17   P3    D    
C18   C19   A    
C24   C27   A    
C6    C8    A    
C47   C48   A    
O9    P8    S    
C62   H62   S    
C12   Cl1   S    
C20   C21   A    
C11   C25   A    
C40   H12   S    
C1    H3    S    
C47   P7    S    
C4    H16   S    
C25   C26   A    
