data_mof_unit_45531.cif
_audit_creation_date              2012-10-26T20:38:23-0400
_audit_creation_method            fapswitch 2.2
_symmetry_space_group_name_H-M    P1
_symmetry_Int_Tables_number       1
_space_group_crystal_system       triclinic
_cell_length_a                    15.846751
_cell_length_b                    11.059876
_cell_length_c                    9.81388
_cell_angle_alpha                 111.371139
_cell_angle_beta                  97.514871
_cell_angle_gamma                 89.784248
_cell_volume                      1586.18911921

loop_
_atom_site_label
_atom_site_type_symbol
_atom_type_description
_atom_site_fract_x
_atom_site_fract_y
_atom_site_fract_z
_atom_type_partial_charge
C1    C     C_R   0.494063 0.254147 0.440694 0.557969
C2    C     C_3   0.021705 0.611803 0.469568 0.022107
C3    C     C_3   0.025950 0.401814 0.412337 0.027633
C4    C     C_3   0.974970 0.623421 0.602348 0.029676
C5    C     C_1   0.251170 0.513948 0.510511 -0.041354
C6    C     C_1   0.749121 0.492222 0.491703 -0.051044
C7    C     C_3   0.038686 0.532019 0.645640 -0.113282
C8    C     C_3   0.962779 0.492689 0.368696 -0.103738
C9    C     C_3   0.083950 0.520623 0.511992 0.026158
C10   C     C_3   0.917041 0.503670 0.502675 0.040738
C11   C     C_1   0.175967 0.520755 0.513995 -0.080987
C12   C     C_R   0.506169 0.745846 0.559299 0.557581
C13   C     C_1   0.824839 0.493525 0.493365 -0.082721
C14   C     C_2   0.490917 0.114908 0.407347 -0.133164
C15   C     C_2   0.509843 0.885072 0.592646 -0.134168
C16   C     C_3   0.062813 0.284693 0.300883 -0.249616
C17   C     C_3   0.994713 0.179954 0.206075 -0.302725
C18   C     C_3   0.034887 0.068469 0.093418 -0.467403
C19   C     C_3   0.952160 0.751161 0.720313 -0.259140
C20   C     C_3   0.858590 0.784038 0.694998 -0.293392
C21   C     C_3   0.841051 0.919467 0.799552 -0.463438
C22   C     C_3   0.953013 0.304497 0.595083 -0.250195
C23   C     C_2   0.502317 0.069528 0.516594 -0.165557
C24   C     C_3   0.030050 0.236299 0.640036 -0.296822
C25   C     C_3   0.002805 0.135935 0.700553 -0.467097
C26   C     C_3   0.049798 0.720117 0.421001 -0.252082
C27   C     C_3   0.973228 0.781982 0.364301 -0.300208
C28   C     C_3   0.001302 0.875804 0.295751 -0.463313
C29   C     C_2   0.499078 0.930448 0.483373 -0.165493
C30   C     C_2   0.507020 0.510214 0.081070 -0.025325
C31   C     C_2   0.492995 0.489772 0.918931 -0.025109
C32   C     C_R   0.340098 0.503800 0.503110 0.552658
C33   C     C_R   0.659905 0.496471 0.496993 0.551122
C34   C     C_3   0.979951 0.412597 0.545097 0.027870
Cu1   Cu    Cu3+1 0.514700 0.521810 0.644910 0.931124
Cu2   Cu    Cu3+1 0.485300 0.478190 0.355090 0.932101
H1    H     H_    0.521353 0.951015 0.707434 0.100749
H2    H     H_    0.963286 0.141727 0.277543 0.159376
H3    H     H_    0.945582 0.221657 0.146507 0.158403
H4    H     H_    0.095406 0.319823 0.227652 0.145848
H5    H     H_    0.111540 0.243111 0.361038 0.136733
H6    H     H_    0.847755 0.922737 0.914864 0.148005
H7    H     H_    0.885332 0.993620 0.792615 0.150164
H8    H     H_    0.774762 0.942976 0.769029 0.148913
H9    H     H_    0.840515 0.777401 0.579263 0.160625
H10   H     H_    0.817336 0.714119 0.716568 0.176457
H11   H     H_    0.964967 0.742812 0.830551 0.130442
H12   H     H_    0.479216 0.048957 0.292577 0.101474
H13   H     H_    0.994835 0.831302 0.721985 0.138904
H14   H     H_    0.974627 0.184638 0.803747 0.147570
H15   H     H_    0.955225 0.064262 0.617797 0.153692
H16   H     H_    0.059027 0.083520 0.725620 0.136237
H17   H     H_    0.062916 0.186354 0.542972 0.157626
H18   H     H_    0.075887 0.308674 0.726332 0.159930
H19   H     H_    0.917891 0.348618 0.691077 0.144354
H20   H     H_    0.908913 0.233062 0.504522 0.136342
H21   H     H_    0.044936 0.954307 0.378078 0.156130
H22   H     H_    0.034169 0.823389 0.199066 0.148464
H23   H     H_    0.444426 0.418105 0.846426 0.147022
H24   H     H_    0.944346 0.919762 0.257734 0.139753
H25   H     H_    0.929140 0.705750 0.279295 0.158974
H26   H     H_    0.938196 0.835968 0.457038 0.159790
H27   H     H_    0.089336 0.795215 0.515645 0.136649
H28   H     H_    0.089704 0.677343 0.331488 0.146252
H29   H     H_    0.930607 0.475371 0.255280 0.092722
H30   H     H_    0.071160 0.548508 0.758689 0.093432
H31   H     H_    0.487592 0.864788 0.368391 0.155804
H32   H     H_    0.514008 0.135186 0.631562 0.155583
H33   H     H_    0.555594 0.581872 0.153577 0.146605
H34   H     H_    0.582518 0.622040 0.933928 0.200309
H35   H     H_    0.417482 0.377965 0.066065 0.200689
H36   H     H_    0.059869 0.102253 0.012137 0.149993
H37   H     H_    0.087850 0.030139 0.149528 0.152880
H38   H     H_    0.986664 0.988197 0.033617 0.141136
N1    N     N_2   0.463210 0.445420 0.137360 -0.352517
N2    N     N_2   0.536790 0.554580 0.862640 -0.352516
O1    O     O_R   0.507840 0.332340 0.577400 -0.497521
O2    O     O_R   0.492160 0.667660 0.422600 -0.497578
O3    O     O_R   0.483020 0.295500 0.332650 -0.490328
O4    O     O_R   0.516980 0.704500 0.667350 -0.490567
O5    O     O_R   0.391490 0.518400 0.622350 -0.492308
O6    O     O_R   0.608510 0.481600 0.377650 -0.491942
O7    O     O_R   0.366660 0.481570 0.377600 -0.488355
O8    O     O_R   0.633340 0.518430 0.622400 -0.489758

loop_
_geom_bond_atom_site_label_1
_geom_bond_atom_site_label_2
_ccdc_geom_bond_type
C14   C23   D    
C1    O1    A    
C19   C20   S    
Cu1   O5    S    
C28   H21   S    
C32   O5    A    
C26   C27   S    
C23   C29   S    
Cu2   N1    S    
C5    C11   T    
C30   C31   S    
C19   H11   S    
Cu2   O7    S    
C24   H18   S    
Cu1   O4    S    
C17   H3    S    
C31   H23   S    
C26   H28   S    
C25   H14   S    
C15   H1    S    
C27   H25   S    
C21   H7    S    
C4    C19   S    
Cu1   Cu2   S    
Cu2   O6    S    
C16   C17   S    
C12   O2    A    
C10   C13   S    
C33   O6    A    
C20   H9    S    
C5    C32   S    
C8    H29   S    
C18   H38   S    
C29   H31   S    
C4    C7    S    
C15   C29   D    
C28   H24   S    
C18   H36   S    
C22   C34   S    
Cu1   N2    S    
C24   C25   S    
C10   C34   S    
C3    C8    S    
C22   H20   S    
C3    C34   S    
C24   H17   S    
Cu1   O1    S    
C23   H32   S    
C2    C4    S    
C26   H27   S    
C25   H15   S    
C3    C9    S    
C27   H26   S    
C21   H8    S    
C19   H13   S    
C12   C15   S    
C17   C18   S    
C2    C26   S    
C9    C11   S    
C16   H4    S    
C18   H37   S    
H34   N2    S    
C1    O3    A    
C7    C34   S    
C22   C24   S    
C4    C10   S    
C30   H33   S    
C7    C9    S    
C32   O7    A    
C2    C8    S    
Cu2   O3    S    
C14   H12   S    
Cu1   O8    S    
C22   H19   S    
C28   H22   S    
C6    C33   S    
C25   H16   S    
Cu2   O2    S    
C6    C13   T    
H35   N1    S    
C30   N1    D    
C31   N2    D    
C12   O4    A    
C17   H2    S    
C33   O8    A    
C21   H6    S    
C20   C21   S    
C8    C10   S    
C27   C28   S    
C1    C14   S    
C2    C9    S    
C16   H5    S    
C20   H10   S    
C3    C16   S    
C7    H30   S    
