data_mof_unit_16675.cif
_audit_creation_date              2012-12-11T15:52:42-0500
_audit_creation_method            fapswitch 2.2
_symmetry_space_group_name_H-M    P1
_symmetry_Int_Tables_number       1
_space_group_crystal_system       triclinic
_cell_length_a                    6.934624
_cell_length_b                    14.777104
_cell_length_c                    15.930177
_cell_angle_alpha                 90.316326
_cell_angle_beta                  89.910139
_cell_angle_gamma                 89.911937
_cell_volume                      1632.39470614

loop_
_atom_site_label
_atom_site_type_symbol
_atom_type_description
_atom_site_fract_x
_atom_site_fract_y
_atom_site_fract_z
_atom_type_partial_charge
O1    O     O_R   0.494400 0.415640 0.412830 -0.532716
O2    O     O_R   0.823920 0.405510 0.586560 -0.517459
O3    O     O_R   0.994250 0.584360 0.587170 -0.512526
C1    C     C_R   0.654213 0.381057 0.613718 0.733652
O4    O     O_R   0.824110 0.404610 0.413450 -0.512262
O5    O     O_R   0.994440 0.583460 0.412820 -0.518378
C2    C     C_R   0.655445 0.380851 0.385455 0.737787
O6    O     O_R   0.494210 0.416540 0.587180 -0.529873
O7    O     O_3   0.660810 0.558680 0.500000 -0.365266
V1    V     V_3+5 0.935650 0.489110 0.500000 1.581377
O8    O     O_R   0.324150 0.594490 0.413440 -0.522245
C3    C     C_R   0.154759 0.616892 0.384570 0.750379
O9    O     O_R   0.323970 0.595390 0.586550 -0.555324
C4    C     C_R   0.153927 0.618503 0.615082 0.726339
V2    V     V_3+5 0.435660 0.510890 0.500000 1.527828
O10   O     O_3   0.160630 0.441320 0.500000 -0.357704
C5    C     C_3   0.925425 0.697748 0.719862 0.638655
C6    C     C_3   0.917459 0.767520 0.794555 0.141129
H1    H     H_    0.813832 0.822672 0.777855 0.046911
H2    H     H_    0.129360 0.804147 0.596993 0.108827
H3    H     H_    0.066266 0.904399 0.704139 0.069828
C7    C     C_3   0.208064 0.783643 0.654584 -0.414232
C8    C     C_3   0.269318 0.663587 0.760572 -0.447415
C9    C     C_3   0.138286 0.689609 0.685362 -0.068153
H4    H     H_    0.418979 0.651959 0.738538 0.127552
H5    H     H_    0.216768 0.600368 0.788445 0.193634
C10   C     C_3   0.119926 0.812083 0.809419 -0.076472
C11   C     C_3   0.182450 0.856957 0.724634 0.065110
C12   C     C_3   0.269323 0.736903 0.830762 0.371362
H6    H     H_    0.414731 0.769298 0.832635 0.080874
H7    H     H_    0.362677 0.778632 0.636044 0.222808
C13   C     C_R   0.966514 0.758886 0.201631 -0.271363
H8    H     H_    0.833550 0.766110 0.166827 0.177351
C14   C     C_R   0.974908 0.694150 0.265802 0.407609
C15   C     C_R   0.143421 0.685222 0.315501 -0.339407
C16   C     C_R   0.302808 0.741517 0.297199 0.361128
C17   C     C_R   0.299065 0.799516 0.227562 0.247449
C18   C     C_R   0.127076 0.811420 0.180526 -0.260240
C19   C     C_R   0.800311 0.253285 0.699098 0.331580
C20   C     C_R   0.788440 0.191318 0.766009 -0.288860
H9    H     H_    0.911493 0.148635 0.779671 0.169471
C21   C     C_R   0.619701 0.182620 0.814076 -0.230784
C22   C     C_R   0.458752 0.236560 0.793428 0.256680
C23   C     C_R   0.468692 0.297961 0.726764 0.349373
C24   C     C_R   0.641246 0.309706 0.680333 -0.259845
C25   C     C_R   0.812283 0.280667 0.274655 0.257643
C26   C     C_R   0.802371 0.204825 0.220318 0.326914
C27   C     C_R   0.622309 0.177371 0.187600 -0.260879
C28   C     C_R   0.456414 0.208145 0.229400 -0.319024
H10   H     H_    0.317016 0.183897 0.210224 0.225523
C29   C     C_R   0.470827 0.263406 0.301335 0.377326
C30   C     C_R   0.646040 0.308377 0.319292 -0.261286
O11   O     O_R   0.771300 0.080930 0.910090 -0.542694
O12   O     O_R   0.441270 0.092800 0.083770 -0.545034
O13   O     O_R   0.271080 0.913920 0.084380 -0.538832
C31   C     C_R   0.609965 0.112527 0.115102 0.753440
O14   O     O_R   0.441580 0.091910 0.910670 -0.535069
O15   O     O_R   0.271390 0.913020 0.910040 -0.540758
C32   C     C_R   0.610443 0.114352 0.882289 0.741337
O16   O     O_R   0.770990 0.081830 0.084440 -0.517527
O17   O     O_3   0.604750 0.938760 0.997250 -0.387999
V3    V     V_3+5 0.329850 0.008280 0.997210 1.452357
O18   O     O_R   0.941680 0.901940 0.910610 -0.548414
C33   C     C_R   0.110262 0.881659 0.880290 0.741054
O19   O     O_R   0.941370 0.902830 0.083720 -0.544482
C34   C     C_R   0.111699 0.879637 0.111781 0.783017
V4    V     V_3+5 0.829860 0.986420 0.997150 1.446264
O20   O     O_3   0.104830 0.056030 0.997180 -0.361204
O21   O     O_3   0.797565 0.723934 0.655203 -0.664734
H11   H     H_    0.821058 0.788210 0.641085 0.245510
O22   O     O_3   0.356586 0.904803 0.733982 -0.640273
H12   H     H_    0.322931 0.968107 0.749331 0.286940
O23   O     O_3   0.811548 0.644027 0.282761 -0.505890
C35   C     C_3   0.796142 0.572724 0.223667 0.126186
H13   H     H_    0.888291 0.515141 0.243776 0.132083
H14   H     H_    0.838844 0.592726 0.158779 0.093311
C36   C     C_3   0.587509 0.541540 0.220117 -0.672150
H15   H     H_    0.495248 0.596713 0.195397 0.209536
H16   H     H_    0.574809 0.481189 0.178662 0.155427
H17   H     H_    0.535908 0.523966 0.283728 0.234453
O24   O     O_3   0.470336 0.736336 0.343888 -0.498104
C37   C     C_3   0.464502 0.803791 0.406980 0.182558
H18   H     H_    0.348601 0.788835 0.453350 0.064503
H19   H     H_    0.439822 0.872293 0.379971 0.115201
C38   C     C_3   0.656865 0.805422 0.452708 -0.652664
H20   H     H_    0.774982 0.821350 0.407989 0.211096
H21   H     H_    0.653672 0.857841 0.502910 0.150004
H22   H     H_    0.685548 0.738600 0.481561 0.250045
O25   O     O_3   0.465234 0.846001 0.209152 -0.631000
H23   H     H_    0.506014 0.824631 0.152757 0.296789
O26   O     O_3   0.964645 0.257896 0.650400 -0.617447
H24   H     H_    0.058918 0.212184 0.670055 0.314689
O27   O     O_3   0.288719 0.232566 0.838008 -0.634163
H25   H     H_    0.322102 0.241668 0.897963 0.284706
O28   O     O_3   0.868337 0.611668 0.748308 -0.634429
H26   H     H_    0.727900 0.613764 0.759601 0.295403
O29   O     O_3   0.304459 0.346029 0.707107 -0.517544
C39   C     C_3   0.282294 0.418827 0.763985 0.165504
H27   H     H_    0.325150 0.480600 0.730187 0.099414
H28   H     H_    0.372696 0.414809 0.821931 0.071677
C40   C     C_3   0.072009 0.424908 0.791215 -0.631006
H29   H     H_    0.024746 0.359750 0.818594 0.236833
H30   H     H_    0.053355 0.478173 0.839909 0.185410
H31   H     H_    0.979872 0.440783 0.736452 0.241278
O30   O     O_3   0.983166 0.326382 0.285964 -0.606277
H32   H     H_    0.070996 0.310486 0.238956 0.323830
O31   O     O_3   0.965798 0.152078 0.209330 -0.553031
C41   C     C_3   0.946238 0.073391 0.259699 0.136547
H33   H     H_    0.854435 0.022419 0.227525 0.135861
H34   H     H_    0.880380 0.088185 0.322271 0.085936
C42   C     C_3   0.142092 0.030400 0.275091 -0.726984
H35   H     H_    0.123224 0.963664 0.305678 0.167573
H36   H     H_    0.220936 0.021318 0.215164 0.240833
H37   H     H_    0.228749 0.073768 0.317108 0.215103
O32   O     O_3   0.312721 0.271368 0.353738 -0.516846
C43   C     C_3   0.344280 0.218901 0.426609 0.147888
H38   H     H_    0.439744 0.255339 0.471324 0.102105
H39   H     H_    0.411348 0.151941 0.412182 0.065743
C44   C     C_3   0.152533 0.202157 0.470108 -0.605497
H40   H     H_    0.052925 0.165877 0.427387 0.194500
H41   H     H_    0.175881 0.160380 0.526898 0.155333
H42   H     H_    0.085334 0.267375 0.488712 0.263179
O33   O     O_3   0.854261 0.724573 0.868565 -0.603897
H43   H     H_    0.738637 0.757335 0.889283 0.277948
O34   O     O_3   0.222146 0.697613 0.909341 -0.525519
C45   C     C_3   0.387377 0.661034 0.948243 0.098087
H44   H     H_    0.473092 0.716410 0.977371 0.116465
H45   H     H_    0.479435 0.622429 0.903099 0.113154
C46   C     C_3   0.324182 0.596444 0.016835 -0.709073
H46   H     H_    0.230325 0.542814 0.989938 0.223851
H47   H     H_    0.452988 0.564069 0.044988 0.174418
H48   H     H_    0.243474 0.633799 0.066422 0.213778

loop_
_geom_bond_atom_site_label_1
_geom_bond_atom_site_label_2
_ccdc_geom_bond_type
O15   V3    S    
O13   V3    S    
C5    O21   S    
O27   H25   S    
C12   O34   S    
C10   C12   S    
O23   C35   S    
O28   H26   S    
C1    O6    A    
O29   C39   S    
O11   C32   A    
O33   H43   S    
C36   H15   S    
C41   H33   S    
C40   H29   S    
C35   H14   S    
C8    C12   S    
C16   C17   A    
C2    C30   S    
C6    H1    S    
O5    C3    A    
C38   H22   S    
O32   C43   S    
C25   O30   S    
C25   C30   A    
C43   H38   S    
C14   C15   A    
C8    H5    S    
C4    C9    S    
C28   H10   S    
C22   O27   S    
O8    V2    S    
C18   C34   S    
O16   V4    S    
C41   H34   S    
O19   V4    S    
C35   C36   S    
C8    C9    S    
C5    O28   S    
C13   C18   A    
C12   H6    S    
O7    V1    S    
C6    O33   S    
C19   C24   A    
C46   H48   S    
C20   C21   A    
C40   H30   S    
C7    C11   S    
O9    C4    A    
O17   V3    S    
C19   O26   S    
O24   C37   S    
O18   V4    S    
C1    C24   S    
C36   H16   S    
O15   C33   A    
O12   C31   A    
C5    C9    S    
C7    H7    S    
C38   H21   S    
V4    O20   S    
O14   V3    S    
C35   H13   S    
C19   C20   A    
O4    C2    A    
O12   V3    S    
C45   C46   S    
C28   C29   A    
C38   H20   S    
C29   O32   S    
C29   C30   A    
C15   C16   A    
C13   C14   A    
O2    C1    A    
C22   C23   A    
C17   C18   A    
C23   O29   S    
O17   V4    S    
C26   C27   A    
C16   O24   S    
O31   C41   S    
C5    C6    S    
C42   H36   S    
C3    C15   S    
O3    C4    A    
C44   H41   S    
O1    V2    S    
C20   H9    S    
H3    C11   S    
H2    C7    S    
C37   H18   S    
O6    V2    S    
C37   H19   S    
O9    V2    S    
O34   C45   S    
C7    C9    S    
C11   O22   S    
C21   C22   A    
O2    V1    S    
C39   C40   S    
O26   H24   S    
O13   C34   A    
C23   C24   A    
C46   H46   S    
C36   H17   S    
C27   C31   S    
C25   C26   A    
C27   C28   A    
C45   H45   S    
C42   H35   S    
O1    C2    A    
C6    C10   S    
C21   C32   S    
O5    V1    S    
C44   H40   S    
C41   C42   S    
V3    O20   S    
C40   H31   S    
C37   C38   S    
O30   H32   S    
C26   O31   S    
C43   C44   S    
C17   O25   S    
C13   H8    S    
O7    V2    S    
O4    V1    S    
O3    V1    S    
V1    O10   S    
C45   H44   S    
C44   H42   S    
C43   H39   S    
C42   H37   S    
O19   C34   A    
O21   H11   S    
O11   V4    S    
C39   H28   S    
O14   C32   A    
C10   C33   S    
C14   O23   S    
O18   C33   A    
C31   O16   A    
O22   H12   S    
C8    H4    S    
C39   H27   S    
C10   C11   S    
O25   H23   S    
V2    O10   S    
O8    C3    A    
C46   H47   S    
