data_mof_unit_17667.cif
_audit_creation_date              2012-12-10T16:35:56-0500
_audit_creation_method            fapswitch 2.2
_symmetry_space_group_name_H-M    P1
_symmetry_Int_Tables_number       1
_space_group_crystal_system       triclinic
_cell_length_a                    14.131
_cell_length_b                    16.461263
_cell_length_c                    13.119831
_cell_angle_alpha                 89.79613
_cell_angle_beta                  107.428375
_cell_angle_gamma                 90.044972
_cell_volume                      2911.73488459

loop_
_atom_site_label
_atom_site_type_symbol
_atom_type_description
_atom_site_fract_x
_atom_site_fract_y
_atom_site_fract_z
_atom_type_partial_charge
C1    C     C_R   0.313284 0.845409 0.474220 0.865644
C2    C     C_R   0.313367 0.154780 0.474443 0.869178
C3    C     C_R   0.813284 0.345409 0.474220 0.865644
C4    C     C_R   0.813367 0.654780 0.474443 0.869178
C5    C     C_2   0.242593 0.781189 0.466793 -0.365641
C6    C     C_2   0.242063 0.218493 0.467402 -0.362925
C7    C     C_2   0.742593 0.281189 0.466793 -0.365641
C8    C     C_2   0.742063 0.718493 0.467402 -0.362926
C9    C     C_R   0.685671 0.156921 0.525231 0.839501
C10   C     C_R   0.686287 0.843751 0.524247 0.841588
C11   C     C_R   0.185671 0.656921 0.525231 0.839501
C12   C     C_R   0.186287 0.343751 0.524247 0.841588
C13   C     C_R   0.547269 0.997940 0.786006 0.876912
C14   C     C_R   0.047269 0.497940 0.786006 0.876912
C15   C     C_R   0.453378 0.000407 0.214606 0.745466
C16   C     C_R   0.953378 0.500407 0.214606 0.745467
C17   C     C_2   0.441224 0.003195 0.099602 -0.172506
C18   C     C_2   0.941224 0.503195 0.099602 -0.172507
C19   C     C_2   0.509165 0.967355 0.059091 -0.017593
C20   C     C_2   0.009165 0.467355 0.059091 -0.017593
C21   C     C_2   0.567213 0.989868 0.901935 -0.326685
C22   C     C_2   0.067213 0.489868 0.901935 -0.326684
C23   C     C_2   0.494579 0.968004 0.942830 -0.120862
C24   C     C_2   0.994579 0.468005 0.942830 -0.120863
C25   C     C_2   0.759493 0.221302 0.539552 -0.185232
C26   C     C_2   0.762512 0.781877 0.534407 -0.180926
C27   C     C_2   0.259493 0.721302 0.539552 -0.185232
C28   C     C_2   0.262512 0.281877 0.534407 -0.180926
H1    H     H_    0.420667 0.955340 0.890013 0.203088
H2    H     H_    0.920667 0.455341 0.890013 0.203086
H3    H     H_    0.641476 0.002100 0.954113 0.156527
H4    H     H_    0.141477 0.502099 0.954113 0.156527
H5    H     H_    0.677906 0.281001 0.396552 0.154666
H6    H     H_    0.671158 0.712584 0.405950 0.158429
H7    H     H_    0.177906 0.781001 0.396552 0.154666
H8    H     H_    0.171157 0.212584 0.405950 0.158429
O1    O     O_3   0.500010 0.000000 0.500000 -0.483210
O2    O     O_3   0.000010 0.500000 0.500000 -0.483210
O3    O     O_R   0.376880 0.837120 0.424150 -0.648490
O4    O     O_R   0.376880 0.162880 0.424150 -0.658304
O5    O     O_R   0.876880 0.337120 0.424150 -0.648490
O6    O     O_R   0.876880 0.662880 0.424150 -0.658304
O7    O     O_R   0.603010 0.162890 0.452470 -0.645727
O8    O     O_R   0.603010 0.837110 0.452470 -0.635540
O9    O     O_R   0.103010 0.662890 0.452470 -0.645727
O10   O     O_R   0.103010 0.337110 0.452470 -0.635540
O11   O     O_R   0.316670 0.095240 0.537470 -0.625108
O12   O     O_R   0.316670 0.904760 0.537470 -0.635767
O13   O     O_R   0.816670 0.595240 0.537470 -0.625108
O14   O     O_R   0.816670 0.404760 0.537470 -0.635767
O15   O     O_R   0.703490 0.904800 0.585920 -0.642933
O16   O     O_R   0.703490 0.095200 0.585920 -0.636454
O17   O     O_R   0.203490 0.404800 0.585920 -0.642934
O18   O     O_R   0.203490 0.595200 0.585920 -0.636454
O19   O     O_R   0.458050 0.000000 0.725250 -0.618152
O20   O     O_R   0.958050 0.500000 0.725250 -0.618153
O21   O     O_R   0.461630 0.932310 0.264690 -0.622635
O22   O     O_R   0.461630 0.067690 0.264690 -0.646875
O23   O     O_R   0.961630 0.432310 0.264690 -0.622636
O24   O     O_R   0.961630 0.567690 0.264690 -0.646874
O25   O     O_R   0.618750 0.000000 0.745380 -0.648296
O26   O     O_R   0.118750 0.500000 0.745380 -0.648296
Zn1   Zn    Zn3+2 0.485630 0.096680 0.411850 0.947612
Zn2   Zn    Zn3+2 0.485630 0.903320 0.411850 0.964092
Zn3   Zn    Zn3+2 0.985630 0.596680 0.411850 0.947612
Zn4   Zn    Zn3+2 0.985630 0.403320 0.411850 0.964092
Zn5   Zn    Zn3+2 0.399590 0.000000 0.573760 0.989215
Zn6   Zn    Zn3+2 0.899590 0.500000 0.573760 0.989214
Zn7   Zn    Zn3+2 0.629190 1.000000 0.602520 0.980937
Zn8   Zn    Zn3+2 0.129190 0.500000 0.602520 0.980937
C29   C     C_R   0.599235 0.925796 0.128962 0.148589
C30   C     C_R   0.617935 0.844334 0.109799 -0.142579
C31   C     C_R   0.701996 0.804743 0.174992 -0.134079
C32   C     C_R   0.768318 0.846270 0.259294 -0.099350
C33   C     C_R   0.750877 0.927505 0.278433 -0.158027
C34   C     C_R   0.667103 0.967415 0.213208 -0.142805
H9    H     H_    0.566880 0.811333 0.045122 0.115931
H10   H     H_    0.715672 0.741823 0.160231 0.129533
H11   H     H_    0.833333 0.815559 0.309609 0.145150
H12   H     H_    0.802441 0.959624 0.343646 0.126286
H13   H     H_    0.655229 0.030672 0.228222 0.122637
C35   C     C_R   0.099235 0.425796 0.128962 0.148589
C36   C     C_R   0.117934 0.344333 0.109798 -0.142580
C37   C     C_R   0.201995 0.304742 0.174992 -0.134080
C38   C     C_R   0.268318 0.346269 0.259293 -0.099349
C39   C     C_R   0.250877 0.427504 0.278433 -0.158027
C40   C     C_R   0.167103 0.467415 0.213208 -0.142805
H14   H     H_    0.066880 0.311333 0.045122 0.115931
H15   H     H_    0.215671 0.241822 0.160230 0.129532
H16   H     H_    0.333333 0.315558 0.309608 0.145149
H17   H     H_    0.302441 0.459624 0.343645 0.126286
H18   H     H_    0.155229 0.530671 0.228222 0.122637
C41   C     C_2   0.356665 0.053892 0.035269 0.379327
H19   H     H_    0.296624 0.068170 0.068013 0.045265
O27   O     O_2   0.354468 0.083030 0.948880 -0.571489
C42   C     C_2   0.856665 0.553892 0.035269 0.379327
H20   H     H_    0.796623 0.568168 0.068011 0.045264
O28   O     O_2   0.854472 0.583034 0.948882 -0.571488
C43   C     C_R   0.349059 0.720190 0.634791 0.148228
C44   C     C_R   0.339104 0.729898 0.737379 -0.104563
C45   C     C_R   0.423287 0.732340 0.826766 -0.157703
C46   C     C_R   0.517760 0.724622 0.814389 -0.113193
C47   C     C_R   0.528202 0.713992 0.712656 -0.143178
C48   C     C_R   0.444229 0.711454 0.623105 -0.146032
H21   H     H_    0.266369 0.736700 0.747884 0.110376
H22   H     H_    0.415267 0.740525 0.905578 0.125398
H23   H     H_    0.582857 0.726698 0.883586 0.131668
H24   H     H_    0.601360 0.707844 0.703137 0.137348
H25   H     H_    0.453343 0.703015 0.544767 0.144976
C49   C     C_R   0.359591 0.290063 0.618402 0.125306
C50   C     C_R   0.365523 0.280278 0.726460 -0.085768
C51   C     C_R   0.457344 0.285181 0.805319 -0.111840
C52   C     C_R   0.543510 0.300247 0.776797 -0.136242
C53   C     C_R   0.537954 0.310839 0.669401 -0.153013
C54   C     C_R   0.446310 0.306030 0.590362 -0.128477
H26   H     H_    0.299353 0.267875 0.749342 0.126318
H27   H     H_    0.461751 0.276990 0.888509 0.148409
H28   H     H_    0.614540 0.303795 0.837887 0.129050
H29   H     H_    0.604633 0.322665 0.647350 0.140444
H30   H     H_    0.442936 0.314418 0.507457 0.135107
C55   C     C_R   0.849059 0.220190 0.634791 0.148229
C56   C     C_R   0.839104 0.229898 0.737379 -0.104564
C57   C     C_R   0.923287 0.232340 0.826766 -0.157703
C58   C     C_R   0.017760 0.224622 0.814389 -0.113192
C59   C     C_R   0.028202 0.213992 0.712656 -0.143177
C60   C     C_R   0.944229 0.211454 0.623105 -0.146032
H31   H     H_    0.766369 0.236700 0.747884 0.110376
H32   H     H_    0.915267 0.240524 0.905578 0.125398
H33   H     H_    0.082856 0.226697 0.883586 0.131668
H34   H     H_    0.101360 0.207844 0.703137 0.137349
H35   H     H_    0.953343 0.203015 0.544767 0.144976
C61   C     C_R   0.859590 0.790062 0.618402 0.125306
C62   C     C_R   0.865522 0.780278 0.726460 -0.085768
C63   C     C_R   0.957343 0.785181 0.805320 -0.111838
C64   C     C_R   0.043509 0.800246 0.776798 -0.136242
C65   C     C_R   0.037954 0.810838 0.669402 -0.153013
C66   C     C_R   0.946310 0.806029 0.590364 -0.128478
H36   H     H_    0.799351 0.767875 0.749342 0.126318
H37   H     H_    0.961749 0.776989 0.888510 0.148411
H38   H     H_    0.114539 0.803794 0.837889 0.129051
H39   H     H_    0.104633 0.822663 0.647352 0.140444
H40   H     H_    0.942936 0.814417 0.507459 0.135107

loop_
_geom_bond_atom_site_label_1
_geom_bond_atom_site_label_2
_ccdc_geom_bond_type
C14   O20   A    
C66   H40   S    
O2    Zn8   S    
C45   C46   A    
O13   Zn6   S    
O1    Zn7   S    
C18   C42   S    
C31   C32   A    
C19   C29   S    
C50   C51   A    
C4    C8    S    
C53   C54   A    
C9    C25   S    
C57   C58   A    
C38   C39   A    
O8    Zn2   S    
O3    Zn2   S    
C21   H3    S    
C27   C43   S    
C44   H21   S    
C30   H9    S    
O4    Zn1   S    
C22   H4    S    
C12   C28   S    
C1    C5    S    
C23   H1    S    
O10   Zn4   S    
C20   C35   S    
C39   H17   S    
O23   Zn4   S    
C51   H27   S    
O17   Zn8   S    
C35   C40   A    
C14   O26   A    
O1    Zn5   S    
C45   H22   S    
C8    C26   D    
O26   Zn8   S    
C16   O24   A    
C56   H31   S    
C49   C50   A    
O16   Zn7   S    
C5    C27   D    
C59   H34   S    
C6    C28   D    
C20   C24   S    
C61   C62   A    
C42   O28   D    
O6    Zn3   S    
C31   H10   S    
C47   H24   S    
C33   H12   S    
C53   H29   S    
C10   C26   S    
C43   C48   A    
C62   H36   S    
C41   O27   D    
C40   H18   S    
C15   O21   A    
C2    C6    S    
C9    O16   A    
C10   O15   A    
O11   Zn5   S    
C51   C52   A    
O1    Zn1   S    
C3    O14   A    
C64   H38   S    
C9    O7    A    
C32   C33   A    
C7    H5    S    
C10   O8    A    
O2    Zn4   S    
C64   C65   A    
C37   C38   A    
C12   O10   A    
C63   H37   S    
C39   C40   A    
C65   C66   A    
C28   C49   S    
C61   C66   A    
O20   Zn6   S    
C16   O23   A    
C19   C23   S    
C33   C34   A    
C65   H39   S    
C62   C63   A    
C36   C37   A    
O18   Zn8   S    
O2    Zn3   S    
C11   C27   S    
C42   H20   S    
C13   C21   S    
C46   H23   S    
C41   H19   S    
C8    H6    S    
C55   C56   A    
O5    Zn4   S    
C11   O18   A    
O2    Zn6   S    
O24   Zn3   S    
C54   H30   S    
C32   H11   S    
C21   C23   D    
O9    Zn3   S    
C59   C60   A    
C15   O22   A    
C22   C24   D    
C11   O9    A    
C17   C41   S    
C37   H15   S    
O1    Zn2   S    
C26   C61   S    
O21   Zn2   S    
C52   C53   A    
O25   Zn7   S    
O22   Zn1   S    
C15   C17   S    
C3    O5    A    
C12   O17   A    
C30   C31   A    
C34   H13   S    
O19   Zn5   S    
C38   H16   S    
C1    O12   A    
C63   C64   A    
C2    O11   A    
C25   C55   S    
C3    C7    S    
C7    C25   D    
C43   C44   A    
C4    O13   A    
C50   H26   S    
C14   C22   S    
C55   C60   A    
C57   H32   S    
C29   C34   A    
C4    O6    A    
C60   H35   S    
C5    H7    S    
C44   C45   A    
C17   C19   D    
C6    H8    S    
C58   H33   S    
C36   H14   S    
C18   C20   D    
O12   Zn5   S    
C46   C47   A    
C24   H2    S    
C1    O3    A    
C52   H28   S    
C2    O4    A    
C29   C30   A    
C13   O25   A    
C16   C18   S    
C35   C36   A    
O7    Zn1   S    
C47   C48   A    
C48   H25   S    
O15   Zn7   S    
C56   C57   A    
O14   Zn6   S    
C49   C54   A    
C58   C59   A    
C13   O19   A    
