data_mof_unit_56474.cif
_audit_creation_date              2013-03-05T15:40:33-0500
_audit_creation_method            fapswitch 2.2
_symmetry_space_group_name_H-M    P1
_symmetry_Int_Tables_number       1
_space_group_crystal_system       triclinic
_cell_length_a                    15.049499
_cell_length_b                    8.70738
_cell_length_c                    7.528192
_cell_angle_alpha                 103.342571
_cell_angle_beta                  94.791334
_cell_angle_gamma                 93.302791
_cell_volume                      953.512535611

loop_
_atom_site_label
_atom_site_type_symbol
_atom_site_description
_atom_site_fract_x
_atom_site_fract_y
_atom_site_fract_z
_atom_type_partial_charge
O1    O     O_R   0.506510 0.286130 0.619770 -0.569009
O2    O     O_R   0.493490 0.713870 0.380230 -0.569014
O3    O     O_R   0.489600 0.256770 0.308360 -0.510192
O4    O     O_R   0.510400 0.743230 0.691640 -0.510153
C1    C     C_R   0.495987 0.200185 0.453660 0.838762
C2    C     C_R   0.503981 0.799811 0.546346 0.838684
O5    O     O_R   0.378710 0.514640 0.655720 -0.551779
O6    O     O_R   0.621290 0.485360 0.344280 -0.551702
O7    O     O_R   0.361800 0.485290 0.344300 -0.526486
O8    O     O_R   0.638200 0.514710 0.655700 -0.526429
C3    C     C_R   0.329202 0.498439 0.501190 0.876045
C4    C     C_R   0.670789 0.501555 0.498794 0.876182
Cu1   Cu    Cu3+1 0.510010 0.517380 0.684380 1.236905
Cu2   Cu    Cu3+1 0.489990 0.482620 0.315620 1.236918
C5    C     C_R   0.822594 0.627354 0.610382 0.359757
C6    C     C_R   0.177410 0.372849 0.388689 0.359934
C7    C     C_R   0.767388 0.502193 0.495747 -0.229509
C8    C     C_R   0.232582 0.497722 0.504058 -0.229798
C9    C     C_R   0.803899 0.378792 0.376021 0.286340
C10   C     C_R   0.195947 0.620885 0.623926 0.285914
C11   C     C_R   0.897432 0.367694 0.390915 -0.093631
C12   C     C_R   0.102453 0.632199 0.608112 -0.093619
C13   C     C_R   0.953106 0.500937 0.495820 -0.058070
C14   C     C_R   0.046808 0.499031 0.503010 -0.058129
C15   C     C_R   0.914946 0.636910 0.592400 -0.095175
C16   C     C_R   0.085012 0.363189 0.406295 -0.094965
C17   C     C_R   0.936714 0.225881 0.313822 0.360664
C18   C     C_R   0.063233 0.774264 0.684337 0.361613
C19   C     C_R   0.030184 0.221951 0.329487 0.289353
C20   C     C_R   0.969772 0.778272 0.668512 0.289552
C21   C     C_2   0.481969 0.032764 0.433258 0.073591
C22   C     C_2   0.517953 0.967233 0.566787 0.073622
N1    N     N_2   0.474890 0.456420 0.038520 0.113229
N2    N     N_2   0.525110 0.543580 0.961480 0.113245
Cl1   Cl    Cl    0.775905 0.764687 0.784612 -0.350154
Cl2   Cl    Cl    0.224184 0.236046 0.214058 -0.349921
N3    N     N_R   0.745663 0.269141 0.237483 0.179396
O9    O     O_R   0.685855 0.175006 0.282856 -0.268762
O10   O     O_R   0.750641 0.267397 0.065148 -0.206084
N4    N     N_R   0.253894 0.729853 0.763786 0.179464
O11   O     O_R   0.314552 0.823418 0.720062 -0.268401
O12   O     O_R   0.246518 0.733939 0.935798 -0.205669
Cl3   Cl    Cl    0.871724 0.043846 0.221396 -0.294487
Cl4   Cl    Cl    0.128382 0.956382 0.775102 -0.294742
N5    N     N_R   0.068654 0.071206 0.296014 0.191436
O13   O     O_R   0.047396 0.964512 0.144020 -0.213222
O14   O     O_R   0.126805 0.040825 0.418405 -0.247790
N6    N     N_R   0.931306 0.929022 0.700916 0.191192
O15   O     O_R   0.952747 0.036543 0.852153 -0.213621
O16   O     O_R   0.873047 0.958641 0.578199 -0.248088
N7    N     N_R   0.416884 0.946733 0.287504 0.148751
O17   O     O_R   0.423469 0.957155 0.119399 -0.182877
O18   O     O_R   0.344499 0.877623 0.326505 -0.253739
N8    N     N_R   0.582982 0.053278 0.712637 0.148977
O19   O     O_R   0.576267 0.042981 0.880745 -0.183009
O20   O     O_R   0.655443 0.122239 0.673753 -0.252912
Cl5   Cl    Cl    0.394400 0.318347 0.906615 -0.304310
Cl6   Cl    Cl    0.605612 0.681640 0.093370 -0.304078

loop_
_geom_bond_atom_site_label_1
_geom_bond_atom_site_label_2
_geom_bond_distance
_ccdc_geom_bond_type
C4    C7    1.455575 S    
C1    C21   1.431458 S    
O6    Cu2   1.967909 S    
O7    Cu2   1.959944 S    
C3    C8    1.455717 S    
C5    C7    1.401623 A    
N3    O9    1.301631 A    
C21   N7    1.442602 S    
C17   C19   1.404812 A    
C2    C22   1.431374 S    
C21   C22   1.356009 D    
C10   N4    1.435112 S    
O6    C4    1.302040 A    
C13   C14   1.407876 A    
Cu2   N1    2.037283 S    
C18   C20   1.404761 A    
N1    N2    1.301480 D    
C11   C17   1.421890 A    
Cu1   N2    2.037283 S    
N3    O10   1.302420 A    
C6    C8    1.402009 A    
C12   C18   1.421605 A    
N5    O13   1.299497 A    
C6    Cl2   1.780780 S    
O5    C3    1.302194 A    
N6    O16   1.299768 A    
O7    C3    1.299859 A    
C14   C16   1.417946 A    
O2    C2    1.292394 A    
O3    Cu2   1.954328 S    
O8    C4    1.299897 A    
O1    C1    1.292373 A    
C20   N6    1.442568 S    
N6    O15   1.299523 A    
C9    C11   1.413371 A    
C10   C12   1.413167 A    
C8    C10   1.404624 A    
C13   C15   1.418108 A    
C11   C13   1.423497 A    
C6    C16   1.407390 A    
O2    Cu2   1.955845 S    
N2    Cl6   1.726009 S    
C12   C14   1.423327 A    
C5    C15   1.407207 A    
O1    Cu1   1.955845 S    
N7    O18   1.301721 A    
N7    O17   1.300972 A    
C17   Cl3   1.775328 S    
O5    Cu1   1.967909 S    
C16   C19   1.415201 A    
O4    C2    1.298078 A    
N5    O14   1.299717 A    
C22   N8    1.442564 S    
C15   C20   1.415164 A    
C5    Cl1   1.780706 S    
N4    O12   1.301409 A    
N8    O19   1.300985 A    
N4    O11   1.301426 A    
N1    Cl5   1.725994 S    
C9    N3    1.434826 S    
C7    C9    1.404499 A    
Cu1   Cu2   2.711283 S    
C18   Cl4   1.775302 S    
O4    Cu1   1.954328 S    
C19   N5    1.442522 S    
N8    O20   1.301703 A    
O3    C1    1.298128 A    
O8    Cu1   1.959944 S    
