data_mof_unit_59205.cif
_audit_creation_date              2012-12-10T19:28:31-0500
_audit_creation_method            fapswitch 2.2
_symmetry_space_group_name_H-M    P1
_symmetry_Int_Tables_number       1
_space_group_crystal_system       triclinic
_cell_length_a                    27.730098
_cell_length_b                    10.485401
_cell_length_c                    9.758088
_cell_angle_alpha                 90.430207
_cell_angle_beta                  90.058189
_cell_angle_gamma                 90.038464
_cell_volume                      2837.19125356

loop_
_atom_site_label
_atom_site_type_symbol
_atom_type_description
_atom_site_fract_x
_atom_site_fract_y
_atom_site_fract_z
_atom_type_partial_charge
C1    C     C_R   0.500024 0.257505 0.499405 0.882300
C2    C     C_R   0.499975 0.742495 0.500592 0.882544
C3    C     C_R   0.101874 0.493294 0.497468 -0.099849
C4    C     C_R   0.898133 0.505667 0.498746 -0.099717
C5    C     C_R   0.127014 0.375904 0.482344 -0.163501
C6    C     C_R   0.872963 0.622879 0.484302 -0.163175
C7    C     C_R   0.100045 0.261828 0.461275 0.488556
C8    C     C_R   0.899879 0.736712 0.463204 0.488901
C9    C     C_R   0.127734 0.608568 0.512735 -0.024936
C10   C     C_R   0.872302 0.390565 0.513912 -0.024994
C11   C     C_R   0.353434 0.498313 0.498878 -0.112117
C12   C     C_R   0.646569 0.501362 0.499563 -0.112687
C13   C     C_R   0.973776 0.384024 0.504791 0.075706
C14   C     C_R   0.026246 0.615029 0.504775 0.075851
C15   C     C_R   0.975373 0.617730 0.492386 -0.021343
C16   C     C_R   0.024621 0.381175 0.491735 -0.021330
C17   C     C_R   0.949191 0.502593 0.498499 0.094343
C18   C     C_R   0.050817 0.496379 0.497840 0.094319
C19   C     C_R   0.946665 0.271992 0.525620 -0.163386
C20   C     C_R   0.053402 0.727309 0.525559 -0.163453
C21   C     C_R   0.896854 0.275505 0.529859 -0.053449
C22   C     C_R   0.103218 0.723835 0.529236 -0.053737
C23   C     C_R   0.406124 0.499703 0.499824 0.902515
C24   C     C_R   0.593876 0.500257 0.500034 0.903087
C25   C     C_R   0.049815 0.266568 0.468689 -0.272489
C26   C     C_R   0.950125 0.732076 0.469988 -0.272360
C27   C     C_3   0.539523 0.043038 0.565552 -0.162303
C28   C     C_3   0.460476 0.956962 0.434428 -0.161709
C29   C     C_3   0.539865 0.956999 0.436462 -0.165724
C30   C     C_3   0.460134 0.043001 0.563518 -0.165130
C31   C     C_3   0.499970 0.877620 0.501723 -0.002051
C32   C     C_3   0.500029 0.122380 0.498260 -0.002265
C33   C     C_3   0.499626 0.960950 0.630978 -0.114023
C34   C     C_3   0.500373 0.039051 0.369003 -0.114375
C35   C     C_3   0.469773 0.418429 0.047045 0.365709
C36   C     C_3   0.530225 0.581572 0.952963 0.367382
C37   C     C_3   0.511706 0.388875 0.950250 -0.167297
C38   C     C_3   0.488292 0.611120 0.049756 -0.165881
C39   C     C_3   0.457739 0.528810 0.951383 -0.153705
C40   C     C_3   0.542261 0.471190 0.048623 -0.151964
C41   C     C_R   0.177972 0.379636 0.488493 0.641674
C42   C     C_R   0.822025 0.619212 0.491027 0.642601
C43   C     C_R   0.177897 0.606414 0.511825 0.591898
C44   C     C_R   0.822133 0.392681 0.513306 0.592330
C45   C     C_R   0.278223 0.496062 0.371161 0.433134
C46   C     C_R   0.721824 0.502349 0.372532 0.438501
C47   C     C_R   0.328457 0.497342 0.373650 -0.271809
C48   C     C_R   0.671588 0.501627 0.374564 -0.296650
C49   C     C_R   0.327773 0.497393 0.622559 -0.178996
C50   C     C_R   0.672190 0.502528 0.623483 -0.154012
C51   C     C_R   0.277761 0.495522 0.620955 -0.118334
C52   C     C_R   0.722203 0.504104 0.622346 -0.121490
C53   C     C_R   0.252959 0.494742 0.496209 0.166440
C54   C     C_R   0.747048 0.504156 0.497823 0.165655
H1    H     H_    0.346243 0.497973 0.720413 0.186640
H2    H     H_    0.653689 0.502381 0.721172 0.207284
H3    H     H_    0.571645 0.082999 0.618660 0.160915
H4    H     H_    0.428354 0.916999 0.381318 0.159662
H5    H     H_    0.499303 0.925114 0.737762 0.180177
H6    H     H_    0.500695 0.074890 0.262220 0.179858
H7    H     H_    0.521283 0.295331 0.903726 0.161684
H8    H     H_    0.478712 0.704661 0.096286 0.161215
H9    H     H_    0.422165 0.552346 0.905860 0.160722
H10   H     H_    0.577837 0.447657 0.094148 0.160933
H11   H     H_    0.258074 0.494743 0.716753 0.193873
H12   H     H_    0.741855 0.505226 0.718328 0.195706
H13   H     H_    0.651991 0.501281 0.278598 0.198435
H14   H     H_    0.348084 0.497541 0.277861 0.217922
H15   H     H_    0.877584 0.187080 0.545862 0.240973
H16   H     H_    0.122518 0.812456 0.545277 0.240669
H17   H     H_    0.963059 0.180340 0.543458 0.174144
H18   H     H_    0.037051 0.819181 0.543830 0.173911
H19   H     H_    0.030515 0.179176 0.449549 0.200035
H20   H     H_    0.969376 0.819259 0.450847 0.199955
H21   H     H_    0.572263 0.917019 0.385044 0.167555
H22   H     H_    0.427735 0.082981 0.614934 0.166823
N1    N     N_R   0.201587 0.493574 0.498120 -0.354627
N2    N     N_R   0.798421 0.505362 0.500142 -0.354541
N3    N     N_3   0.499960 0.500030 0.863290 -0.108179
N4    N     N_3   0.500040 0.499970 0.136710 -0.108449
O1    O     O_R   0.500000 0.313960 0.616610 -0.626295
O2    O     O_R   0.500000 0.686040 0.383390 -0.626257
O3    O     O_R   0.500020 0.313950 0.383350 -0.594867
O4    O     O_R   0.499980 0.686050 0.616650 -0.594443
O5    O     O_R   0.428750 0.500030 0.616610 -0.628010
O6    O     O_R   0.571250 0.499970 0.383390 -0.626752
O7    O     O_R   0.428770 0.500020 0.383360 -0.592906
O8    O     O_R   0.571230 0.499980 0.616640 -0.593558
O9    O     O_2   0.204293 0.271880 0.487726 -0.434537
O10   O     O_2   0.795722 0.726970 0.491330 -0.434779
O11   O     O_2   0.796947 0.283010 0.525083 -0.506651
O12   O     O_2   0.203105 0.716201 0.523933 -0.506775
Zn1   Zn    Zn3+2 0.499990 0.500010 0.655740 0.989870
Zn2   Zn    Zn3+2 0.500010 0.499990 0.344260 0.989966
Br1   Br    Br    0.424401 0.296121 0.119855 -0.477150
Br2   Br    Br    0.575548 0.704012 0.880195 -0.483357
S1    S     S_3+6 0.125884 0.111129 0.418384 0.078349
O13   O     O_2   0.152219 0.060043 0.541002 -0.247167
O14   O     O_2   0.087580 0.017031 0.376387 -0.329494
O15   O     O_3   0.164571 0.128099 0.287082 -0.442906
H23   H     H_    0.180266 0.043740 0.276808 0.405448
S2    S     S_3+6 0.873936 0.886868 0.420902 0.078370
O16   O     O_2   0.848017 0.939650 0.544059 -0.246878
O17   O     O_2   0.912124 0.980288 0.378192 -0.329786
O18   O     O_3   0.834830 0.868272 0.290404 -0.442888
H24   H     H_    0.819065 0.952466 0.280661 0.405159
S3    S     S_3+6 0.752239 0.501443 0.213154 0.067856
O19   O     O_2   0.776652 0.627939 0.193618 -0.185701
O20   O     O_2   0.789857 0.398291 0.210963 -0.279069
O21   O     O_3   0.713338 0.477218 0.083026 -0.534152
H25   H     H_    0.703504 0.386672 0.090514 0.353399
S4    S     S_3+6 0.247858 0.495473 0.211536 0.071449
O22   O     O_2   0.223466 0.368792 0.191133 -0.183360
O23   O     O_2   0.210234 0.598561 0.209565 -0.280646
O24   O     O_3   0.286787 0.518494 0.081879 -0.531219
H26   H     H_    0.296497 0.609199 0.089663 0.353233

loop_
_geom_bond_atom_site_label_1
_geom_bond_atom_site_label_2
_ccdc_geom_bond_type
C41   O9    S    
O2    Zn2   S    
C27   C29   S    
C8    C26   A    
C14   C18   A    
C19   H17   S    
C12   C48   A    
S4    O23   D    
S1    O13   D    
C45   S4    S    
C27   C33   S    
C37   N3    S    
C3    C18   A    
C11   C49   A    
C35   C37   S    
N3    Zn1   S    
C37   C40   S    
C41   N1    A    
C38   C39   S    
C9    C22   A    
C1    O1    A    
O24   H26   S    
O7    Zn2   S    
C35   N4    S    
O1    Zn1   S    
S2    O18   S    
C51   H11   S    
C11   C23   S    
O21   H25   S    
O6    Zn2   S    
C11   C47   A    
C49   C51   A    
C50   C52   A    
S3    O19   D    
C40   N4    S    
C8    S2    S    
C28   C34   S    
C33   H5    S    
C23   O7    A    
C34   H6    S    
S3    O20   D    
O5    Zn1   S    
S4    O22   D    
S1    O14   D    
C52   C54   A    
C45   C47   A    
C10   C21   A    
C46   C48   A    
C9    C43   A    
C13   C19   A    
C10   C44   A    
C14   C20   A    
C36   C40   S    
C4    C6    A    
C27   H3    S    
C5    C7    A    
C15   C26   A    
C6    C8    A    
C49   H1    S    
O3    Zn2   S    
C29   C34   S    
C1    C32   S    
C50   H2    S    
C21   H15   S    
C2    C31   S    
C51   C53   A    
C39   N3    S    
C53   N1    S    
C3    C9    A    
C30   H22   S    
C36   Br2   S    
C12   C50   A    
C46   S3    S    
C46   C54   A    
C31   C33   S    
C2    O4    A    
S2    O17   D    
C24   O8    A    
C44   O11   S    
C4    C17   A    
C20   C22   A    
C42   N2    A    
C28   H4    S    
C23   O5    A    
S3    O21   S    
C2    O2    A    
C1    O3    A    
C4    C10   A    
C47   H14   S    
S1    O15   S    
C52   H12   S    
C16   C25   A    
C15   C17   A    
C5    C41   A    
O8    Zn1   S    
C7    S1    S    
C30   C33   S    
C19   C21   A    
C27   C32   S    
C28   C31   S    
C3    C5    A    
C36   N3    S    
C40   H10   S    
C37   H7    S    
C29   H21   S    
C35   Br1   S    
C43   N1    A    
C39   H9    S    
O18   H24   S    
C12   C24   S    
C43   O12   S    
C7    C25   A    
C13   C17   A    
C44   N2    A    
C28   C30   S    
C29   C31   S    
C30   C32   S    
C38   N4    S    
C35   C39   S    
C36   C38   S    
O15   H23   S    
C26   H20   S    
C54   N2    S    
C25   H19   S    
O4    Zn1   S    
C48   H13   S    
S2    O16   D    
C45   C53   A    
C16   C18   A    
C6    C42   A    
C13   C16   A    
C14   C15   A    
C20   H18   S    
N4    Zn2   S    
C42   O10   S    
C24   O6    A    
C22   H16   S    
S4    O24   S    
C32   C34   S    
C38   H8    S    
