data_mof_unit_67475.cif
_audit_creation_date              2012-12-10T16:46:04-0500
_audit_creation_method            fapswitch 2.2
_symmetry_space_group_name_H-M    P1
_symmetry_Int_Tables_number       1
_space_group_crystal_system       triclinic
_cell_length_a                    10.911617
_cell_length_b                    8.812328
_cell_length_c                    7.688369
_cell_angle_alpha                 103.553534
_cell_angle_beta                  94.176031
_cell_angle_gamma                 94.301287
_cell_volume                      713.553382784

loop_
_atom_site_label
_atom_site_type_symbol
_atom_type_description
_atom_site_fract_x
_atom_site_fract_y
_atom_site_fract_z
_atom_type_partial_charge
C1    C     C_R   0.497821 0.200581 0.453132 0.901079
C2    C     C_3   0.875163 0.488197 0.491022 -0.180014
C3    C     C_3   0.937265 0.654548 0.498028 -0.506838
C4    C     C_3   0.906897 0.371026 0.311028 0.769081
C5    C     C_2   0.495366 0.031665 0.428017 -0.293331
C6    C     C_2   0.520664 0.968190 0.567785 -0.346821
C7    C     C_R   0.260033 0.493750 0.499436 0.963410
C8    C     C_R   0.509729 0.799500 0.546061 0.925126
C9    C     C_R   0.738315 0.495232 0.497062 0.816402
C10   C     C_3   0.071440 0.407130 0.639168 -0.309482
C11   C     C_3   0.930419 0.423252 0.650596 0.252506
C12   C     C_3   0.081891 0.664180 0.533504 0.430009
C13   C     C_3   0.052423 0.389926 0.310323 0.185116
C14   C     C_3   0.119243 0.490145 0.494543 -0.236930
Cu1   Cu    Cu3+1 0.514070 0.517380 0.684380 0.997611
Cu2   Cu    Cu3+1 0.485930 0.482620 0.315620 0.991508
H1    H     H_    0.121049 0.469045 0.766571 0.203834
H2    H     H_    0.909334 0.679514 0.367102 0.223692
H3    H     H_    0.469083 0.958754 0.293604 0.191874
H4    H     H_    0.550929 0.040612 0.699732 0.194638
H5    H     H_    0.572974 0.647429 0.046699 0.220447
H6    H     H_    0.881854 0.304505 0.621903 0.204093
H7    H     H_    0.895689 0.747849 0.589458 0.160495
H8    H     H_    0.084609 0.272770 0.293780 0.105770
N1    N     N_2   0.464720 0.456420 0.038520 -0.216206
N2    N     N_2   0.535280 0.543580 0.961480 -0.273483
O1    O     O_R   0.509140 0.286130 0.619770 -0.577927
O2    O     O_R   0.485380 0.256770 0.308360 -0.577187
O3    O     O_R   0.329570 0.514650 0.655700 -0.528499
O4    O     O_R   0.305810 0.485300 0.344290 -0.574625
O5    O     O_R   0.514620 0.743230 0.691640 -0.587445
O6    O     O_R   0.490860 0.713870 0.380230 -0.573839
O7    O     O_R   0.694190 0.514700 0.655710 -0.574225
O8    O     O_R   0.670430 0.485350 0.344300 -0.581317
O9    O     O_3   0.853188 0.419869 0.159693 -0.566868
C15   C     C_3   0.771689 0.306187 0.035475 -0.029804
H9    H     H_    0.709037 0.237522 0.101210 0.213384
H10   H     H_    0.822995 0.229141 0.936817 0.142533
H11   H     H_    0.712669 0.367502 0.957067 0.199499
C16   C     C_2   0.145195 0.756866 0.413278 0.872402
O10   O     O_2   0.255555 0.796554 0.442502 -0.628127
O11   O     O_R   0.079336 0.800496 0.273570 -0.826327
H12   H     H_    0.133987 0.860302 0.206251 0.310004
C17   C     C_2   0.438694 0.298131 0.943592 1.059947
O12   O     O_2   0.503035 0.199550 0.976503 -0.675762
O13   O     O_R   0.336377 0.251668 0.820109 -0.780591
H13   H     H_    0.329931 0.134720 0.766889 0.325558
C18   C     C_2   0.099378 0.234814 0.598486 0.767548
O14   O     O_2   0.025685 0.133852 0.626070 -0.657105
O15   O     O_R   0.204430 0.189978 0.513237 -0.781349
H14   H     H_    0.205826 0.072910 0.472612 0.338790
O16   O     O_3   0.893585 0.479715 0.826190 -0.575761
C19   C     C_3   0.931762 0.635580 0.915156 -0.009893
H15   H     H_    0.892578 0.719780 0.847778 0.107970
H16   H     H_    0.032289 0.653256 0.949942 0.234135
H17   H     H_    0.890820 0.660165 0.045051 0.197959
O17   O     O_3   0.124867 0.730467 0.717869 -0.617881
C20   C     C_3   0.114182 0.891765 0.782796 -0.307641
H18   H     H_    0.017305 0.920031 0.781059 0.183030
H19   H     H_    0.170353 0.961695 0.712132 0.215247
H20   H     H_    0.152887 0.926851 0.925166 0.164056
O18   O     O_3   0.085313 0.459520 0.170863 -0.551847
C21   C     C_3   0.145236 0.356590 0.043934 -0.190936
H21   H     H_    0.075338 0.285895 0.940523 0.193510
H22   H     H_    0.202494 0.275150 0.097107 0.138121
H23   H     H_    0.212161 0.430768 0.992422 0.216108
O19   O     O_3   0.858090 0.215784 0.317939 -0.651992
C22   C     C_3   0.902499 0.087431 0.199101 -0.413485
H24   H     H_    0.965459 0.030828 0.277346 0.252198
H25   H     H_    0.951047 0.117745 0.088375 0.143096
H26   H     H_    0.823472 0.999780 0.138310 0.191748

loop_
_geom_bond_atom_site_label_1
_geom_bond_atom_site_label_2
_ccdc_geom_bond_type
C12   C16   S    
C1    O2    A    
C2    C4    S    
H5    N2    S    
C21   H22   S    
Cu1   O5    S    
O18   C21   S    
C7    O3    A    
C4    O19   S    
C6    H4    S    
C11   H6    S    
C3    H7    S    
O9    C15   S    
C11   O16   S    
Cu2   O8    S    
C20   H20   S    
C16   O11   S    
C2    C3    S    
C20   H18   S    
C21   H23   S    
C7    O4    A    
C13   C14   S    
C17   O12   D    
C15   H10   S    
C9    O7    A    
C2    C9    S    
O17   C20   S    
C9    O8    A    
C22   H26   S    
C1    C5    S    
C2    C11   S    
N1    C17   S    
C18   O15   S    
C18   O14   D    
C12   C14   S    
C5    H3    S    
Cu1   O3    S    
C19   H16   S    
C10   C18   S    
C5    C6    D    
C22   H24   S    
C4    O9    S    
Cu2   O6    S    
C10   C11   S    
C12   O17   S    
C10   H1    S    
C20   H19   S    
Cu1   Cu2   S    
C8    O6    A    
Cu2   N1    S    
O16   C19   S    
C13   H8    S    
C3    H2    S    
C22   H25   S    
O11   H12   S    
C19   H17   S    
C4    C13   S    
C1    O1    A    
C16   O10   D    
Cu2   O2    S    
C15   H9    S    
Cu1   N2    S    
C6    C8    S    
C3    C12   S    
C17   O13   S    
O15   H14   S    
N1    N2    D    
O13   H13   S    
C8    O5    A    
Cu2   O4    S    
Cu1   O7    S    
C15   H11   S    
C7    C14   S    
C13   O18   S    
O19   C22   S    
C19   H15   S    
C10   C14   S    
C21   H21   S    
Cu1   O1    S    
