data_mof_unit_49816.cif
_audit_creation_date              2012-12-11T16:29:32-0500
_audit_creation_method            fapswitch 2.2
_symmetry_space_group_name_H-M    P1
_symmetry_Int_Tables_number       1
_space_group_crystal_system       triclinic
_cell_length_a                    6.955231
_cell_length_b                    17.269101
_cell_length_c                    18.813743
_cell_angle_alpha                 106.335
_cell_angle_beta                  89.811861
_cell_angle_gamma                 90.564137
_cell_volume                      2168.40727446

loop_
_atom_site_label
_atom_site_type_symbol
_atom_type_description
_atom_site_fract_x
_atom_site_fract_y
_atom_site_fract_z
_atom_type_partial_charge
O1    O     O_R   0.494360 0.415680 0.413760 -0.530295
O2    O     O_R   0.818810 0.432910 0.557230 -0.530370
O3    O     O_R   0.994290 0.584320 0.586240 -0.531745
C1    C     C_R   0.649914 0.416048 0.580687 0.704226
O4    O     O_R   0.823740 0.406440 0.412520 -0.533282
O5    O     O_R   0.999250 0.557660 0.440500 -0.519343
C2    C     C_R   0.654758 0.384269 0.384457 0.790721
O6    O     O_R   0.489400 0.442340 0.559500 -0.515214
O7    O     O_3   0.662500 0.549650 0.509350 -0.358987
V1    V     V_3+5 0.935340 0.490790 0.498270 1.447513
O8    O     O_R   0.329270 0.567090 0.442770 -0.525074
C3    C     C_R   0.161149 0.584137 0.419467 0.705451
O9    O     O_R   0.324340 0.593560 0.587480 -0.533540
C4    C     C_R   0.155822 0.616649 0.614687 0.783245
V2    V     V_3+5 0.435970 0.509210 0.501730 1.454423
O10   O     O_3   0.158940 0.450350 0.490650 -0.356520
C5    C     C_R   0.103095 0.582359 0.758719 0.166082
C6    C     C_R   0.053880 0.566197 0.825520 0.192053
C7    C     C_R   0.027197 0.629533 0.888811 -0.233679
C8    C     C_R   0.050750 0.709540 0.888046 0.160026
C9    C     C_R   0.093835 0.729317 0.820845 0.028015
C10   C     C_R   0.114603 0.664065 0.754182 -0.023293
C11   C     C_R   0.119406 0.811281 0.818319 -0.160047
C12   C     C_R   0.158669 0.827300 0.749724 0.050298
C13   C     C_R   0.171765 0.762950 0.683533 0.052471
C14   C     C_R   0.148498 0.681991 0.685439 -0.156525
C15   C     C_R   0.182374 0.907596 0.745445 -0.143986
C16   C     C_R   0.218623 0.923691 0.678144 -0.113532
C17   C     C_R   0.230976 0.860772 0.613501 -0.110423
C18   C     C_R   0.207477 0.781360 0.615778 -0.138181
H1    H     H_    0.172226 0.959115 0.793807 0.095989
H2    H     H_    0.236409 0.985401 0.676154 0.119423
C19   C     C_1   0.111517 0.866281 0.134692 -0.241715
C20   C     C_1   0.118977 0.823608 0.178162 -0.010742
C21   C     C_1   0.128369 0.772972 0.229689 -0.005605
C22   C     C_1   0.136406 0.730237 0.273108 -0.007690
C23   C     C_1   0.145819 0.679475 0.324531 -0.008934
C24   C     C_1   0.153319 0.636500 0.367744 -0.223542
C25   C     C_1   0.641504 0.364196 0.632786 -0.212335
C26   C     C_1   0.637399 0.321674 0.676410 0.009123
C27   C     C_1   0.634010 0.271472 0.728329 0.009535
C28   C     C_1   0.631410 0.229133 0.772134 0.001237
C29   C     C_1   0.627903 0.178827 0.823978 -0.002849
C30   C     C_1   0.623671 0.136158 0.867490 -0.212866
C31   C     C_R   0.657639 0.410716 0.234927 0.180077
C32   C     C_R   0.657998 0.421389 0.163848 -0.157916
C33   C     C_R   0.646495 0.355872 0.101540 -0.145921
C34   C     C_R   0.634390 0.278282 0.108819 -0.137573
C35   C     C_R   0.633292 0.263933 0.179340 0.006097
C36   C     C_R   0.645012 0.331110 0.244254 0.076161
C37   C     C_R   0.620907 0.183603 0.184859 -0.162437
C38   C     C_R   0.619813 0.168936 0.255893 0.071768
C39   C     C_R   0.631257 0.236074 0.320775 -0.044466
C40   C     C_R   0.643853 0.316420 0.315244 -0.160566
C41   C     C_R   0.607315 0.089401 0.265224 0.148780
C42   C     C_R   0.606600 0.078591 0.336261 -0.197486
C43   C     C_R   0.617984 0.144244 0.399217 0.235630
C44   C     C_R   0.629622 0.221842 0.391333 -0.143913
H3    H     H_    0.667512 0.481543 0.157022 0.119967
H4    H     H_    0.647058 0.365243 0.047001 0.126433
O11   O     O_R   0.775690 0.057750 0.940570 -0.526486
O12   O     O_R   0.441200 0.093570 0.087490 -0.533691
O13   O     O_R   0.265840 0.942320 0.059480 -0.517146
C45   C     C_R   0.610138 0.115799 0.115582 0.792836
O14   O     O_R   0.446270 0.067110 0.942790 -0.531242
O15   O     O_R   0.270950 0.915660 0.913750 -0.537100
C46   C     C_R   0.615185 0.084103 0.919433 0.699638
O16   O     O_R   0.770580 0.084400 0.086300 -0.532261
O17   O     O_3   0.602640 0.950400 0.990690 -0.354405
V3    V     V_3+5 0.329740 0.009200 0.001730 1.437226
O18   O     O_R   0.940900 0.906360 0.912450 -0.526588
C47   C     C_R   0.109817 0.881440 0.886319 0.784942
O19   O     O_R   0.935830 0.932820 0.057160 -0.516186
C48   C     C_R   0.103736 0.917811 0.082192 0.758782
V4    V     V_3+5 0.829130 0.990680 0.998180 1.445349
O20   O     O_3   0.106100 0.049590 0.009310 -0.367790
H5    H     H_    0.258509 0.873514 0.561224 0.115073
N1    N     N_3   0.670543 0.481781 0.296482 -0.672937
H6    H     H_    0.554437 0.518943 0.293956 0.223296
H7    H     H_    0.797287 0.512793 0.291208 0.224148
H8    H     H_    0.625903 0.229648 0.058042 0.090491
N2    N     N_3   0.594813 0.018374 0.203605 -0.668080
H9    H     H_    0.468088 0.987281 0.208734 0.225516
H10   H     H_    0.710985 0.981254 0.206161 0.223871
H11   H     H_    0.596930 0.018002 0.342088 0.119220
H12   H     H_    0.637342 0.270923 0.441835 0.103971
N3    N     N_3   0.150363 0.514893 0.696874 -0.650589
H13   H     H_    0.031581 0.475932 0.684238 0.235256
H14   H     H_    0.265041 0.483935 0.711720 0.245548
N4    N     N_3   0.036438 0.484127 0.828618 -0.668863
H15   H     H_    0.019466 0.482048 0.883305 0.229180
H16   H     H_    0.910184 0.459990 0.800714 0.227020
H17   H     H_    0.991880 0.616803 0.940582 0.128566
N5    N     N_3   0.032395 0.769610 0.957369 -0.669930
H18   H     H_    0.133854 0.757312 0.993527 0.214780
H19   H     H_    0.895376 0.764276 0.978703 0.230650
H20   H     H_    0.217808 0.734775 0.563682 0.083660
N6    N     N_3   0.615711 0.133408 0.472133 -0.662708
H21   H     H_    0.602323 0.072187 0.469073 0.224672
H22   H     H_    0.749239 0.152641 0.496450 0.228156

loop_
_geom_bond_atom_site_label_1
_geom_bond_atom_site_label_2
_ccdc_geom_bond_type
C41   C42   A    
V4    O20   S    
C32   H3    S    
C27   C28   T    
C21   C22   T    
C12   C15   A    
C1    O6    A    
N4    H15   S    
C39   C40   A    
O11   V4    S    
O16   V4    S    
C18   H20   S    
C17   C18   A    
C45   O16   A    
C16   C17   A    
C6    C7    A    
O5    C3    A    
N1    H7    S    
O14   V3    S    
N6    H21   S    
C34   H8    S    
O12   V3    S    
C20   C21   S    
O19   C48   A    
O12   C45   A    
C33   H4    S    
O8    V2    S    
O15   C47   A    
C7    C8    A    
O14   C46   A    
C11   C12   A    
O13   V3    S    
C31   N1    S    
O1    V2    S    
O7    V1    S    
C7    H17   S    
C38   C41   A    
C5    N3    S    
O9    C4    A    
O19   V4    S    
O17   V3    S    
C44   H12   S    
C19   C20   T    
C9    C11   A    
C15   H1    S    
C37   C38   A    
C6    N4    S    
C16   H2    S    
C12   C13   A    
C25   C26   T    
O4    C2    A    
N1    H6    S    
C35   C37   A    
C13   C14   A    
C31   C32   A    
O2    C1    A    
C29   C30   T    
C23   C24   T    
O11   C46   A    
N4    H16   S    
C33   C34   A    
C1    C25   S    
O8    C3    A    
C5    C6    A    
C36   C40   A    
C4    C14   S    
C41   N2    S    
N5    H19   S    
O3    C4    A    
C26   C27   S    
N2    H9    S    
O6    V2    S    
N2    H10   S    
N3    H14   S    
V3    O20   S    
C28   C29   S    
O2    V1    S    
C38   C39   A    
C13   C18   A    
C42   C43   A    
C8    N5    S    
C32   C33   A    
C34   C35   A    
O1    C2    A    
C11   C47   S    
C37   C45   S    
O5    V1    S    
C42   H11   S    
C39   C44   A    
O13   C48   A    
N6    H22   S    
C5    C10   A    
O9    V2    S    
O7    V2    S    
O18   C47   A    
O3    V1    S    
V1    O10   S    
O18   V4    S    
C43   C44   A    
O15   V3    S    
C31   C36   A    
C43   N6    S    
O17   V4    S    
C3    C24   S    
N5    H18   S    
C19   C48   S    
O4    V1    S    
C17   H5    S    
C8    C9    A    
N3    H13   S    
C22   C23   S    
C35   C36   A    
C10   C14   A    
C15   C16   A    
C30   C46   S    
C2    C40   S    
C9    C10   A    
V2    O10   S    
