data_mof_unit_44003.cif
_audit_creation_date              2013-03-05T15:52:19-0500
_audit_creation_method            fapswitch 2.2
_symmetry_space_group_name_H-M    P1
_symmetry_Int_Tables_number       1
_space_group_crystal_system       triclinic
_cell_length_a                    14.749016
_cell_length_b                    15.237199
_cell_length_c                    9.909072
_cell_angle_alpha                 92.45105
_cell_angle_beta                  92.836637
_cell_angle_gamma                 90.009497
_cell_volume                      2222.13304521

loop_
_atom_site_label
_atom_site_type_symbol
_atom_site_description
_atom_site_fract_x
_atom_site_fract_y
_atom_site_fract_z
_atom_type_partial_charge
O1    O     O_R   0.408390 0.908380 0.614690 -0.591171
O2    O     O_R   0.408390 0.091620 0.614690 -0.660399
O3    O     O_R   0.908390 0.408380 0.614690 -0.587073
O4    O     O_R   0.908390 0.591620 0.614690 -0.662838
O5    O     O_R   0.408370 0.908380 0.385360 -0.672950
O6    O     O_R   0.408370 0.091620 0.385360 -0.625317
O7    O     O_R   0.908370 0.408380 0.385360 -0.671672
O8    O     O_R   0.908370 0.591620 0.385360 -0.629859
C1    C     C_R   0.382707 0.877398 0.494536 0.852631
C2    C     C_R   0.383530 0.124214 0.501058 0.837486
C3    C     C_R   0.882717 0.377366 0.494515 0.856651
C4    C     C_R   0.883097 0.623909 0.501049 0.838064
Zn1   Zn    Zn3+2 0.500010 0.000000 0.653130 1.023696
Zn2   Zn    Zn3+2 0.000010 0.500000 0.653130 1.020460
Zn3   Zn    Zn3+2 0.499980 0.000000 0.346870 1.017352
Zn4   Zn    Zn3+2 0.999980 0.500000 0.346870 1.009485
O9    O     O_R   0.591620 0.091610 0.614640 -0.579943
O10   O     O_R   0.591620 0.908390 0.614640 -0.581907
O11   O     O_R   0.091620 0.591610 0.614640 -0.579328
O12   O     O_R   0.091620 0.408390 0.614640 -0.579106
O13   O     O_R   0.591610 0.091610 0.385310 -0.571483
O14   O     O_R   0.591610 0.908390 0.385310 -0.600112
O15   O     O_R   0.091610 0.591610 0.385310 -0.576495
O16   O     O_R   0.091610 0.408390 0.385310 -0.597302
C5    C     C_R   0.623754 0.116356 0.504534 0.908712
C6    C     C_R   0.607781 0.870600 0.499557 0.947403
C7    C     C_R   0.123767 0.616357 0.504507 0.910535
C8    C     C_R   0.108134 0.370804 0.499486 0.948138
H1    H     H_    0.289460 0.178541 0.285193 0.205736
H2    H     H_    0.212131 0.899773 0.541582 0.156159
H3    H     H_    0.779810 0.667049 0.288427 0.202609
H4    H     H_    0.713173 0.399238 0.547482 0.155614
C9    C     C_R   0.336657 0.234713 0.752750 -0.103301
C10   C     C_R   0.416978 0.696079 0.367006 -0.154751
C11   C     C_R   0.840877 0.744238 0.748672 -0.111906
C12   C     C_R   0.916092 0.196645 0.363348 -0.153162
C13   C     C_R   0.293004 0.249076 0.875335 0.269983
C14   C     C_R   0.448113 0.608387 0.368896 0.326584
C15   C     C_R   0.799753 0.767629 0.871120 0.276381
C16   C     C_R   0.946980 0.108865 0.363362 0.327086
C17   C     C_R   0.705080 0.771676 0.872106 -0.272961
C18   C     C_R   0.901260 0.048062 0.436466 -0.155723
C19   C     C_R   0.198767 0.259031 0.871701 -0.281344
C20   C     C_R   0.402075 0.548092 0.442675 -0.161565
H5    H     H_    0.672718 0.781896 0.967224 0.229565
H6    H     H_    0.928887 0.982572 0.444955 0.216382
H7    H     H_    0.164302 0.263750 0.965755 0.222008
H8    H     H_    0.429726 0.482735 0.452791 0.215481
C21   C     C_R   0.652147 0.767683 0.750960 0.271501
C22   C     C_R   0.820237 0.070017 0.497457 0.280733
C23   C     C_R   0.148753 0.263617 0.748422 0.280907
C24   C     C_R   0.320552 0.570340 0.502089 0.280440
C25   C     C_R   0.696044 0.759983 0.626732 0.026493
C26   C     C_R   0.784386 0.155922 0.485352 0.001619
C27   C     C_R   0.194987 0.258498 0.625759 0.024159
C28   C     C_R   0.284628 0.656050 0.487915 -0.000173
C29   C     C_R   0.284205 0.227526 0.627855 -0.008727
C30   C     C_R   0.340574 0.721789 0.442459 0.024285
C31   C     C_R   0.785666 0.730247 0.626949 0.001555
C32   C     C_R   0.840019 0.222012 0.440011 0.026045
C33   C     C_R   0.315594 0.191928 0.503394 -0.099405
C34   C     C_R   0.316820 0.809644 0.478935 -0.029663
C35   C     C_R   0.813962 0.690468 0.503212 -0.100983
C36   C     C_R   0.816726 0.309664 0.478963 -0.029700
C37   C     C_R   0.267817 0.206254 0.380762 -0.083796
C38   C     C_R   0.230713 0.831934 0.519734 -0.161659
C39   C     C_R   0.762098 0.699869 0.382397 -0.072631
C40   C     C_R   0.731312 0.331589 0.523183 -0.160144
H9    H     H_    0.656137 0.770329 0.284224 0.204407
H10   H     H_    0.598744 0.284305 0.550728 0.157897
H11   H     H_    0.162479 0.277068 0.282767 0.204917
H12   H     H_    0.097615 0.784843 0.543115 0.158874
C41   C     C_R   0.688025 0.754038 0.380604 -0.090921
C42   C     C_R   0.668121 0.266621 0.531719 -0.148004
C43   C     C_R   0.192503 0.258595 0.379327 -0.097299
C44   C     C_R   0.167419 0.766987 0.527621 -0.146036
C45   C     C_R   0.658286 0.789205 0.502394 -0.087359
C46   C     C_R   0.694742 0.179433 0.515862 -0.037900
C47   C     C_R   0.159529 0.290054 0.501402 -0.083490
C48   C     C_R   0.194518 0.679692 0.515658 -0.038656
C49   C     C_R   0.334807 0.998690 0.129496 -0.139988
C50   C     C_R   0.834813 0.497452 0.129399 -0.144818
H13   H     H_    0.330363 0.995839 0.236163 0.209078
H14   H     H_    0.830391 0.495109 0.236124 0.210705
C51   C     C_R   0.252697 0.001812 0.054703 -0.157478
C52   C     C_R   0.752680 0.500166 0.054580 -0.157237
H15   H     H_    0.189685 0.001815 0.106396 0.228378
H16   H     H_    0.689668 0.499918 0.106274 0.224803
C53   C     C_R   0.251793 0.004849 0.914930 -0.030382
C54   C     C_R   0.751768 0.503527 0.914835 -0.023488
C55   C     C_R   0.333435 0.003409 0.849580 -0.169484
C56   C     C_R   0.833423 0.502656 0.849532 -0.173304
H17   H     H_    0.327580 0.004799 0.742334 0.192387
H18   H     H_    0.827586 0.504642 0.742343 0.194383
C57   C     C_R   0.418099 0.000741 0.922342 0.209569
C58   C     C_R   0.918092 0.500110 0.922302 0.181872
C59   C     C_R   0.418379 0.999545 0.066844 0.143081
C60   C     C_R   0.918381 0.498733 0.066783 0.109770
N1    N     N_R   0.498810 0.000000 0.142780 -0.173230
N2    N     N_R   0.998810 0.500000 0.142780 -0.175357
C61   C     C_R   0.578516 0.000665 0.076678 0.356904
C62   C     C_R   0.078451 0.503758 0.076765 0.348060
H19   H     H_    0.641577 0.999640 0.883824 0.213361
H20   H     H_    0.141430 0.504224 0.884060 0.219123
C63   C     C_R   0.578028 0.000041 0.933586 -0.103637
C64   C     C_R   0.077952 0.502485 0.933689 -0.111011
N3    N     N_R   0.498740 0.000000 0.857170 -0.132417
N4    N     N_R   0.998740 0.500000 0.857170 -0.132652
C65   C     C_1   0.166653 0.009401 0.837622 0.228464
N5    N     N_1   0.098371 0.013160 0.775379 -0.103083
C66   C     C_1   0.666626 0.508090 0.837526 0.222337
N6    N     N_1   0.598350 0.511859 0.775268 -0.110882
C67   C     C_1   0.434285 0.244635 0.755193 0.360016
N7    N     N_1   0.512323 0.252927 0.759879 -0.167300
C68   C     C_1   0.453012 0.752619 0.269307 0.312660
N8    N     N_1   0.481387 0.796281 0.188340 -0.117883
C69   C     C_1   0.938818 0.745209 0.748546 0.334079
N9    N     N_1   0.017270 0.746419 0.752066 -0.162717
C70   C     C_1   0.952997 0.253843 0.267309 0.313289
N10   N     N_1   0.982282 0.297887 0.187579 -0.117915
N11   N     N_R   0.343085 0.253178 0.004030 0.214316
O17   O     O_R   0.415482 0.205830 0.024414 -0.410213
O18   O     O_R   0.313613 0.301095 0.104292 -0.343829
N12   N     N_R   0.528221 0.580048 0.301661 0.203494
O19   O     O_R   0.543391 0.604917 0.180812 -0.389257
O20   O     O_R   0.581365 0.521404 0.355236 -0.427135
N13   N     N_R   0.852671 0.786643 0.995102 0.230268
O21   O     O_R   0.926935 0.832788 0.995337 -0.320846
O22   O     O_R   0.819484 0.770269 0.110422 -0.388450
N14   N     N_R   0.026799 0.080999 0.295089 0.206895
O23   O     O_R   0.040462 0.105182 0.173356 -0.383110
O24   O     O_R   0.081148 0.023351 0.348779 -0.424179
N15   N     N_R   0.554694 0.765550 0.754943 0.234487
O25   O     O_R   0.514733 0.792551 0.863264 -0.372210
O26   O     O_R   0.506350 0.726226 0.657032 -0.424498
N16   N     N_R   0.784703 0.009900 0.589248 0.198750
O27   O     O_R   0.759383 0.039721 0.706405 -0.358685
O28   O     O_R   0.802883 0.926700 0.574419 -0.421816
N17   N     N_R   0.051207 0.264510 0.748369 0.233400
O29   O     O_R   0.010124 0.292621 0.855093 -0.364837
O30   O     O_R   0.003619 0.225737 0.649214 -0.430785
N18   N     N_R   0.284588 0.511035 0.594710 0.199380
O31   O     O_R   0.258941 0.541950 0.711061 -0.360935
O32   O     O_R   0.302724 0.427710 0.581811 -0.424506
N19   N     N_R   0.663680 0.002965 0.151467 0.226679
O33   O     O_R   0.709852 0.075881 0.161226 -0.363840
O34   O     O_R   0.705468 0.929596 0.174305 -0.349614
N20   N     N_R   0.163362 0.512613 0.151530 0.227722
O35   O     O_R   0.205303 0.442726 0.191567 -0.337274
O36   O     O_R   0.208802 0.585556 0.147631 -0.367252

loop_
_geom_bond_atom_site_label_1
_geom_bond_atom_site_label_2
_geom_bond_distance
_ccdc_geom_bond_type
C30   C34   1.420121 A    
C20   H8    1.082922 S    
C11   C15   1.415286 A    
C66   N6    1.157375 T    
O10   C6    1.288250 A    
Zn1   N3    2.022861 S    
H20   C64   1.079716 S    
N19   O33   1.300589 A    
C25   C31   1.397338 A    
C15   C17   1.398200 A    
C26   C32   1.401475 A    
O7    C3    1.273005 A    
C63   N3    1.361330 A    
C61   N19   1.426120 S    
C22   C26   1.419399 A    
C43   C47   1.392214 A    
C49   C59   1.407603 A    
Zn1   O10   1.981330 S    
C36   C40   1.390270 A    
N20   O36   1.300756 A    
C52   H16   1.083245 S    
C40   C42   1.367635 A    
C68   N8    1.157693 T    
C53   C65   1.441480 S    
C56   C58   1.412160 A    
C11   C31   1.429721 A    
C18   H6    1.082965 S    
C8    C47   1.445601 S    
C12   C70   1.443459 S    
C50   H14   1.064893 S    
C16   N14   1.441643 S    
C59   N1    1.372839 A    
O6    Zn3   1.981436 S    
Zn3   O14   1.978673 S    
C58   C60   1.432518 A    
H10   C42   1.081638 S    
C44   C48   1.390847 A    
H9    C41   1.082020 S    
C39   C41   1.369215 A    
O15   C7    1.291746 A    
O4    C4    1.286521 A    
O11   C7    1.282304 A    
H12   C44   1.081536 S    
H4    C40   1.085027 S    
C62   N20   1.426541 S    
C49   C51   1.390079 A    
C20   C24   1.400142 A    
Zn2   N4    2.022861 S    
C58   N4    1.381051 A    
O8    Zn4   1.981436 S    
C50   C60   1.407563 A    
C54   C66   1.441521 S    
C17   C21   1.398301 A    
N19   O34   1.299590 A    
C14   C20   1.394985 A    
C51   H15   1.083149 S    
C61   C63   1.417197 A    
C35   C39   1.401052 A    
C6    C45   1.447432 S    
C15   N13   1.441185 S    
C34   C38   1.389566 A    
C1    C34   1.416049 S    
Zn2   O12   1.981330 S    
C12   C16   1.413043 A    
O1    C1    1.300436 A    
N20   O35   1.298493 A    
N16   O28   1.299518 A    
C7    C48   1.418290 S    
C52   C54   1.387272 A    
C4    C35   1.438540 S    
C51   C53   1.387177 A    
Zn4   N2    2.021562 S    
O12   C8    1.288796 A    
C10   C68   1.443601 S    
C50   C52   1.390166 A    
C24   N18   1.434997 S    
C5    C46   1.418239 S    
C13   C19   1.397046 A    
N14   O24   1.301974 A    
N13   O22   1.298981 A    
O5    C1    1.273043 A    
C55   H17   1.063060 S    
C27   C47   1.417786 A    
C54   C56   1.394891 A    
O8    C4    1.299720 A    
O5    Zn3   2.003977 S    
C38   C44   1.367634 A    
N2    C62   1.374837 A    
H19   C63   1.080365 S    
C17   H5    1.082795 S    
C70   N10   1.157652 T    
C10   C30   1.428572 A    
O2    Zn1   1.978682 S    
N11   O17   1.301095 A    
H2    C38   1.085022 S    
O3    Zn2   1.955243 S    
C57   N3    1.381012 A    
C18   C22   1.399828 A    
C13   N11   1.440723 S    
O7    Zn4   2.003977 S    
N1    C61   1.374016 A    
C3    C36   1.416500 S    
Zn4   O15   1.955234 S    
C60   N2    1.372944 A    
C27   C29   1.397504 A    
O14   C6    1.303506 A    
C25   C45   1.416157 A    
H1    C37   1.082955 S    
C11   C69   1.444675 S    
C2    C33   1.438633 S    
O1    Zn1   1.955243 S    
N13   O21   1.301326 A    
O2    C2    1.286840 A    
N18   O32   1.299802 A    
N12   O20   1.301653 A    
C67   N7    1.156301 T    
O13   C5    1.291910 A    
C9    C29   1.426795 A    
C10   C14   1.413553 A    
C31   C35   1.425506 A    
Zn2   O11   2.003868 S    
O16   C8    1.302147 A    
Zn3   N1    2.021562 S    
N16   O27   1.300580 A    
C12   C32   1.429949 A    
C28   C48   1.414052 A    
C49   H13   1.064971 S    
N17   O29   1.301460 A    
C57   C59   1.432580 A    
C29   C33   1.424407 A    
C9    C67   1.446711 S    
C37   C43   1.367425 A    
Zn1   O9    2.003868 S    
C32   C36   1.421259 A    
O9    C5    1.281987 A    
N14   O23   1.301349 A    
C22   N16   1.435050 S    
C65   N5    1.157354 T    
H11   C43   1.082577 S    
N17   O30   1.299617 A    
C19   C23   1.399779 A    
C56   H18   1.063106 S    
N15   O25   1.301406 A    
C64   N4    1.360554 A    
C21   C25   1.419443 A    
C16   C18   1.394039 A    
C28   C30   1.400791 A    
C62   C64   1.416712 A    
C23   C27   1.422112 A    
O4    Zn2   1.978682 S    
C9    C13   1.411612 A    
N11   O18   1.299949 A    
O3    C3    1.300741 A    
O6    C2    1.299298 A    
H3    C39   1.081519 S    
C55   C57   1.412164 A    
C33   C37   1.399583 A    
Zn3   O13   1.955234 S    
Zn4   O16   1.978673 S    
C53   C55   1.394899 A    
C42   C46   1.390026 A    
C21   N15   1.440235 S    
N15   O26   1.300151 A    
C41   C45   1.390360 A    
N18   O31   1.300386 A    
C69   N9    1.155999 T    
C19   H7    1.083203 S    
C14   N12   1.442138 S    
C24   C28   1.419360 A    
N12   O19   1.301136 A    
C26   C46   1.413619 A    
C23   N17   1.438753 S    
