data_mof_unit_29300.cif
_audit_creation_date              2013-03-05T15:49:31-0500
_audit_creation_method            fapswitch 2.2
_symmetry_space_group_name_H-M    P1
_symmetry_Int_Tables_number       1
_space_group_crystal_system       triclinic
_cell_length_a                    18.610447
_cell_length_b                    18.610287
_cell_length_c                    34.231906
_cell_angle_alpha                 90.001242
_cell_angle_beta                  90.001049
_cell_angle_gamma                 90.000356
_cell_volume                      11856.0754903

loop_
_atom_site_label
_atom_site_type_symbol
_atom_site_description
_atom_site_fract_x
_atom_site_fract_y
_atom_site_fract_z
_atom_type_partial_charge
Zn1   Zn    Zn3+2 0.000000 0.586740 0.782740 1.089052
Zn2   Zn    Zn3+2 0.000000 0.413260 0.217260 1.089081
Zn3   Zn    Zn3+2 0.413260 0.000000 0.782740 1.089052
Zn4   Zn    Zn3+2 0.586740 1.000000 0.217260 1.089075
Zn5   Zn    Zn3+2 0.000000 0.413260 0.782740 1.089055
Zn6   Zn    Zn3+2 0.000000 0.586740 0.217260 1.089043
Zn7   Zn    Zn3+2 0.586740 0.000000 0.782740 1.089060
Zn8   Zn    Zn3+2 0.413260 1.000000 0.217260 1.089033
Zn9   Zn    Zn3+2 0.500000 0.086740 0.282740 1.089019
Zn10  Zn    Zn3+2 0.500000 0.913260 0.717260 1.089068
Zn11  Zn    Zn3+2 0.913260 0.500000 0.282740 1.089035
Zn12  Zn    Zn3+2 0.086740 0.500000 0.717260 1.089063
Zn13  Zn    Zn3+2 0.500000 0.913260 0.282740 1.089040
Zn14  Zn    Zn3+2 0.500000 0.086740 0.717260 1.089059
Zn15  Zn    Zn3+2 0.086740 0.500000 0.282740 1.089048
Zn16  Zn    Zn3+2 0.913260 0.500000 0.717260 1.089055
C1    C     C_R   0.631847 0.995560 0.520507 -0.050534
C2    C     C_R   0.368124 0.995642 0.479493 -0.050625
C3    C     C_R   0.004446 0.631865 0.520509 -0.050543
C4    C     C_R   0.004402 0.368143 0.479494 -0.050563
C5    C     C_R   0.368130 0.004467 0.520506 -0.050525
C6    C     C_R   0.631850 0.004409 0.479496 -0.050558
C7    C     C_R   0.995554 0.368145 0.520505 -0.050539
C8    C     C_R   0.995614 0.631870 0.479496 -0.050587
C9    C     C_R   0.131852 0.495555 0.020505 -0.050530
C10   C     C_R   0.868135 0.495598 0.979492 -0.050561
C11   C     C_R   0.504442 0.131865 0.020506 -0.050544
C12   C     C_R   0.504415 0.868145 0.979492 -0.050556
C13   C     C_R   0.868137 0.504450 0.020503 -0.050541
C14   C     C_R   0.131855 0.504418 0.979495 -0.050555
C15   C     C_R   0.495553 0.868147 0.020503 -0.050528
C16   C     C_R   0.495590 0.131867 0.979495 -0.050558
O1    O     O_3   0.000000 0.500000 0.750000 -0.562453
O2    O     O_3   0.000000 0.500000 0.250000 -0.562449
O3    O     O_3   0.500000 1.000000 0.750000 -0.562453
O4    O     O_3   0.500000 1.000000 0.250000 -0.562449
O5    O     O_R   0.060740 0.500000 0.662560 -0.592049
O6    O     O_R   0.939260 0.500000 0.337440 -0.592017
O7    O     O_R   0.500000 0.060740 0.662560 -0.592050
O8    O     O_R   0.500000 0.939260 0.337440 -0.592014
O9    O     O_R   0.939260 0.500000 0.662560 -0.592060
O10   O     O_R   0.060740 0.500000 0.337440 -0.592077
O11   O     O_R   0.500000 0.939260 0.662560 -0.592062
O12   O     O_R   0.500000 0.060740 0.337440 -0.592081
O13   O     O_R   0.560740 0.000000 0.162560 -0.592032
O14   O     O_R   0.439260 0.000000 0.837440 -0.592049
O15   O     O_R   0.000000 0.560740 0.162560 -0.592024
O16   O     O_R   0.000000 0.439260 0.837440 -0.592053
O17   O     O_R   0.439260 0.000000 0.162560 -0.592047
O18   O     O_R   0.560740 0.000000 0.837440 -0.592067
O19   O     O_R   0.000000 0.439260 0.162560 -0.592065
O20   O     O_R   0.000000 0.560740 0.837440 -0.592066
O21   O     O_R   0.853850 0.585450 0.727070 -0.586068
O22   O     O_R   0.146150 0.414550 0.272930 -0.613637
O23   O     O_R   0.414550 0.853850 0.727070 -0.586064
O24   O     O_R   0.585450 0.146150 0.272930 -0.613594
O25   O     O_R   0.146150 0.414550 0.727070 -0.586061
O26   O     O_R   0.853850 0.585450 0.272930 -0.613631
O27   O     O_R   0.585450 0.146150 0.727070 -0.586071
O28   O     O_R   0.414550 0.853850 0.272930 -0.613701
O29   O     O_R   0.853850 0.414550 0.272930 -0.586010
O30   O     O_R   0.146150 0.585450 0.727070 -0.613554
O31   O     O_R   0.414550 0.146150 0.272930 -0.585987
O32   O     O_R   0.585450 0.853850 0.727070 -0.613556
O33   O     O_R   0.146150 0.585450 0.272930 -0.585923
O34   O     O_R   0.853850 0.414550 0.727070 -0.613554
O35   O     O_R   0.585450 0.853850 0.272930 -0.586000
O36   O     O_R   0.414550 0.146150 0.727070 -0.613553
O37   O     O_R   0.353850 0.085450 0.227070 -0.586125
O38   O     O_R   0.646150 0.914550 0.772930 -0.613569
O39   O     O_R   0.914550 0.353850 0.227070 -0.586097
O40   O     O_R   0.085450 0.646150 0.772930 -0.613566
O41   O     O_R   0.646150 0.914550 0.227070 -0.586103
O42   O     O_R   0.353850 0.085450 0.772930 -0.613568
O43   O     O_R   0.085450 0.646150 0.227070 -0.586150
O44   O     O_R   0.914550 0.353850 0.772930 -0.613580
O45   O     O_R   0.353850 0.914550 0.772930 -0.586051
O46   O     O_R   0.646150 0.085450 0.227070 -0.613547
O47   O     O_R   0.914550 0.646150 0.772930 -0.586048
O48   O     O_R   0.085450 0.353850 0.227070 -0.613538
O49   O     O_R   0.646150 0.085450 0.772930 -0.586037
O50   O     O_R   0.353850 0.914550 0.227070 -0.613542
O51   O     O_R   0.085450 0.353850 0.772930 -0.586046
O52   O     O_R   0.914550 0.646150 0.227070 -0.613544
C17   C     C_R   0.438510 0.022619 0.581611 -0.063711
C18   C     C_R   0.561484 0.022588 0.418389 -0.063744
C19   C     C_R   0.977380 0.438521 0.581609 -0.063711
C20   C     C_R   0.977432 0.561503 0.418387 -0.063730
C21   C     C_R   0.561472 0.977380 0.581609 -0.063706
C22   C     C_R   0.438486 0.977434 0.418386 -0.063677
C23   C     C_R   0.022613 0.561487 0.581612 -0.063706
C24   C     C_R   0.022591 0.438508 0.418389 -0.063714
C25   C     C_R   0.938517 0.522623 0.081608 -0.063708
C26   C     C_R   0.061484 0.522608 0.918389 -0.063712
C27   C     C_R   0.477372 0.938527 0.081605 -0.063716
C28   C     C_R   0.477403 0.061494 0.918389 -0.063713
C29   C     C_R   0.061473 0.477372 0.081606 -0.063707
C30   C     C_R   0.938506 0.477405 0.918388 -0.063705
C31   C     C_R   0.522620 0.061486 0.081609 -0.063700
C32   C     C_R   0.522607 0.938516 0.918389 -0.063706
C33   C     C_R   0.499993 0.999998 0.602069 -0.024988
C34   C     C_R   0.499989 0.000004 0.397931 -0.024916
C35   C     C_R   0.999997 0.500003 0.602069 -0.024986
C36   C     C_R   0.000006 0.500002 0.397931 -0.024959
C37   C     C_R   0.999997 0.499998 0.102067 -0.025006
C38   C     C_R   0.999996 0.500003 0.897931 -0.024969
C39   C     C_R   0.499997 0.000004 0.102067 -0.025008
C40   C     C_R   0.500003 0.000003 0.897931 -0.024971
C41   C     C_R   0.565445 0.991638 0.541036 0.016771
C42   C     C_R   0.434522 0.991683 0.458962 0.016735
C43   C     C_R   0.008362 0.565463 0.541038 0.016768
C44   C     C_R   0.008341 0.434543 0.458963 0.016777
C45   C     C_R   0.434532 0.008372 0.541036 0.016766
C46   C     C_R   0.565450 0.008343 0.458963 0.016797
C47   C     C_R   0.991634 0.434547 0.541035 0.016773
C48   C     C_R   0.991673 0.565470 0.458963 0.016780
C49   C     C_R   0.065450 0.491637 0.041034 0.016773
C50   C     C_R   0.934535 0.491661 0.958961 0.016771
C51   C     C_R   0.508364 0.065463 0.041035 0.016767
C52   C     C_R   0.508352 0.934545 0.958962 0.016775
C53   C     C_R   0.934539 0.508368 0.041034 0.016766
C54   C     C_R   0.065455 0.508354 0.958963 0.016778
C55   C     C_R   0.491636 0.934550 0.041033 0.016773
C56   C     C_R   0.491657 0.065466 0.958963 0.016777
C57   C     C_R   0.999999 0.500000 0.644505 0.786261
C58   C     C_R   0.000001 0.499997 0.355494 0.786101
C59   C     C_R   0.499998 0.999999 0.644505 0.786273
C60   C     C_R   0.499999 0.000001 0.355494 0.786052
C61   C     C_R   0.499999 0.999998 0.144505 0.786352
C62   C     C_R   0.500001 0.000001 0.855495 0.786222
C63   C     C_R   0.000002 0.499999 0.144504 0.786361
C64   C     C_R   0.999999 0.500001 0.855495 0.786218
C65   C     C_R   0.860035 0.639965 0.750001 0.920493
C66   C     C_R   0.140288 0.359719 0.249994 0.815783
C67   C     C_R   0.360036 0.860035 0.750000 0.920495
C68   C     C_R   0.640282 0.140287 0.249997 0.815735
C69   C     C_R   0.139964 0.360036 0.750001 0.920496
C70   C     C_R   0.859713 0.640282 0.249995 0.815703
C71   C     C_R   0.639965 0.139964 0.750001 0.920494
C72   C     C_R   0.359717 0.859713 0.249991 0.815724
C73   C     C_R   0.860036 0.360035 0.250002 0.920490
C74   C     C_R   0.140284 0.640286 0.750000 0.815726
C75   C     C_R   0.360035 0.139966 0.250004 0.920426
C76   C     C_R   0.640285 0.859715 0.749999 0.815748
C77   C     C_R   0.139964 0.639966 0.250004 0.920461
C78   C     C_R   0.859715 0.359715 0.749999 0.815725
C79   C     C_R   0.639965 0.860035 0.250003 0.920509
C80   C     C_R   0.359715 0.140285 0.749999 0.815715
C81   C     C_R   0.281505 0.631795 0.702763 0.215629
C82   C     C_R   0.770477 0.323075 0.320381 0.226242
C83   C     C_R   0.368199 0.281508 0.702762 0.215629
C84   C     C_R   0.676933 0.770454 0.320383 0.226379
C85   C     C_R   0.718490 0.368200 0.702762 0.215624
C86   C     C_R   0.229627 0.676881 0.320377 0.226475
C87   C     C_R   0.631794 0.718487 0.702765 0.215618
C88   C     C_R   0.323130 0.229619 0.320371 0.226334
C89   C     C_R   0.281521 0.368320 0.297160 0.215702
C90   C     C_R   0.770551 0.676944 0.679617 0.226049
C91   C     C_R   0.368314 0.718526 0.297161 0.215644
C92   C     C_R   0.676948 0.229438 0.679616 0.226039
C93   C     C_R   0.718517 0.631731 0.297194 0.215702
C94   C     C_R   0.229439 0.323049 0.679616 0.226042
C95   C     C_R   0.631746 0.281505 0.297201 0.215685
C96   C     C_R   0.323047 0.770555 0.679616 0.226040
C97   C     C_R   0.781506 0.131814 0.202751 0.215616
C98   C     C_R   0.270542 0.823056 0.820384 0.226080
C99   C     C_R   0.868167 0.781505 0.202739 0.215624
C100  C     C_R   0.176948 0.270538 0.820384 0.226095
C101  C     C_R   0.218489 0.868162 0.202736 0.215598
C102  C     C_R   0.729478 0.176940 0.820383 0.226102
C103  C     C_R   0.131817 0.218480 0.202755 0.215587
C104  C     C_R   0.823065 0.729478 0.820382 0.226089
C105  C     C_R   0.781510 0.868226 0.797222 0.215631
C106  C     C_R   0.270582 0.176945 0.179617 0.226011
C107  C     C_R   0.868224 0.218497 0.797223 0.215643
C108  C     C_R   0.176957 0.729385 0.179614 0.225993
C109  C     C_R   0.218497 0.131784 0.797228 0.215635
C110  C     C_R   0.729392 0.823034 0.179612 0.225984
C111  C     C_R   0.131788 0.781509 0.797230 0.215630
C112  C     C_R   0.823042 0.270582 0.179614 0.225994
C113  C     C_R   0.320582 0.641826 0.667709 0.102935
C114  C     C_R   0.711706 0.336410 0.345411 0.118302
C115  C     C_R   0.358165 0.320588 0.667709 0.102928
C116  C     C_R   0.663647 0.711677 0.345422 0.118204
C117  C     C_R   0.679408 0.358166 0.667709 0.102929
C118  C     C_R   0.288428 0.663629 0.345408 0.118243
C119  C     C_R   0.641823 0.679406 0.667711 0.102937
C120  C     C_R   0.336451 0.288420 0.345388 0.118254
C121  C     C_R   0.320552 0.358366 0.332232 0.103216
C122  C     C_R   0.711797 0.663553 0.654587 0.118435
C123  C     C_R   0.358362 0.679584 0.332257 0.103515
C124  C     C_R   0.663556 0.288189 0.654585 0.118438
C125  C     C_R   0.679528 0.641719 0.332277 0.103170
C126  C     C_R   0.288189 0.336440 0.654586 0.118432
C127  C     C_R   0.641744 0.320537 0.332270 0.103100
C128  C     C_R   0.336435 0.711802 0.654585 0.118426
C129  C     C_R   0.820596 0.141855 0.167701 0.102897
C130  C     C_R   0.211787 0.836435 0.845414 0.118424
C131  C     C_R   0.858114 0.820599 0.167692 0.102873
C132  C     C_R   0.163577 0.211781 0.845415 0.118412
C133  C     C_R   0.179382 0.858108 0.167693 0.102870
C134  C     C_R   0.788239 0.163574 0.845414 0.118429
C135  C     C_R   0.141855 0.179376 0.167709 0.102890
C136  C     C_R   0.836441 0.788239 0.845410 0.118418
C137  C     C_R   0.820579 0.858209 0.832280 0.102985
C138  C     C_R   0.211834 0.163532 0.154588 0.118494
C139  C     C_R   0.858206 0.179443 0.832283 0.102996
C140  C     C_R   0.163542 0.788123 0.154581 0.118482
C141  C     C_R   0.179436 0.141809 0.832287 0.102972
C142  C     C_R   0.788131 0.836441 0.154577 0.118475
C143  C     C_R   0.141814 0.820578 0.832287 0.102967
C144  C     C_R   0.836444 0.211835 0.154583 0.118471
C145  C     C_R   0.499988 0.000006 0.520474 0.029657
C146  C     C_R   0.499987 0.000008 0.479524 0.029718
C147  C     C_R   1.000000 0.500005 0.520475 0.029654
C148  C     C_R   0.000004 0.500006 0.479525 0.029687
C149  C     C_R   0.999995 0.500006 0.020472 0.029628
C150  C     C_R   0.999995 0.500007 0.979523 0.029651
C151  C     C_R   0.500003 0.000006 0.020473 0.029627
C152  C     C_R   0.500004 0.000006 0.979523 0.029649
C153  C     C_R   0.294682 0.757554 0.717402 -0.093226
C154  C     C_R   0.693280 0.257247 0.276168 -0.109692
C155  C     C_R   0.242443 0.294683 0.717402 -0.093219
C156  C     C_R   0.742755 0.693271 0.276161 -0.109676
C157  C     C_R   0.705316 0.242442 0.717402 -0.093209
C158  C     C_R   0.306757 0.742738 0.276139 -0.109663
C159  C     C_R   0.757552 0.705313 0.717402 -0.093210
C160  C     C_R   0.257269 0.306761 0.276146 -0.109719
C161  C     C_R   0.294746 0.242542 0.282578 -0.093167
C162  C     C_R   0.693312 0.742768 0.723810 -0.109645
C163  C     C_R   0.242544 0.705256 0.282578 -0.093215
C164  C     C_R   0.742770 0.306684 0.723808 -0.109647
C165  C     C_R   0.705284 0.757495 0.282587 -0.093187
C166  C     C_R   0.306683 0.257229 0.723809 -0.109642
C167  C     C_R   0.757510 0.294712 0.282589 -0.093181
C168  C     C_R   0.257227 0.693314 0.723809 -0.109635
C169  C     C_R   0.794674 0.257570 0.217398 -0.093236
C170  C     C_R   0.193307 0.757234 0.776186 -0.109661
C171  C     C_R   0.742415 0.794668 0.217395 -0.093229
C172  C     C_R   0.242768 0.193306 0.776185 -0.109653
C173  C     C_R   0.205329 0.742410 0.217394 -0.093223
C174  C     C_R   0.806699 0.242766 0.776182 -0.109651
C175  C     C_R   0.257573 0.205323 0.217399 -0.093236
C176  C     C_R   0.757236 0.806700 0.776182 -0.109657
C177  C     C_R   0.794695 0.742464 0.782594 -0.093208
C178  C     C_R   0.193330 0.242775 0.223800 -0.109619
C179  C     C_R   0.742464 0.205306 0.782595 -0.093216
C180  C     C_R   0.242778 0.806659 0.223789 -0.109626
C181  C     C_R   0.205311 0.257544 0.782596 -0.093210
C182  C     C_R   0.806662 0.757218 0.223793 -0.109619
C183  C     C_R   0.257546 0.794690 0.782596 -0.093201
C184  C     C_R   0.757221 0.193327 0.223800 -0.109618
C185  C     C_R   0.303880 0.803883 0.750000 0.027527
C186  C     C_R   0.696873 0.196894 0.249987 -0.038697
C187  C     C_R   0.196115 0.303878 0.750000 0.027528
C188  C     C_R   0.803104 0.696870 0.249981 -0.038695
C189  C     C_R   0.696123 0.196114 0.750000 0.027527
C190  C     C_R   0.303136 0.803101 0.249969 -0.038708
C191  C     C_R   0.803885 0.696123 0.750000 0.027522
C192  C     C_R   0.196901 0.303138 0.249978 -0.038730
C193  C     C_R   0.303906 0.196149 0.249998 0.027514
C194  C     C_R   0.696886 0.803118 0.749997 -0.038696
C195  C     C_R   0.196150 0.696089 0.249997 0.027512
C196  C     C_R   0.803118 0.303113 0.749996 -0.038690
C197  C     C_R   0.696098 0.803859 0.249998 0.027518
C198  C     C_R   0.303114 0.196882 0.749997 -0.038685
C199  C     C_R   0.803866 0.303895 0.249999 0.027523
C200  C     C_R   0.196882 0.696886 0.749998 -0.038688
N1    N     N_R   0.279072 0.561387 0.720101 0.262370
O53   O     O_R   0.289998 0.553686 0.757390 -0.387937
O54   O     O_R   0.265424 0.504836 0.698994 -0.305323
N2    N     N_R   0.842735 0.329244 0.334713 0.199884
O55   O     O_R   0.890243 0.280753 0.325570 -0.465686
O56   O     O_R   0.861644 0.383270 0.356459 -0.350662
N3    N     N_R   0.438609 0.279074 0.720100 0.262369
O57   O     O_R   0.446315 0.290004 0.757388 -0.387950
O58   O     O_R   0.495156 0.265423 0.698991 -0.305320
N4    N     N_R   0.670743 0.842709 0.334715 0.199933
O59   O     O_R   0.719233 0.890224 0.325583 -0.465763
O60   O     O_R   0.616690 0.861609 0.356441 -0.350477
N5    N     N_R   0.720928 0.438611 0.720099 0.262368
O61   O     O_R   0.709997 0.446319 0.757386 -0.387954
O62   O     O_R   0.734580 0.495157 0.698989 -0.305324
N6    N     N_R   0.157386 0.670679 0.334726 0.200005
O63   O     O_R   0.109862 0.719175 0.325616 -0.465936
O64   O     O_R   0.138501 0.616602 0.356439 -0.350312
N7    N     N_R   0.561386 0.720925 0.720103 0.262367
O65   O     O_R   0.553684 0.710001 0.757392 -0.387943
O66   O     O_R   0.504837 0.734573 0.698995 -0.305321
N8    N     N_R   0.329309 0.157377 0.334723 0.199928
O67   O     O_R   0.280811 0.109860 0.325604 -0.465886
O68   O     O_R   0.383358 0.138488 0.356457 -0.350469
N9    N     N_R   0.279097 0.438692 0.279774 0.262302
O69   O     O_R   0.289997 0.446304 0.242477 -0.388059
O70   O     O_R   0.265522 0.495303 0.300847 -0.305474
N10   N     N_R   0.842819 0.670803 0.665295 0.199803
O71   O     O_R   0.890314 0.719293 0.674461 -0.465506
O72   O     O_R   0.861744 0.616816 0.643525 -0.350943
N11   N     N_R   0.438683 0.720885 0.279758 0.262270
O73   O     O_R   0.446255 0.710012 0.242456 -0.388130
O74   O     O_R   0.495334 0.734311 0.300828 -0.305471
N12   N     N_R   0.670806 0.157167 0.665295 0.199800
O75   O     O_R   0.719293 0.109671 0.674464 -0.465480
O76   O     O_R   0.616823 0.138241 0.643523 -0.350972
N13   N     N_R   0.720904 0.561347 0.279819 0.262316
O77   O     O_R   0.709979 0.553718 0.242525 -0.388012
O78   O     O_R   0.734480 0.504744 0.300898 -0.305400
N14   N     N_R   0.157169 0.329190 0.665295 0.199802
O79   O     O_R   0.109673 0.280703 0.674463 -0.465495
O80   O     O_R   0.138242 0.383176 0.643527 -0.350953
N15   N     N_R   0.561355 0.279090 0.279837 0.262326
O81   O     O_R   0.553701 0.290010 0.242545 -0.388000
O82   O     O_R   0.504772 0.265488 0.300926 -0.305410
N16   N     N_R   0.329190 0.842824 0.665295 0.199804
O83   O     O_R   0.280703 0.890320 0.674461 -0.465505
O84   O     O_R   0.383178 0.861750 0.643528 -0.350940
N17   N     N_R   0.779067 0.061401 0.220081 0.262375
O85   O     O_R   0.790004 0.053684 0.257368 -0.387985
O86   O     O_R   0.765405 0.004860 0.198968 -0.305309
N18   N     N_R   0.342809 0.829204 0.834707 0.199813
O87   O     O_R   0.390307 0.780716 0.825544 -0.465546
O88   O     O_R   0.361732 0.883197 0.856473 -0.350910
N19   N     N_R   0.938586 0.779066 0.220064 0.262372
O89   O     O_R   0.946318 0.790024 0.257348 -0.388040
O90   O     O_R   0.995116 0.765391 0.198946 -0.305304
N20   N     N_R   0.170796 0.342805 0.834707 0.199821
O91   O     O_R   0.219283 0.390306 0.825547 -0.465561
O92   O     O_R   0.116799 0.361725 0.856469 -0.350882
N21   N     N_R   0.220937 0.938585 0.220057 0.262362
O93   O     O_R   0.209965 0.946329 0.257339 -0.388052
O94   O     O_R   0.234622 0.995109 0.198935 -0.305298
N22   N     N_R   0.657214 0.170787 0.834709 0.199831
O95   O     O_R   0.609713 0.219277 0.825552 -0.465590
O96   O     O_R   0.638296 0.116785 0.856468 -0.350847
N23   N     N_R   0.061404 0.220928 0.220085 0.262369
O97   O     O_R   0.053685 0.209995 0.257372 -0.387989
O98   O     O_R   0.004866 0.234591 0.198971 -0.305303
N24   N     N_R   0.829215 0.657214 0.834708 0.199821
O99   O     O_R   0.780725 0.609713 0.825550 -0.465580
O100  O     O_R   0.883213 0.638296 0.856472 -0.350870
N25   N     N_R   0.779078 0.938628 0.779875 0.262359
O101  O     O_R   0.789993 0.946313 0.742585 -0.387949
O102  O     O_R   0.765445 0.995190 0.800977 -0.305349
N26   N     N_R   0.342853 0.170816 0.165297 0.199790
O103  O     O_R   0.390344 0.219306 0.174470 -0.465400
O104  O     O_R   0.361785 0.116843 0.143519 -0.351034
N27   N     N_R   0.938624 0.220919 0.779874 0.262354
O105  O     O_R   0.946303 0.210003 0.742583 -0.387959
O106  O     O_R   0.995191 0.234537 0.800975 -0.305342
N28   N     N_R   0.170832 0.657107 0.165301 0.199772
O107  O     O_R   0.219318 0.609619 0.174482 -0.465284
O108  O     O_R   0.116871 0.638168 0.143515 -0.351110
N29   N     N_R   0.220924 0.061379 0.779883 0.262364
O109  O     O_R   0.209999 0.053689 0.742594 -0.387945
O110  O     O_R   0.234560 0.004821 0.800986 -0.305335
N30   N     N_R   0.657115 0.829165 0.165299 0.199780
O111  O     O_R   0.609625 0.780681 0.174479 -0.465315
O112  O     O_R   0.638179 0.883134 0.143520 -0.351076
N31   N     N_R   0.061382 0.779077 0.779887 0.262363
O113  O     O_R   0.053687 0.790002 0.742598 -0.387946
O114  O     O_R   0.004828 0.765436 0.800991 -0.305335
N32   N     N_R   0.829178 0.342855 0.165297 0.199787
O115  O     O_R   0.780692 0.390349 0.174471 -0.465409
O116  O     O_R   0.883154 0.361786 0.143522 -0.351031
N33   N     N_R   0.081214 0.842212 0.855211 0.289549
O117  O     O_R   0.074840 0.819969 0.891071 -0.282414
O118  O     O_R   0.036851 0.890265 0.841811 -0.188370
N34   N     N_R   0.869180 0.222452 0.116942 0.269075
O119  O     O_R   0.840975 0.266436 0.091722 -0.410824
O120  O     O_R   0.925204 0.185157 0.106824 -0.196200
N35   N     N_R   0.157817 0.081207 0.855213 0.289547
O121  O     O_R   0.180085 0.074830 0.891069 -0.282445
O122  O     O_R   0.109749 0.036848 0.841823 -0.188357
N36   N     N_R   0.777502 0.869176 0.116938 0.269080
O123  O     O_R   0.733528 0.840956 0.091717 -0.410869
O124  O     O_R   0.814781 0.925213 0.106820 -0.196202
N37   N     N_R   0.918811 0.157851 0.855215 0.289545
O125  O     O_R   0.925212 0.180186 0.891056 -0.282533
O126  O     O_R   0.963152 0.109747 0.841848 -0.188298
N38   N     N_R   0.130803 0.777491 0.116941 0.269089
O127  O     O_R   0.159035 0.733535 0.091715 -0.410888
O128  O     O_R   0.074747 0.814747 0.106830 -0.196225
N39   N     N_R   0.842203 0.918817 0.855203 0.289540
O129  O     O_R   0.819938 0.925206 0.891058 -0.282435
O130  O     O_R   0.890266 0.963174 0.841808 -0.188376
N40   N     N_R   0.222450 0.130793 0.116948 0.269077
O131  O     O_R   0.266418 0.159009 0.091724 -0.410840
O132  O     O_R   0.185173 0.074751 0.106835 -0.196211
N41   N     N_R   0.081263 0.157678 0.144793 0.289562
O133  O     O_R   0.036875 0.109687 0.158235 -0.188381
O134  O     O_R   0.074923 0.179785 0.108907 -0.282248
N42   N     N_R   0.869151 0.777648 0.883061 0.269023
O135  O     O_R   0.840982 0.733609 0.908264 -0.410797
O136  O     O_R   0.925091 0.815042 0.893214 -0.196082
N43   N     N_R   0.157671 0.918692 0.144775 0.289573
O137  O     O_R   0.109690 0.963087 0.158221 -0.188366
O138  O     O_R   0.179757 0.925020 0.108884 -0.282240
N44   N     N_R   0.777649 0.130875 0.883066 0.268987
O139  O     O_R   0.733587 0.159034 0.908262 -0.410790
O140  O     O_R   0.815080 0.074969 0.893236 -0.196078
N45   N     N_R   0.918699 0.842291 0.144770 0.289568
O141  O     O_R   0.963091 0.890286 0.158205 -0.188341
O142  O     O_R   0.925025 0.820178 0.108883 -0.282264
N46   N     N_R   0.130877 0.222381 0.883067 0.269019
O143  O     O_R   0.159050 0.266430 0.908266 -0.410830
O144  O     O_R   0.074949 0.184980 0.893229 -0.196049
N47   N     N_R   0.842273 0.081264 0.144780 0.289558
O145  O     O_R   0.890278 0.036877 0.158208 -0.188350
O146  O     O_R   0.820141 0.074931 0.108897 -0.282276
N48   N     N_R   0.222389 0.869144 0.883065 0.269029
O147  O     O_R   0.266422 0.840964 0.908268 -0.410830
O148  O     O_R   0.185012 0.925094 0.893217 -0.196088
N49   N     N_R   0.581123 0.342085 0.355200 0.289535
O149  O     O_R   0.574651 0.319604 0.391011 -0.282725
O150  O     O_R   0.536812 0.390240 0.341858 -0.188400
N50   N     N_R   0.369155 0.722409 0.616939 0.269047
O151  O     O_R   0.340970 0.766426 0.591729 -0.410775
O152  O     O_R   0.425134 0.685062 0.606801 -0.196112
N51   N     N_R   0.658070 0.581091 0.355223 0.289528
O153  O     O_R   0.680724 0.574589 0.391002 -0.282924
O154  O     O_R   0.609824 0.536815 0.341940 -0.188320
N52   N     N_R   0.277580 0.369161 0.616940 0.269044
O155  O     O_R   0.233566 0.340971 0.591729 -0.410815
O156  O     O_R   0.314923 0.425142 0.606802 -0.196125
N53   N     N_R   0.419011 0.658333 0.355240 0.289500
O157  O     O_R   0.425680 0.681554 0.390916 -0.283695
O158  O     O_R   0.463129 0.609785 0.342135 -0.187922
N54   N     N_R   0.630834 0.277579 0.616940 0.269051
O159  O     O_R   0.659027 0.233572 0.591727 -0.410828
O160  O     O_R   0.574846 0.314914 0.606804 -0.196131
N55   N     N_R   0.342053 0.419017 0.355152 0.289492
O161  O     O_R   0.319437 0.425581 0.390933 -0.282870
O162  O     O_R   0.390243 0.463306 0.341826 -0.188444
N56   N     N_R   0.722403 0.630833 0.616940 0.269048
O163  O     O_R   0.766414 0.659023 0.591730 -0.410799
O164  O     O_R   0.685061 0.574850 0.606803 -0.196117
N57   N     N_R   0.581225 0.657751 0.644790 0.289552
O165  O     O_R   0.536852 0.609720 0.658204 -0.188363
O166  O     O_R   0.574865 0.679942 0.608920 -0.282333
N58   N     N_R   0.369104 0.277895 0.383063 0.268857
O167  O     O_R   0.341026 0.233722 0.408227 -0.410691
O168  O     O_R   0.424833 0.315535 0.393295 -0.195894
N59   N     N_R   0.657750 0.418762 0.644787 0.289553
O169  O     O_R   0.609722 0.463137 0.658203 -0.188365
O170  O     O_R   0.679935 0.425117 0.608916 -0.282337
N60   N     N_R   0.277929 0.631036 0.383104 0.268699
O171  O     O_R   0.233604 0.659044 0.408210 -0.410713
O172  O     O_R   0.315846 0.575554 0.393445 -0.195948
N61   N     N_R   0.418761 0.342243 0.644787 0.289554
O173  O     O_R   0.463135 0.390274 0.658202 -0.188356
O174  O     O_R   0.425117 0.320052 0.608916 -0.282355
N62   N     N_R   0.631060 0.722240 0.383111 0.268818
O175  O     O_R   0.659147 0.766493 0.408232 -0.410843
O176  O     O_R   0.575426 0.684518 0.393415 -0.195594
N63   N     N_R   0.342231 0.581229 0.644786 0.289550
O177  O     O_R   0.390266 0.536856 0.658197 -0.188355
O178  O     O_R   0.320034 0.574872 0.608916 -0.282353
N64   N     N_R   0.722279 0.369058 0.383082 0.268908
O179  O     O_R   0.766421 0.340929 0.408247 -0.410811
O180  O     O_R   0.684723 0.424844 0.393309 -0.195853
C201  C     C_R   0.384166 0.069373 0.600889 0.099306
C202  C     C_R   0.343748 0.045765 0.633084 -0.110785
C203  C     C_R   0.288864 0.088588 0.648283 -0.094184
C204  C     C_R   0.274037 0.155323 0.631591 -0.170084
C205  C     C_R   0.315286 0.179935 0.600250 -0.116922
C206  C     C_R   0.370589 0.137710 0.585242 -0.066030
H1    H     H_    0.353401 0.993732 0.645720 0.191505
H2    H     H_    0.256913 0.069360 0.672438 0.205666
H3    H     H_    0.230315 0.187532 0.642756 0.166984
H4    H     H_    0.303977 0.230994 0.586863 0.211368
H5    H     H_    0.401254 0.157198 0.560517 0.168340
C207  C     C_R   0.615855 0.069308 0.399109 0.099230
C208  C     C_R   0.656251 0.045673 0.366911 -0.110861
C209  C     C_R   0.711132 0.088479 0.351695 -0.094161
C210  C     C_R   0.725982 0.155222 0.368373 -0.170076
C211  C     C_R   0.684768 0.179850 0.399724 -0.116867
C212  C     C_R   0.629464 0.137645 0.414748 -0.065875
H6    H     H_    0.646575 0.993636 0.354284 0.191507
H7    H     H_    0.743058 0.069234 0.327533 0.205642
H8    H     H_    0.769694 0.187424 0.357191 0.167024
H9    H     H_    0.696100 0.230909 0.413106 0.211305
H10   H     H_    0.598818 0.157152 0.439476 0.168333
C213  C     C_R   0.930622 0.384175 0.600882 0.099304
C214  C     C_R   0.954223 0.343753 0.633077 -0.110778
C215  C     C_R   0.911395 0.288870 0.648272 -0.094198
C216  C     C_R   0.844661 0.274047 0.631577 -0.170086
C217  C     C_R   0.820057 0.315300 0.600235 -0.116862
C218  C     C_R   0.862288 0.370601 0.585230 -0.066041
H11   H     H_    0.006255 0.353401 0.645716 0.191496
H12   H     H_    0.930617 0.256916 0.672429 0.205664
H13   H     H_    0.812448 0.230327 0.642740 0.166968
H14   H     H_    0.768998 0.303994 0.586845 0.211382
H15   H     H_    0.842805 0.401269 0.560504 0.168350
C219  C     C_R   0.930743 0.615890 0.399099 0.099192
C220  C     C_R   0.954404 0.656262 0.366899 -0.110940
C221  C     C_R   0.911624 0.711152 0.351669 -0.094125
C222  C     C_R   0.844883 0.726038 0.368339 -0.170081
C223  C     C_R   0.820236 0.684855 0.399697 -0.116927
C224  C     C_R   0.862411 0.629538 0.414732 -0.065719
H16   H     H_    0.006440 0.646558 0.354280 0.191507
H17   H     H_    0.930889 0.743057 0.327504 0.205658
H18   H     H_    0.812698 0.769753 0.357144 0.167080
H19   H     H_    0.769183 0.696220 0.413075 0.211263
H20   H     H_    0.842885 0.598914 0.439463 0.168362
C225  C     C_R   0.615818 0.930620 0.600881 0.099297
C226  C     C_R   0.656242 0.954219 0.633077 -0.110764
C227  C     C_R   0.711124 0.911389 0.648272 -0.094201
C228  C     C_R   0.725945 0.844656 0.631575 -0.170101
C229  C     C_R   0.684691 0.820054 0.600232 -0.116851
C230  C     C_R   0.629390 0.862287 0.585228 -0.066040
H21   H     H_    0.646594 0.006250 0.645718 0.191495
H22   H     H_    0.743079 0.930609 0.672429 0.205660
H23   H     H_    0.769665 0.812442 0.642738 0.166973
H24   H     H_    0.695995 0.768996 0.586841 0.211387
H25   H     H_    0.598721 0.842805 0.560502 0.168361
C231  C     C_R   0.384082 0.930756 0.399097 0.099104
C232  C     C_R   0.343749 0.954409 0.366879 -0.110867
C233  C     C_R   0.288854 0.911642 0.351642 -0.094128
C234  C     C_R   0.273914 0.844924 0.368325 -0.170218
C235  C     C_R   0.315042 0.820290 0.399708 -0.116697
C236  C     C_R   0.370374 0.862446 0.414746 -0.065362
H26   H     H_    0.353490 0.006429 0.354247 0.191449
H27   H     H_    0.256988 0.930899 0.327460 0.205673
H28   H     H_    0.230200 0.812745 0.357122 0.167136
H29   H     H_    0.303622 0.769259 0.413100 0.211186
H30   H     H_    0.400960 0.842927 0.439493 0.168361
C237  C     C_R   0.069365 0.615836 0.600889 0.099300
C238  C     C_R   0.045759 0.656252 0.633085 -0.110781
C239  C     C_R   0.088581 0.711138 0.648285 -0.094184
C240  C     C_R   0.155315 0.725968 0.631592 -0.170094
C241  C     C_R   0.179924 0.684722 0.600249 -0.116930
C242  C     C_R   0.137699 0.629418 0.585240 -0.066032
H31   H     H_    0.993729 0.646597 0.645722 0.191503
H32   H     H_    0.069355 0.743087 0.672442 0.205667
H33   H     H_    0.187523 0.769690 0.642759 0.166993
H34   H     H_    0.230981 0.696034 0.586861 0.211367
H35   H     H_    0.157186 0.598754 0.560514 0.168340
C243  C     C_R   0.069320 0.384142 0.399111 0.099235
C244  C     C_R   0.045701 0.343749 0.366908 -0.110817
C245  C     C_R   0.088520 0.288880 0.351689 -0.094177
C246  C     C_R   0.155261 0.274038 0.368370 -0.170118
C247  C     C_R   0.179872 0.315245 0.399729 -0.116812
C248  C     C_R   0.137653 0.370537 0.414755 -0.065865
H36   H     H_    0.993667 0.353419 0.354276 0.191491
H37   H     H_    0.069289 0.256958 0.327521 0.205635
H38   H     H_    0.187476 0.230338 0.357184 0.167040
H39   H     H_    0.230930 0.303918 0.413113 0.211267
H40   H     H_    0.157148 0.401179 0.439488 0.168315
C249  C     C_R   0.884180 0.569393 0.100879 0.099328
C250  C     C_R   0.843747 0.545799 0.133071 -0.110796
C251  C     C_R   0.788856 0.588630 0.148256 -0.094196
C252  C     C_R   0.774041 0.655360 0.131555 -0.170073
C253  C     C_R   0.815309 0.679961 0.100219 -0.116864
C254  C     C_R   0.870616 0.637726 0.085223 -0.066075
H41   H     H_    0.853389 0.493770 0.145713 0.191502
H42   H     H_    0.756888 0.569410 0.172406 0.205737
H43   H     H_    0.730312 0.687572 0.142709 0.166966
H44   H     H_    0.804010 0.731018 0.086825 0.211407
H45   H     H_    0.901293 0.657203 0.060500 0.168346
C255  C     C_R   0.115839 0.569354 0.899115 0.099289
C256  C     C_R   0.156247 0.545748 0.866916 -0.110779
C257  C     C_R   0.211130 0.588569 0.851715 -0.094195
C258  C     C_R   0.225967 0.655302 0.868409 -0.170073
C259  C     C_R   0.184732 0.679909 0.899756 -0.116871
C260  C     C_R   0.129430 0.637686 0.914767 -0.066016
H46   H     H_    0.146585 0.493719 0.854277 0.191494
H47   H     H_    0.243069 0.569344 0.827553 0.205642
H48   H     H_    0.269685 0.687512 0.857240 0.166982
H49   H     H_    0.196050 0.730966 0.913146 0.211353
H50   H     H_    0.098773 0.657174 0.939495 0.168331
C261  C     C_R   0.430581 0.884200 0.100867 0.099333
C262  C     C_R   0.454158 0.843743 0.133054 -0.110795
C263  C     C_R   0.411311 0.788852 0.148224 -0.094218
C264  C     C_R   0.344579 0.774065 0.131517 -0.170085
C265  C     C_R   0.319994 0.815361 0.100188 -0.116749
C266  C     C_R   0.362248 0.870664 0.085204 -0.066130
H51   H     H_    0.506190 0.853361 0.145700 0.191507
H52   H     H_    0.430520 0.756859 0.172367 0.205810
H53   H     H_    0.312356 0.730335 0.142660 0.166951
H54   H     H_    0.268934 0.804086 0.086789 0.211445
H55   H     H_    0.342784 0.901361 0.060484 0.168343
C267  C     C_R   0.430660 0.115850 0.899112 0.099283
C268  C     C_R   0.454270 0.156255 0.866913 -0.110798
C269  C     C_R   0.411453 0.211139 0.851709 -0.094186
C270  C     C_R   0.344721 0.225980 0.868400 -0.170071
C271  C     C_R   0.320111 0.184749 0.899748 -0.116894
C272  C     C_R   0.362330 0.129446 0.914762 -0.065997
H56   H     H_    0.506299 0.146589 0.854276 0.191496
H57   H     H_    0.430681 0.243076 0.827547 0.205649
H58   H     H_    0.312514 0.269698 0.857229 0.166994
H59   H     H_    0.269055 0.196072 0.913137 0.211341
H60   H     H_    0.342840 0.098792 0.939490 0.168328
C273  C     C_R   0.115798 0.430579 0.100869 0.099327
C274  C     C_R   0.156251 0.454151 0.133059 -0.110757
C275  C     C_R   0.211138 0.411300 0.148232 -0.094243
C276  C     C_R   0.225926 0.344570 0.131522 -0.170099
C277  C     C_R   0.184635 0.319990 0.100189 -0.116732
C278  C     C_R   0.129335 0.362247 0.085204 -0.066136
H61   H     H_    0.146632 0.506181 0.145708 0.191497
H62   H     H_    0.243125 0.430504 0.172379 0.205767
H63   H     H_    0.269651 0.312343 0.142667 0.166958
H64   H     H_    0.195911 0.268932 0.086789 0.211432
H65   H     H_    0.098642 0.342787 0.060482 0.168337
C279  C     C_R   0.884148 0.430662 0.899111 0.099273
C280  C     C_R   0.843748 0.454270 0.866909 -0.110784
C281  C     C_R   0.788863 0.411453 0.851704 -0.094187
C282  C     C_R   0.774014 0.344724 0.868398 -0.170094
C283  C     C_R   0.815239 0.320117 0.899751 -0.116871
C284  C     C_R   0.870544 0.362335 0.914764 -0.065959
H66   H     H_    0.853419 0.506296 0.854270 0.191489
H67   H     H_    0.756930 0.430679 0.827540 0.205654
H68   H     H_    0.730296 0.312517 0.857226 0.167008
H69   H     H_    0.803909 0.269065 0.913142 0.211333
H70   H     H_    0.901194 0.342847 0.939495 0.168327
C285  C     C_R   0.569388 0.115825 0.100881 0.099320
C286  C     C_R   0.545795 0.156253 0.133076 -0.110779
C287  C     C_R   0.588626 0.211143 0.148264 -0.094201
C288  C     C_R   0.655355 0.225962 0.131564 -0.170085
C289  C     C_R   0.679953 0.184700 0.100224 -0.116876
C290  C     C_R   0.637718 0.129395 0.085225 -0.066074
H71   H     H_    0.493768 0.146608 0.145719 0.191497
H72   H     H_    0.569409 0.243105 0.172418 0.205718
H73   H     H_    0.687568 0.269688 0.142721 0.166978
H74   H     H_    0.731009 0.196002 0.086831 0.211393
H75   H     H_    0.657194 0.098722 0.060500 0.168341
C291  C     C_R   0.569356 0.884161 0.899114 0.099289
C292  C     C_R   0.545752 0.843752 0.866914 -0.110772
C293  C     C_R   0.588577 0.788871 0.851712 -0.094197
C294  C     C_R   0.655308 0.774037 0.868407 -0.170085
C295  C     C_R   0.679912 0.815272 0.899756 -0.116864
C296  C     C_R   0.637686 0.870573 0.914767 -0.066015
H76   H     H_    0.493724 0.853412 0.854274 0.191492
H77   H     H_    0.569354 0.756930 0.827550 0.205646
H78   H     H_    0.687520 0.730321 0.857237 0.166988
H79   H     H_    0.730968 0.803956 0.913147 0.211347
H80   H     H_    0.657171 0.901230 0.939497 0.168330
C297  C     C_R   0.701633 0.999322 0.541771 0.091590
C298  C     C_R   0.717521 0.059447 0.564971 -0.126133
C299  C     C_R   0.783573 0.064373 0.584228 -0.082714
C300  C     C_R   0.834404 0.009572 0.580208 -0.134625
C301  C     C_R   0.819306 0.949911 0.556824 -0.133033
C302  C     C_R   0.753206 0.944610 0.537698 -0.110980
H81   H     H_    0.678617 0.102203 0.568038 0.214130
H82   H     H_    0.795504 0.110832 0.602093 0.174618
H83   H     H_    0.885626 0.013534 0.595029 0.136125
H84   H     H_    0.858793 0.907801 0.553419 0.136095
H85   H     H_    0.742044 0.897950 0.519795 0.138950
C303  C     C_R   0.298338 0.999465 0.458231 0.091567
C304  C     C_R   0.282500 0.059602 0.435032 -0.126061
C305  C     C_R   0.216458 0.064573 0.415768 -0.082601
C306  C     C_R   0.165591 0.009802 0.419777 -0.134657
C307  C     C_R   0.180638 0.950133 0.443163 -0.133037
C308  C     C_R   0.246724 0.944788 0.462299 -0.111169
H86   H     H_    0.321435 0.102333 0.431970 0.214045
H87   H     H_    0.204563 0.111042 0.397906 0.174644
H88   H     H_    0.114380 0.013797 0.404948 0.136122
H89   H     H_    0.141123 0.908046 0.446559 0.136071
H90   H     H_    0.257848 0.898119 0.480200 0.138889
C309  C     C_R   0.000671 0.701651 0.541774 0.091587
C310  C     C_R   0.940539 0.717529 0.564968 -0.126118
C311  C     C_R   0.935602 0.783578 0.584228 -0.082705
C312  C     C_R   0.990400 0.834415 0.580217 -0.134627
C313  C     C_R   0.050068 0.819326 0.556838 -0.133027
C314  C     C_R   0.055380 0.753229 0.537709 -0.110985
H91   H     H_    0.897785 0.678621 0.568029 0.214114
H92   H     H_    0.889138 0.795502 0.602088 0.174615
H93   H     H_    0.986430 0.885634 0.595041 0.136134
H94   H     H_    0.092176 0.858818 0.553440 0.136085
H95   H     H_    0.102046 0.742074 0.519812 0.138930
C315  C     C_R   0.000626 0.298354 0.458233 0.091580
C316  C     C_R   0.940501 0.282475 0.435032 -0.126106
C317  C     C_R   0.935565 0.216420 0.415777 -0.082676
C318  C     C_R   0.990359 0.165582 0.419798 -0.134650
C319  C     C_R   0.050020 0.180673 0.443183 -0.133057
C320  C     C_R   0.055331 0.246773 0.462308 -0.111052
H96   H     H_    0.897753 0.321386 0.431963 0.214131
H97   H     H_    0.889105 0.204494 0.397913 0.174637
H98   H     H_    0.986390 0.114359 0.404978 0.136100
H99   H     H_    0.092123 0.141180 0.446590 0.136109
H100  H     H_    0.101990 0.257930 0.480211 0.138920
C321  C     C_R   0.298345 0.000695 0.541770 0.091597
C322  C     C_R   0.282463 0.940562 0.564963 -0.126142
C323  C     C_R   0.216415 0.935629 0.584223 -0.082733
C324  C     C_R   0.165583 0.990431 0.580212 -0.134623
C325  C     C_R   0.180675 0.050100 0.556834 -0.133025
C326  C     C_R   0.246771 0.055409 0.537706 -0.110988
H101  H     H_    0.321367 0.897804 0.568023 0.214102
H102  H     H_    0.204489 0.889165 0.602083 0.174613
H103  H     H_    0.114365 0.986464 0.595036 0.136131
H104  H     H_    0.141187 0.092211 0.553436 0.136092
H105  H     H_    0.257929 0.102075 0.519809 0.138928
C327  C     C_R   0.701641 0.000641 0.458239 0.091564
C328  C     C_R   0.717530 0.940516 0.435041 -0.126089
C329  C     C_R   0.783587 0.935583 0.415791 -0.082694
C330  C     C_R   0.834421 0.990382 0.419814 -0.134677
C331  C     C_R   0.819321 0.050045 0.443196 -0.133007
C332  C     C_R   0.753217 0.055351 0.462316 -0.111036
H106  H     H_    0.678621 0.897765 0.431970 0.214159
H107  H     H_    0.795519 0.889122 0.397928 0.174640
H108  H     H_    0.885645 0.986416 0.404997 0.136097
H109  H     H_    0.858810 0.092154 0.446603 0.136097
H110  H     H_    0.742054 0.102012 0.480217 0.138929
C333  C     C_R   0.999313 0.298357 0.541767 0.091602
C334  C     C_R   0.059435 0.282469 0.564968 -0.126143
C335  C     C_R   0.064356 0.216417 0.584226 -0.082743
C336  C     C_R   0.009553 0.165588 0.580205 -0.134622
C337  C     C_R   0.949896 0.180686 0.556819 -0.133025
C338  C     C_R   0.944599 0.246786 0.537692 -0.110991
H111  H     H_    0.102193 0.321371 0.568036 0.214120
H112  H     H_    0.110811 0.204486 0.602092 0.174622
H113  H     H_    0.013511 0.114367 0.595027 0.136122
H114  H     H_    0.907783 0.141201 0.553414 0.136095
H115  H     H_    0.897942 0.257949 0.519789 0.138939
C339  C     C_R   0.999410 0.701659 0.458238 0.091594
C340  C     C_R   0.059549 0.717530 0.435048 -0.126129
C341  C     C_R   0.064503 0.783583 0.415794 -0.082681
C342  C     C_R   0.009712 0.834428 0.419804 -0.134669
C343  C     C_R   0.950038 0.819347 0.443180 -0.132991
C344  C     C_R   0.944712 0.753249 0.462305 -0.111064
H116  H     H_    0.102294 0.678613 0.431985 0.214052
H117  H     H_    0.110974 0.795503 0.397938 0.174595
H118  H     H_    0.013693 0.885648 0.404983 0.136101
H119  H     H_    0.907935 0.858845 0.446577 0.136077
H120  H     H_    0.898042 0.742100 0.480201 0.138918
C345  C     C_R   0.201641 0.499294 0.041768 0.091617
C346  C     C_R   0.217543 0.559404 0.064975 -0.126158
C347  C     C_R   0.283600 0.564310 0.084230 -0.082763
C348  C     C_R   0.334421 0.509503 0.080198 -0.134600
C349  C     C_R   0.319308 0.449855 0.056807 -0.133056
C350  C     C_R   0.253202 0.444573 0.037685 -0.110970
H121  H     H_    0.178648 0.602166 0.068050 0.214159
H122  H     H_    0.295542 0.610757 0.102100 0.174611
H123  H     H_    0.385647 0.513450 0.095016 0.136131
H124  H     H_    0.358787 0.407739 0.053394 0.136109
H125  H     H_    0.242028 0.397924 0.019777 0.138940
C351  C     C_R   0.798347 0.499366 0.958230 0.091597
C352  C     C_R   0.782467 0.559487 0.935027 -0.126117
C353  C     C_R   0.716414 0.564416 0.915770 -0.082701
C354  C     C_R   0.665578 0.509620 0.919792 -0.134628
C355  C     C_R   0.680668 0.449964 0.943180 -0.133036
C356  C     C_R   0.746767 0.444661 0.962307 -0.111033
H126  H     H_    0.821375 0.602238 0.931958 0.214116
H127  H     H_    0.704488 0.610871 0.897903 0.174621
H128  H     H_    0.614357 0.513584 0.904970 0.136119
H129  H     H_    0.641177 0.407858 0.946586 0.136095
H130  H     H_    0.757924 0.398005 0.980212 0.138925
C357  C     C_R   0.500685 0.201653 0.041770 0.091617
C358  C     C_R   0.440567 0.217541 0.064973 -0.126158
C359  C     C_R   0.435649 0.283594 0.084231 -0.082747
C360  C     C_R   0.490450 0.334425 0.080208 -0.134603
C361  C     C_R   0.550103 0.319326 0.056820 -0.133045
C362  C     C_R   0.555398 0.253225 0.037693 -0.110988
H131  H     H_    0.397810 0.178639 0.068042 0.214115
H132  H     H_    0.389197 0.295526 0.102098 0.174615
H133  H     H_    0.486493 0.385647 0.095029 0.136134
H134  H     H_    0.592214 0.358812 0.053413 0.136099
H135  H     H_    0.602052 0.242061 0.019789 0.138936
C363  C     C_R   0.500656 0.798355 0.958231 0.091600
C364  C     C_R   0.440539 0.782466 0.935026 -0.126129
C365  C     C_R   0.435616 0.716409 0.915771 -0.082711
C366  C     C_R   0.490414 0.665577 0.919799 -0.134624
C367  C     C_R   0.550067 0.680677 0.943188 -0.133042
C368  C     C_R   0.555365 0.746780 0.962312 -0.111017
H136  H     H_    0.397785 0.821371 0.931953 0.214133
H137  H     H_    0.389163 0.704476 0.897904 0.174621
H138  H     H_    0.486455 0.614352 0.904980 0.136111
H139  H     H_    0.592176 0.641189 0.946599 0.136102
H140  H     H_    0.602018 0.757944 0.980219 0.138933
C369  C     C_R   0.798350 0.500695 0.041765 0.091615
C370  C     C_R   0.782459 0.440576 0.064967 -0.126159
C371  C     C_R   0.716406 0.435659 0.084224 -0.082756
C372  C     C_R   0.665579 0.490462 0.080201 -0.134609
C373  C     C_R   0.680680 0.550117 0.056814 -0.133032
C374  C     C_R   0.746780 0.555410 0.037689 -0.110983
H141  H     H_    0.821359 0.397817 0.068037 0.214118
H142  H     H_    0.704473 0.389205 0.102091 0.174614
H143  H     H_    0.614357 0.486506 0.095022 0.136133
H144  H     H_    0.641196 0.592230 0.053408 0.136098
H145  H     H_    0.757946 0.602065 0.019785 0.138936
C375  C     C_R   0.201645 0.500661 0.958235 0.091602
C376  C     C_R   0.217535 0.440545 0.935030 -0.126131
C377  C     C_R   0.283591 0.435626 0.915777 -0.082720
C378  C     C_R   0.334421 0.490426 0.919806 -0.134627
C379  C     C_R   0.319320 0.550079 0.943195 -0.133031
C380  C     C_R   0.253217 0.555372 0.962318 -0.111018
H146  H     H_    0.178632 0.397790 0.931956 0.214132
H147  H     H_    0.295525 0.389173 0.897909 0.174622
H148  H     H_    0.385645 0.486470 0.904987 0.136108
H149  H     H_    0.358806 0.592189 0.946606 0.136100
H150  H     H_    0.242053 0.602025 0.980225 0.138932
C381  C     C_R   0.499293 0.798358 0.041764 0.091617
C382  C     C_R   0.559405 0.782456 0.064969 -0.126162
C383  C     C_R   0.564311 0.716399 0.084223 -0.082774
C384  C     C_R   0.509503 0.665577 0.080193 -0.134610
C385  C     C_R   0.449854 0.680690 0.056804 -0.133040
C386  C     C_R   0.444572 0.746796 0.037682 -0.110966
H151  H     H_    0.602167 0.821351 0.068043 0.214154
H152  H     H_    0.610760 0.704457 0.102092 0.174614
H153  H     H_    0.513451 0.614352 0.095012 0.136132
H154  H     H_    0.407737 0.641211 0.053393 0.136106
H155  H     H_    0.397922 0.757970 0.019775 0.138940
C387  C     C_R   0.499353 0.201657 0.958235 0.091604
C388  C     C_R   0.559473 0.217543 0.935033 -0.126131
C389  C     C_R   0.564396 0.283597 0.915777 -0.082723
C390  C     C_R   0.509597 0.334429 0.919800 -0.134628
C391  C     C_R   0.449942 0.319332 0.943187 -0.133024
C392  C     C_R   0.444644 0.253232 0.962312 -0.111024
H156  H     H_    0.602226 0.178638 0.931962 0.214112
H157  H     H_    0.610851 0.295527 0.897911 0.174614
H158  H     H_    0.513557 0.385651 0.904980 0.136113
H159  H     H_    0.407833 0.358820 0.946594 0.136094
H160  H     H_    0.397988 0.242070 0.980216 0.138924

loop_
_geom_bond_atom_site_label_1
_geom_bond_atom_site_label_2
_geom_bond_distance
_ccdc_geom_bond_type
C51   C151  1.415483 A    
C56   C152  1.415503 A    
C298  C299  1.397871 A    
C67   C185  1.477917 S    
C2    C5    1.413527 A    
O12   C60   1.288314 A    
N53   O157  1.301380 A    
C86   N6    1.436001 S    
C220  C221  1.396126 A    
C107  C139  1.415446 A    
C48   C148  1.415533 A    
C20   C219  1.488435 S    
C351  C352  1.403605 A    
C15   C55   1.423493 A    
Zn4   O4    1.965202 S    
C318  C319  1.397305 A    
C332  H110  1.082918 S    
C37   C63   1.452717 S    
Zn13  O28   1.965727 S    
N57   O165  1.300700 A    
C327  C328  1.403592 A    
O40   C74   1.292088 A    
C100  C181  1.417877 A    
C8    C339  1.490467 S    
Zn8   O37   1.965738 S    
N49   O149  1.300910 A    
C100  N20   1.436061 S    
C359  H132  1.082022 S    
C73   C199  1.477929 S    
C184  C186  1.438549 A    
N6    O63   1.301555 A    
C267  C272  1.402913 A    
C43   C147  1.415500 A    
C278  H65   1.083330 S    
C268  H56   1.075673 S    
C288  C289  1.396481 A    
C116  C125  1.408859 A    
O8    C60   1.288315 A    
C93   C156  1.426022 A    
C208  H6    1.075681 S    
C176  C177  1.401171 A    
C349  C350  1.397014 A    
C240  C241  1.396486 A    
C270  C271  1.396490 A    
C203  C204  1.394673 A    
Zn3   O42   1.965742 S    
C333  C338  1.406210 A    
O50   C72   1.291929 A    
C133  N43   1.431784 S    
O6    C58   1.288335 A    
C132  N46   1.438955 S    
C229  H24   1.075773 S    
C241  C242  1.393106 A    
C204  C205  1.396491 A    
N61   O174  1.300903 A    
C304  C305  1.397872 A    
C341  H117  1.082026 S    
N60   O172  1.299770 A    
C321  C326  1.406213 A    
N7    O66   1.301608 A    
C85   C164  1.426159 A    
C49   C149  1.415474 A    
N20   O91   1.301565 A    
C15   C381  1.490465 S    
C19   C47   1.415951 A    
C273  C278  1.402925 A    
C39   C61   1.452720 S    
C288  H73   1.080488 S    
C29   C37   1.406013 A    
C125  N51   1.431636 S    
C213  C218  1.402916 A    
C28   C40   1.406016 A    
C27   C261  1.488394 S    
C225  C230  1.402914 A    
N49   O150  1.300700 A    
N60   O171  1.300322 A    
C283  H69   1.075770 S    
C167  C199  1.420606 A    
C144  N34   1.438912 S    
C108  N28   1.436090 S    
N34   O120  1.299555 A    
C160  C161  1.401163 A    
C115  N61   1.431740 S    
C228  H23   1.080490 S    
C291  C292  1.404801 A    
C153  C185  1.420525 A    
C322  H101  1.080919 S    
C154  C186  1.438480 A    
C237  C242  1.402911 A    
C207  C212  1.402900 A    
C81   C168  1.426147 A    
C222  H18   1.080521 S    
Zn1   O40   1.965744 S    
Zn15  O22   1.965739 S    
O9    C57   1.288326 A    
Zn6   O43   1.965726 S    
O21   C65   1.287889 A    
C276  C277  1.396486 A    
N42   O136  1.299565 A    
Zn6   O15   1.933983 S    
O11   C59   1.288322 A    
C233  H27   1.079540 S    
N23   O98   1.301607 A    
O19   C63   1.288334 A    
C282  H68   1.080497 S    
C231  C232  1.404811 A    
N16   O83   1.301566 A    
C328  C329  1.397870 A    
C83   C166  1.426148 A    
C85   N5    1.439189 S    
C387  C392  1.406213 A    
O15   C63   1.288331 A    
N48   O147  1.300358 A    
C290  H75   1.083323 S    
C122  N56   1.438930 S    
N40   O132  1.299556 A    
C156  C165  1.401165 A    
C135  N41   1.431758 S    
Zn4   O46   1.965720 S    
C264  C265  1.396490 A    
Zn14  O27   1.965726 S    
Zn12  O30   1.965720 S    
C316  C317  1.397869 A    
C137  N39   1.431727 S    
C277  H64   1.075792 S    
N36   O123  1.300357 A    
C334  H111  1.080914 S    
C257  C258  1.394675 A    
C384  C385  1.397309 A    
C47   C147  1.415509 A    
C216  H13   1.080493 S    
C207  C208  1.404798 A    
C218  H15   1.083335 S    
C69   C187  1.477926 S    
C21   C225  1.488442 S    
C19   C35   1.406003 A    
C26   C54   1.415943 A    
C6    C327  1.490463 S    
C255  C256  1.404801 A    
C172  C198  1.438533 A    
C262  H51   1.075686 S    
C181  C187  1.420548 A    
C271  H59   1.075763 S    
N1    O54   1.301609 A    
C153  C168  1.401170 A    
O35   C79   1.287838 A    
N41   O133  1.300702 A    
Zn1   O47   1.965746 S    
C239  H32   1.079541 S    
C159  C162  1.401171 A    
Zn2   O39   1.965745 S    
Zn3   O45   1.965721 S    
C210  C211  1.396484 A    
C156  C188  1.438461 A    
C117  C124  1.408820 A    
C349  H124  1.080645 S    
N58   O168  1.299624 A    
C360  C361  1.397303 A    
C25   C53   1.415957 A    
C24   C243  1.488454 S    
C87   C162  1.426144 A    
N51   O153  1.300961 A    
C21   C33   1.405996 A    
C244  H36   1.075684 S    
O38   C76   1.292072 A    
C251  C252  1.394676 A    
C132  C141  1.408825 A    
Zn15  O10   1.934003 S    
C23   C35   1.406009 A    
C269  C270  1.394677 A    
C1    C41   1.423482 A    
C260  H50   1.083326 S    
C233  C234  1.394685 A    
C3    C43   1.423489 A    
C287  C288  1.394670 A    
Zn3   O14   1.933985 S    
C352  H126  1.080913 S    
C30   C38   1.406019 A    
C321  C322  1.403611 A    
C169  C199  1.420523 A    
N50   O151  1.300362 A    
C108  C140  1.411268 A    
Zn5   O44   1.965727 S    
C170  C200  1.438529 A    
C149  C150  1.401766 A    
C250  H41   1.075680 S    
C87   C119  1.415517 A    
N33   O117  1.300896 A    
C28   C267  1.488445 S    
C1    C297  1.490462 S    
C368  H140  1.082918 S    
C247  C248  1.393112 A    
C104  C177  1.417880 A    
C5    C321  1.490462 S    
C360  H133  1.082376 S    
C133  C140  1.408793 A    
C211  H9    1.075749 S    
C388  H156  1.080913 S    
C295  H79   1.075770 S    
C29   C49   1.415939 A    
C216  C217  1.396492 A    
O34   C78   1.292073 A    
C305  C306  1.397842 A    
C142  N36   1.438905 S    
C31   C51   1.415960 A    
N23   O97   1.300482 A    
C373  H144  1.080649 S    
C94   C155  1.417864 A    
C274  C275  1.396109 A    
C173  C195  1.420564 A    
N31   O113  1.300480 A    
C106  C138  1.411274 A    
C174  C196  1.438511 A    
C248  H40   1.083327 S    
Zn12  O1    1.965202 S    
C311  C312  1.397840 A    
N16   O84   1.299551 A    
C82   C167  1.417924 A    
N38   O127  1.300359 A    
O46   C68   1.292026 A    
C302  H85   1.082919 S    
O22   C66   1.292112 A    
C31   C285  1.488423 S    
C304  H86   1.080926 S    
C280  C281  1.396117 A    
C86   C163  1.418106 A    
C357  C362  1.406207 A    
C46   C146  1.415528 A    
C353  H127  1.082031 S    
C110  N30   1.436092 S    
C282  C283  1.396488 A    
C300  C301  1.397303 A    
N39   O130  1.300702 A    
N45   O141  1.300703 A    
C209  C210  1.394684 A    
N55   O162  1.300685 A    
C277  C278  1.393106 A    
C92   C157  1.417878 A    
C86   C118  1.411558 A    
C261  C266  1.402925 A    
C246  C247  1.396482 A    
C29   C273  1.488402 S    
C264  H53   1.080486 S    
C3    C8    1.413523 A    
C389  C390  1.397843 A    
C42   C146  1.415539 A    
C74   C200  1.489628 S    
C387  C388  1.403603 A    
C111  C170  1.426133 A    
C19   C213  1.488441 S    
C90   C122  1.411304 A    
C98   N18   1.436059 S    
C250  C251  1.396111 A    
N32   O115  1.301567 A    
C89   N9    1.439248 S    
C292  C293  1.396115 A    
C129  N47   1.431753 S    
C285  C290  1.402918 A    
C356  H130  1.082925 S    
C115  C126  1.408824 A    
C293  C294  1.394675 A    
C110  C142  1.411280 A    
C104  C136  1.411333 A    
C369  C370  1.403609 A    
C215  H12   1.079548 S    
C112  C144  1.411281 A    
C253  C254  1.393108 A    
C299  H82   1.082027 S    
C22   C34   1.406032 A    
C89   C160  1.426041 A    
C382  H151  1.080905 S    
C202  H1    1.075676 S    
N55   O161  1.300926 A    
N13   O78   1.301597 A    
Zn5   O1    1.965194 S    
C124  N54   1.438922 S    
Zn9   O4    1.965152 S    
C270  H58   1.080499 S    
Zn10  O3    1.965156 S    
Zn11  O26   1.965742 S    
C272  H60   1.083330 S    
C40   C62   1.452665 S    
C318  H98   1.082377 S    
O36   C80   1.292080 A    
O39   C73   1.287949 A    
O26   C70   1.292154 A    
C354  H128  1.082379 S    
Zn14  O7    1.933983 S    
C384  H153  1.082380 S    
C114  N64   1.439025 S    
C359  C360  1.397840 A    
C234  C235  1.396472 A    
N21   O94   1.301612 A    
N28   O107  1.301563 A    
C91   N11   1.439404 S    
O30   C74   1.292064 A    
C329  C330  1.397842 A    
C214  C215  1.396115 A    
C20   C36   1.406003 A    
C168  C200  1.438548 A    
N14   O80   1.299551 A    
C279  C284  1.402918 A    
C30   C50   1.415952 A    
C104  N24   1.436062 S    
C363  C368  1.406208 A    
N25   O102  1.301607 A    
C182  C188  1.438544 A    
Zn5   O16   1.933983 S    
N12   O76   1.299547 A    
C32   C40   1.406012 A    
C157  C164  1.401170 A    
N59   O170  1.300903 A    
N64   O179  1.300357 A    
C93   C125  1.415382 A    
C240  H33   1.080490 S    
C14   C54   1.423501 A    
C382  C383  1.397872 A    
C5    C45   1.423491 A    
C12   C52   1.423502 A    
N57   O166  1.300899 A    
O10   C58   1.288314 A    
C365  H137  1.082029 S    
N2    O55   1.301558 A    
C253  H44   1.075785 S    
C383  C384  1.397843 A    
C130  N48   1.438949 S    
C238  C239  1.396113 A    
C13   C369  1.490461 S    
C391  C392  1.397016 A    
C301  H84   1.080645 S    
N19   O90   1.301611 A    
N18   O88   1.299548 A    
C378  C379  1.397304 A    
N46   O143  1.300355 A    
C294  H78   1.080493 S    
C77   C195  1.477916 S    
N9    O69   1.300484 A    
C275  C276  1.394671 A    
C4    C7    1.413515 A    
Zn3   O3    1.965202 S    
C357  C358  1.403607 A    
C175  C178  1.401166 A    
C283  C284  1.393114 A    
N30   O112  1.299547 A    
C239  C240  1.394671 A    
Zn4   O41   1.965744 S    
C88   N8    1.436021 S    
C256  C257  1.396116 A    
Zn9   O24   1.965744 S    
C347  H122  1.082027 S    
C2    C303  1.490468 S    
Zn10  O23   1.965745 S    
C355  H129  1.080645 S    
C267  C268  1.404801 A    
O28   C72   1.292216 A    
C180  C190  1.438496 A    
Zn12  O25   1.965744 S    
C315  C320  1.406205 A    
O29   C73   1.287837 A    
Zn7   O49   1.965738 S    
C8    C48   1.423515 A    
N24   O100  1.299550 A    
C134  C139  1.408813 A    
N15   O82   1.301599 A    
C236  H30   1.083337 S    
C10   C351  1.490457 S    
N52   O155  1.300361 A    
C112  N32   1.436085 S    
N44   O140  1.299594 A    
C14   C375  1.490459 S    
C276  H63   1.080483 S    
C18   C34   1.405993 A    
C285  C286  1.404789 A    
N54   O159  1.300354 A    
C388  C389  1.397871 A    
N63   O178  1.300903 A    
C337  H114  1.080647 S    
C27   C55   1.415937 A    
C226  H21   1.075676 S    
C55   C151  1.415477 A    
C265  H54   1.075794 S    
C164  C196  1.438542 A    
Zn9   O31   1.965746 S    
C53   C149  1.415486 A    
C377  H147  1.082028 S    
Zn10  O32   1.965745 S    
C10   C50   1.423501 A    
Zn7   O18   1.934003 S    
C351  C356  1.406210 A    
N62   O175  1.300360 A    
Zn11  O29   1.965721 S    
O14   C62   1.288327 A    
C364  C365  1.397871 A    
C160  C192  1.438452 A    
C83   C115  1.415519 A    
N18   O87   1.301563 A    
C161  C193  1.420671 A    
N5    O62   1.301609 A    
C323  H102  1.082035 S    
C23   C237  1.488441 S    
C223  H19   1.075730 S    
C121  N55   1.431681 S    
C312  H93   1.082378 S    
N24   O99   1.301566 A    
N35   O121  1.300904 A    
N6    O64   1.299558 A    
C309  C314  1.406209 A    
C372  H143  1.082378 S    
C232  H26   1.075691 S    
C116  N62   1.439081 S    
C294  C295  1.396485 A    
Zn2   O2    1.965156 S    
C227  H22   1.079542 S    
C203  H2    1.079547 S    
C342  H118  1.082381 S    
N44   O139  1.300387 A    
C136  N42   1.438952 S    
C33   C59   1.452686 S    
C275  H62   1.079513 S    
C44   C148  1.415524 A    
C101  C180  1.426128 A    
C35   C57   1.452679 S    
N37   O126  1.300674 A    
C11   C16   1.413535 A    
C165  C197  1.420653 A    
C265  C266  1.393108 A    
C6    C46   1.423514 A    
C176  C194  1.438530 A    
C136  C137  1.408830 A    
N2    O56   1.299550 A    
N61   O173  1.300702 A    
C140  N38   1.438921 S    
C244  C245  1.396119 A    
O44   C78   1.292082 A    
O31   C75   1.287802 A    
C331  H109  1.080645 S    
N20   O92   1.299550 A    
C114  C127  1.408846 A    
C175  C193  1.420530 A    
C231  C236  1.402927 A    
C376  C377  1.397871 A    
C92   N12   1.436072 S    
C326  H105  1.082925 S    
C345  C350  1.406207 A    
C228  C229  1.396489 A    
Zn16  O9    1.934003 S    
C16   C387  1.490462 S    
C324  H103  1.082375 S    
C107  C174  1.426111 A    
C287  H72   1.079524 S    
C162  C194  1.438540 A    
O13   C61   1.288343 A    
C235  H29   1.075754 S    
C97   C184  1.426161 A    
C289  H74   1.075777 S    
C102  N22   1.436071 S    
C361  C362  1.397013 A    
C323  C324  1.397842 A    
C76   C194  1.489628 S    
C158  C190  1.438426 A    
Zn7   O38   1.965739 S    
C7    C333  1.490467 S    
N56   O163  1.300357 A    
C134  N44   1.438928 S    
C209  H7    1.079541 S    
C82   C114  1.411417 A    
N29   O109  1.300479 A    
C364  H136  1.080910 S    
C324  C325  1.397307 A    
C335  H112  1.082032 S    
C243  C244  1.404798 A    
C379  H149  1.080648 S    
C99   C182  1.426154 A    
O41   C79   1.287977 A    
Zn8   O50   1.965740 S    
O42   C80   1.292098 A    
C245  C246  1.394680 A    
N51   O154  1.300710 A    
C166  C198  1.438547 A    
C72   C190  1.489579 S    
C305  H87   1.082025 S    
Zn13  O35   1.965747 S    
C229  C230  1.393109 A    
C242  H35   1.083323 S    
C126  N52   1.438936 S    
C101  N21   1.439178 S    
C206  H5    1.083329 S    
Zn15  O33   1.965738 S    
O48   C66   1.291995 A    
N58   O167  1.300360 A    
N5    O61   1.300477 A    
O51   C69   1.287888 A    
N8    O67   1.301561 A    
Zn8   O4    1.965170 S    
C91   C158  1.425936 A    
C80   C198  1.489640 S    
C249  C254  1.402924 A    
N17   O86   1.301609 A    
C348  H123  1.082375 S    
C110  C171  1.417836 A    
Zn13  O8    1.933983 S    
C163  C195  1.420714 A    
N29   O110  1.301608 A    
C210  H8    1.080505 S    
C4    C44   1.423500 A    
C96   C153  1.417860 A    
C26   C38   1.406011 A    
C370  H141  1.080914 S    
C379  C380  1.397012 A    
C13   C53   1.423495 A    
C50   C150  1.415501 A    
C381  C382  1.403601 A    
C169  C184  1.401174 A    
C78   C196  1.489630 S    
C217  H14   1.075773 S    
C30   C279  1.488449 S    
Zn15  O2    1.965167 S    
C355  C356  1.397014 A    
C284  H70   1.083333 S    
C11   C357  1.490458 S    
C232  C233  1.396126 A    
N10   O72   1.299548 A    
C336  C337  1.397307 A    
C261  C262  1.404781 A    
N1    O53   1.300485 A    
C205  H4    1.075770 S    
C81   C113  1.415524 A    
N53   O158  1.300651 A    
C340  C341  1.397874 A    
C389  H157  1.082028 S    
C70   C188  1.489615 S    
O25   C69   1.287912 A    
C211  C212  1.393110 A    
C131  N45   1.431763 S    
C99   N19   1.439173 S    
N14   O79   1.301566 A    
C96   N16   1.436074 S    
C88   C120  1.411483 A    
C252  H43   1.080489 S    
C135  C138  1.408812 A    
C18   C207  1.488446 S    
C154  C167  1.401159 A    
C390  C391  1.397303 A    
Zn6   O52   1.965748 S    
C293  H77   1.079543 S    
C111  N31   1.439198 S    
C369  C374  1.406211 A    
C119  C122  1.408819 A    
C91   C123  1.415263 A    
C350  H125  1.082920 S    
C201  C206  1.402915 A    
C307  C308  1.397006 A    
C92   C124  1.411308 A    
C371  H142  1.082032 S    
C339  C340  1.403605 A    
C151  C152  1.401766 A    
C202  C203  1.396114 A    
C24   C44   1.415946 A    
C84   C165  1.417967 A    
C367  C368  1.397012 A    
C296  H80   1.083324 S    
C93   N13   1.439269 S    
C219  C224  1.402893 A    
C258  C259  1.396486 A    
C262  C263  1.396108 A    
C263  H52   1.079516 S    
O20   C64   1.288316 A    
Zn11  O6    1.933985 S    
N11   O73   1.300498 A    
C120  N58   1.439058 S    
C303  C308  1.406220 A    
C155  C166  1.401176 A    
C97   C129  1.415536 A    
C24   C36   1.405996 A    
C354  C355  1.397304 A    
C145  C146  1.401797 A    
C52   C152  1.415504 A    
C22   C231  1.488512 S    
C96   C128  1.411303 A    
C366  C367  1.397304 A    
C32   C291  1.488450 S    
C12   C363  1.490456 S    
C381  C386  1.406210 A    
N28   O108  1.299556 A    
C378  H148  1.082374 S    
C214  H11   1.075675 S    
C27   C39   1.406006 A    
C308  H90   1.082925 S    
C247  H39   1.075756 S    
C386  H155  1.082923 S    
C366  H138  1.082376 S    
C221  H17   1.079548 S    
C102  C179  1.417862 A    
C90   N10   1.436067 S    
C362  H135  1.082916 S    
Zn16  O34   1.965740 S    
C363  C364  1.403601 A    
C82   N2    1.436030 S    
C352  C353  1.397872 A    
N27   O105  1.300465 A    
C365  C366  1.397843 A    
N38   O128  1.299561 A    
C319  C320  1.397002 A    
C340  H116  1.080914 S    
C95   C154  1.426068 A    
N63   O177  1.300702 A    
C9    C14   1.413523 A    
O49   C71   1.287873 A    
C314  H95   1.082916 S    
C100  C132  1.411335 A    
C385  H154  1.080650 S    
C128  N50   1.438934 S    
C374  H145  1.082927 S    
C12   C15   1.413524 A    
C345  C346  1.403598 A    
C257  H47   1.079546 S    
N46   O144  1.299563 A    
N42   O135  1.300358 A    
N40   O131  1.300360 A    
C307  H89   1.080643 S    
C105  N25   1.439206 S    
N43   O137  1.300706 A    
C392  H160  1.082921 S    
O37   C75   1.287980 A    
C31   C39   1.406027 A    
C83   N3    1.439192 S    
N34   O119  1.300359 A    
C1    C6    1.413514 A    
C346  H121  1.080907 S    
C131  C142  1.408813 A    
C141  N35   1.431725 S    
C241  H34   1.075764 S    
C226  C227  1.396115 A    
C81   N1    1.439194 S    
C129  C144  1.408819 A    
Zn12  O5    1.933985 S    
C330  H108  1.082375 S    
C317  C318  1.397842 A    
C105  C176  1.426124 A    
C373  C374  1.397016 A    
N32   O116  1.299549 A    
C230  H25   1.083328 S    
C255  C260  1.402913 A    
C71   C189  1.477920 S    
C17   C45   1.415963 A    
C279  C280  1.404802 A    
C313  H94   1.080642 S    
C370  C371  1.397871 A    
C246  H38   1.080501 S    
C147  C148  1.401790 A    
C103  C135  1.415535 A    
C281  C282  1.394677 A    
C177  C191  1.420551 A    
C98   C183  1.417870 A    
N36   O124  1.299557 A    
C178  C192  1.438535 A    
Zn2   O19   1.934003 S    
C38   C64   1.452665 S    
C101  C133  1.415506 A    
C337  C338  1.397017 A    
Zn6   O2    1.965194 S    
C391  H159  1.080648 S    
C375  C376  1.403600 A    
C2    C42   1.423514 A    
C335  C336  1.397844 A    
C179  C189  1.420561 A    
N41   O134  1.300907 A    
Zn14  O36   1.965748 S    
C377  C378  1.397842 A    
O16   C64   1.288317 A    
C105  C137  1.415496 A    
N19   O89   1.300481 A    
C107  N27   1.439208 S    
Zn8   O17   1.934003 S    
C256  H46   1.075673 S    
N50   O152  1.299556 A    
C259  H49   1.075767 S    
C118  N60   1.439198 S    
C97   N17   1.439182 S    
N15   O81   1.300478 A    
C204  H3    1.080491 S    
C21   C41   1.415948 A    
C170  C183  1.401169 A    
C173  C180  1.401184 A    
N21   O93   1.300482 A    
C16   C56   1.423505 A    
C109  N29   1.439206 S    
C94   N14   1.436075 S    
C309  C310  1.403606 A    
C45   C145  1.415500 A    
C311  H92   1.082025 S    
C98   C130  1.411322 A    
C273  C274  1.404782 A    
Zn1   O1    1.965152 S    
C227  C228  1.394673 A    
C347  C348  1.397841 A    
C342  C343  1.397300 A    
O43   C77   1.287975 A    
C225  C226  1.404799 A    
C249  C250  1.404789 A    
N64   O180  1.299592 A    
C376  H146  1.080908 S    
N13   O77   1.300490 A    
C213  C214  1.404805 A    
C325  H104  1.080642 S    
C68   C186  1.489612 S    
N3    O58   1.301610 A    
N22   O96   1.299547 A    
C258  H48   1.080495 S    
C41   C145  1.415507 A    
Zn1   O20   1.934003 S    
N33   O118  1.300699 A    
C172  C181  1.401174 A    
C286  H71   1.075674 S    
Zn5   O51   1.965747 S    
C183  C185  1.420547 A    
C322  C323  1.397869 A    
C109  C141  1.415489 A    
C158  C163  1.401168 A    
C113  N63   1.431736 S    
C111  C143  1.415498 A    
C390  H158  1.082379 S    
C358  C359  1.397869 A    
C171  C197  1.420540 A    
C222  C223  1.396490 A    
C23   C43   1.415955 A    
N22   O95   1.301569 A    
C113  C128  1.408826 A    
Zn16  O21   1.965738 S    
C221  C222  1.394688 A    
C297  C302  1.406208 A    
C299  C300  1.397841 A    
O18   C62   1.288322 A    
C25   C37   1.406025 A    
C295  C296  1.393109 A    
C88   C161  1.417976 A    
N7    O65   1.300482 A    
C112  C169  1.417849 A    
C26   C255  1.488448 S    
C235  C236  1.393141 A    
N35   O122  1.300700 A    
C375  C380  1.406210 A    
N47   O145  1.300702 A    
C361  H134  1.080643 S    
C75   C193  1.477966 S    
C95   C127  1.415424 A    
C84   C116  1.411496 A    
C331  C332  1.397012 A    
N48   O148  1.299555 A    
C291  C296  1.402915 A    
C159  C191  1.420533 A    
C329  H107  1.082032 S    
C303  C304  1.403614 A    
C280  H66   1.075678 S    
N3    O57   1.300478 A    
N47   O146  1.300906 A    
O52   C70   1.292011 A    
C243  C248  1.402907 A    
C127  N49   1.431685 S    
N52   O156  1.299555 A    
C139  N37   1.431721 S    
C263  C264  1.394675 A    
C353  C354  1.397843 A    
C343  H119  1.080648 S    
N45   O142  1.300909 A    
N54   O160  1.299555 A    
C223  C224  1.393110 A    
O5    C57   1.288330 A    
C234  H28   1.080534 S    
O47   C65   1.287869 A    
O7    C59   1.288320 A    
C271  C272  1.393114 A    
C28   C56   1.415956 A    
C103  C178  1.426162 A    
C103  N23   1.439176 S    
Zn4   O13   1.933985 S    
N12   O75   1.301568 A    
C348  C349  1.397305 A    
C343  C344  1.397013 A    
Zn13  O4    1.965194 S    
N62   O176  1.299717 A    
O27   C71   1.287908 A    
Zn14  O3    1.965194 S    
C346  C347  1.397870 A    
C383  H152  1.082031 S    
C380  H150  1.082918 S    
O32   C76   1.292057 A    
C208  C209  1.396120 A    
C317  H97   1.082029 S    
O17   C61   1.288336 A    
C79   C197  1.477941 S    
C3    C309  1.490466 S    
C120  C121  1.408851 A    
C358  H131  1.080915 S    
C20   C48   1.415967 A    
C143  N33   1.431729 S    
C201  C202  1.404799 A    
C269  H57   1.079551 S    
C17   C201  1.488438 S    
C155  C187  1.420530 A    
Zn16  O1    1.965170 S    
N27   O106  1.301611 A    
C306  H88   1.082378 S    
C336  H113  1.082381 S    
C289  C290  1.393106 A    
C102  C134  1.411372 A    
C298  H81   1.080911 S    
C94   C126  1.411307 A    
C205  C206  1.393109 A    
C138  N40   1.438902 S    
N31   O114  1.301605 A    
C266  H55   1.083339 S    
N26   O103  1.301566 A    
C130  C143  1.408822 A    
N11   O74   1.301602 A    
N37   O125  1.300859 A    
C220  H16   1.075687 S    
C84   N4    1.436000 S    
C106  C175  1.417839 A    
C109  C172  1.426130 A    
C32   C52   1.415943 A    
C297  C298  1.403602 A    
C252  C253  1.396485 A    
O24   C68   1.292118 A    
N26   O104  1.299546 A    
C224  H20   1.083338 S    
C215  C216  1.394674 A    
C339  C344  1.406216 A    
C344  H120  1.082923 S    
N4    O60   1.299546 A    
C117  N59   1.431743 S    
C22   C42   1.415983 A    
O33   C77   1.287826 A    
C371  C372  1.397843 A    
C217  C218  1.393109 A    
C17   C33   1.406011 A    
C259  C260  1.393109 A    
C301  C302  1.397012 A    
C118  C123  1.408812 A    
C65   C191  1.477929 S    
C367  H139  1.080644 S    
C286  C287  1.396108 A    
C325  C326  1.397011 A    
C219  C220  1.404796 A    
N10   O71   1.301565 A    
Zn9   O12   1.934003 S    
C99   C131  1.415531 A    
C54   C150  1.415507 A    
Zn10  O11   1.934003 S    
N4    O59   1.301554 A    
Zn7   O3    1.965167 S    
Zn11  O2    1.965202 S    
C372  C373  1.397308 A    
C268  C269  1.396118 A    
C9    C49   1.423493 A    
C274  H61   1.075684 S    
C245  H37   1.079539 S    
N56   O164  1.299556 A    
C328  H106  1.080895 S    
C251  H42   1.079528 S    
C306  C307  1.397298 A    
C11   C51   1.423497 A    
C237  C238  1.404795 A    
C106  N26   1.436083 S    
C174  C179  1.401177 A    
C18   C46   1.415941 A    
C334  C335  1.397871 A    
C9    C345  1.490458 S    
C320  H100  1.082918 S    
C338  H115  1.082922 S    
C157  C189  1.420528 A    
N59   O169  1.300702 A    
N9    O70   1.301598 A    
C300  H83   1.082376 S    
N43   O138  1.300911 A    
C333  C334  1.403608 A    
C315  C316  1.403601 A    
C85   C117  1.415516 A    
C281  H67   1.079548 S    
O23   C67   1.287904 A    
C90   C159  1.417856 A    
C87   N7    1.439191 S    
N30   O111  1.301568 A    
C212  H10   1.083325 S    
N8    O68   1.299558 A    
C254  H45   1.083328 S    
C330  C331  1.397302 A    
N17   O85   1.300486 A    
C89   C121  1.415387 A    
C123  N53   1.431543 S    
Zn2   O48   1.965745 S    
C327  C332  1.406212 A    
C25   C249  1.488414 S    
C7    C47   1.423485 A    
C319  H99   1.080630 S    
C171  C182  1.401182 A    
C313  C314  1.397010 A    
C36   C58   1.452682 S    
C341  C342  1.397844 A    
C10   C13   1.413534 A    
C66   C192  1.489588 S    
C292  H76   1.075674 S    
C310  H91   1.080914 S    
C385  C386  1.397021 A    
C119  N57   1.431736 S    
C238  H31   1.075670 S    
N25   O101  1.300484 A    
C316  H96   1.080909 S    
C4    C315  1.490453 S    
O45   C67   1.287871 A    
C34   C60   1.452672 S    
C95   N15   1.439228 S    
C312  C313  1.397301 A    
N39   O129  1.300899 A    
C108  C173  1.417758 A    
C310  C311  1.397868 A    
