data_mof_unit_23160.cif
_audit_creation_date              2012-12-11T14:07:38-0500
_audit_creation_method            fapswitch 2.2
_symmetry_space_group_name_H-M    P1
_symmetry_Int_Tables_number       1
_space_group_crystal_system       triclinic
_cell_length_a                    19.701705
_cell_length_b                    17.08374
_cell_length_c                    15.389448
_cell_angle_alpha                 89.916982
_cell_angle_beta                  53.621063
_cell_angle_gamma                 90.118243
_cell_volume                      4170.25615817

loop_
_atom_site_label
_atom_site_type_symbol
_atom_type_description
_atom_site_fract_x
_atom_site_fract_y
_atom_site_fract_z
_atom_type_partial_charge
C1    C     C_R   0.374416 0.197139 0.996374 -0.111375
C2    C     C_R   0.652067 0.816590 0.071661 0.160500
C3    C     C_R   0.151796 0.683825 0.071109 0.149433
C4    C     C_R   0.210381 0.353385 0.981854 0.129185
C5    C     C_R   0.694515 0.862749 0.679410 -0.103201
C6    C     C_R   0.602399 0.187007 0.700899 -0.061186
C7    C     C_R   0.114912 0.316180 0.695230 0.005322
C8    C     C_R   0.099145 0.687993 0.705028 0.025594
C9    C     C_3   0.245132 0.140239 0.521947 -0.468576
C10   C     C_3   0.207137 0.860031 0.504379 -0.459765
C11   C     C_3   0.858421 0.706719 0.486455 -0.478535
C12   C     C_R   0.343101 0.821738 0.042040 -0.103302
C13   C     C_3   0.679225 0.369922 0.512217 -0.422358
C14   C     C_3   0.196005 0.190604 0.623375 -0.225856
C15   C     C_3   0.133112 0.818257 0.606992 -0.213840
C16   C     C_3   0.809233 0.760015 0.587147 -0.255508
C17   C     C_3   0.614913 0.320479 0.614678 -0.226584
C18   C     C_3   0.300553 0.263433 0.411824 -0.435228
C19   C     C_3   0.313198 0.755263 0.463751 -0.413185
C20   C     C_3   0.865866 0.817661 0.376096 -0.435845
C21   C     C_3   0.800003 0.279849 0.457298 -0.424393
C22   C     C_3   0.743687 0.721263 0.456453 -0.294663
C23   C     C_R   0.840879 0.675128 0.048527 -0.079554
C24   C     C_3   0.704784 0.247242 0.402706 -0.353951
C25   C     C_3   0.169748 0.198523 0.447280 -0.330905
C26   C     C_3   0.219187 0.738456 0.401622 -0.351152
C27   C     C_3   0.257125 0.183991 0.424382 0.280619
C28   C     C_3   0.269975 0.798039 0.420212 0.254027
C29   C     C_3   0.839799 0.730505 0.404575 0.278803
C30   C     C_3   0.747915 0.315561 0.420927 0.260420
C31   C     C_3   0.750245 0.816176 0.578876 0.146560
C32   C     C_3   0.650946 0.235533 0.600556 0.094930
C33   C     C_3   0.164031 0.266195 0.599375 0.135214
C34   C     C_R   0.875533 0.302418 0.994561 -0.128803
C35   C     C_3   0.157448 0.730031 0.602250 0.062696
C36   C     C_3   0.806698 0.868325 0.475760 -0.457108
C37   C     C_3   0.742120 0.241288 0.567548 -0.421564
C38   C     C_3   0.241647 0.314623 0.508611 -0.440109
C39   C     C_3   0.246693 0.724704 0.576625 -0.421858
C40   C     C_R   0.371523 0.810958 0.218021 -0.180556
C41   C     C_R   0.351289 0.172752 0.220430 -0.159898
C42   C     C_R   0.851122 0.327221 0.217567 -0.142738
C43   C     C_R   0.896059 0.698001 0.211130 -0.182995
C44   C     C_3   0.691330 0.763238 0.566238 0.352266
C45   C     C_R   0.634435 0.894802 0.104188 -0.143982
C46   C     C_3   0.653254 0.196298 0.505852 0.419244
C47   C     C_3   0.110378 0.238145 0.560049 0.369588
C48   C     C_3   0.159989 0.691211 0.507044 0.430750
C49   C     C_2   0.191968 0.740829 0.096572 -0.175862
C50   C     C_2   0.283724 0.314530 0.961726 -0.149592
C51   C     C_2   0.785082 0.184970 0.959298 -0.187436
C52   C     C_2   0.693809 0.760218 0.095843 -0.192931
C53   C     C_2   0.812143 0.252472 0.903883 -0.172913
C54   C     C_2   0.713618 0.688816 0.050184 -0.176864
C55   C     C_2   0.214140 0.811083 0.047386 -0.197798
C56   C     C_R   0.669761 0.082464 0.049975 -0.134070
C57   C     C_2   0.310260 0.247072 0.906813 -0.168066
C58   C     C_R   0.330126 0.912686 0.950297 -0.136560
C59   C     C_R   0.364702 0.111273 0.897571 -0.153122
C60   C     C_R   0.866121 0.388535 0.895783 -0.145508
C61   C     C_R   0.829694 0.587482 0.951307 -0.112321
C62   C     C_R   0.362634 0.080524 0.314489 -0.114578
C63   C     C_R   0.379260 0.902152 0.315325 -0.131493
C64   C     C_R   0.906732 0.605826 0.304296 -0.108723
C65   C     C_R   0.857879 0.420389 0.314343 -0.136636
C66   C     C_R   0.346494 0.187286 0.934230 0.147960
C67   C     C_R   0.169478 0.417457 0.050598 -0.134026
C68   C     C_R   0.289740 0.849765 0.019860 0.142528
C69   C     C_R   0.788469 0.648931 0.023586 0.138646
C70   C     C_R   0.848278 0.312247 0.931653 0.150009
C71   C     C_R   0.337240 0.836038 0.320783 0.045312
C72   C     C_R   0.314679 0.141959 0.323092 0.038299
C73   C     C_R   0.809314 0.358849 0.320172 0.039792
C74   C     C_R   0.886736 0.682610 0.306170 0.038105
C75   C     C_R   0.660399 0.177692 0.954223 -0.112123
C76   C     C_R   0.623785 0.800494 0.010817 -0.079193
C77   C     C_R   0.124795 0.699420 0.008708 -0.106313
C78   C     C_R   0.133997 0.605633 0.104471 -0.149711
C79   C     C_R   0.159983 0.322352 0.954919 -0.130075
C80   C     C_R   0.650499 0.829093 0.782023 -0.178802
C81   C     C_R   0.600125 0.199211 0.791558 -0.244464
C82   C     C_R   0.099252 0.301149 0.793444 -0.279606
C83   C     C_R   0.097908 0.699623 0.794574 -0.226314
C84   C     C_R   0.580041 0.110006 0.705430 0.647213
C85   C     C_R   0.645084 0.924643 0.687866 0.553402
C86   C     C_R   0.076867 0.611264 0.708519 0.510374
C87   C     C_R   0.097239 0.393898 0.694542 0.502073
C88   C     C_2   0.251176 0.206567 0.660556 0.526455
C89   C     C_R   0.710975 0.146500 0.980665 0.148716
C90   C     C_2   0.110291 0.862661 0.705722 0.580721
C91   C     C_2   0.868446 0.803697 0.602144 0.621800
C92   C     C_2   0.593002 0.363018 0.714153 0.571449
C93   C     C_2   0.713736 0.637396 0.467377 0.510835
C94   C     C_2   0.653247 0.274713 0.364529 0.479771
C95   C     C_2   0.130633 0.125577 0.437962 0.516144
C96   C     C_2   0.173939 0.778540 0.360545 0.460259
H1    H     H_    0.383056 0.251804 0.023858 0.102051
H2    H     H_    0.555672 0.315368 0.621162 0.187437
H3    H     H_    0.140381 0.155665 0.687437 0.155110
H4    H     H_    0.077094 0.820149 0.605851 0.197319
H5    H     H_    0.359695 0.253590 0.404379 0.188912
H6    H     H_    0.356482 0.794989 0.467152 0.173009
H7    H     H_    0.932169 0.825964 0.347741 0.191978
H8    H     H_    0.837982 0.325232 0.462677 0.178197
H9    H     H_    0.843677 0.911480 0.486092 0.158328
H10   H     H_    0.743072 0.276412 0.627630 0.169766
H11   H     H_    0.276310 0.341697 0.537483 0.161254
H12   H     H_    0.337817 0.767712 0.081072 0.080659
H13   H     H_    0.249229 0.760142 0.635247 0.171709
H14   H     H_    0.732917 0.750512 0.400837 0.098308
H15   H     H_    0.754473 0.208839 0.337648 0.110786
H16   H     H_    0.180692 0.239216 0.383506 0.092205
H17   H     H_    0.263141 0.696030 0.338025 0.120867
H18   H     H_    0.662316 0.719037 0.632470 0.136521
H19   H     H_    0.587223 0.191634 0.532212 0.160893
H20   H     H_    0.063936 0.194544 0.620139 0.133958
H21   H     H_    0.094737 0.691354 0.530645 0.190274
H22   H     H_    0.318468 0.295841 0.338200 0.165579
H23   H     H_    0.832220 0.724067 0.098065 0.087706
H24   H     H_    0.351988 0.705952 0.409413 0.160875
H25   H     H_    0.862761 0.838289 0.310067 0.160124
H26   H     H_    0.845289 0.235881 0.397291 0.165362
H27   H     H_    0.365423 0.754434 0.192647 0.086803
H28   H     H_    0.331383 0.223623 0.199408 0.093756
H29   H     H_    0.834126 0.276871 0.192416 0.081628
H30   H     H_    0.892000 0.754167 0.182332 0.100691
H31   H     H_    0.768293 0.901370 0.457609 0.216128
H32   H     H_    0.767271 0.182645 0.566149 0.171155
H33   H     H_    0.222408 0.363442 0.480264 0.218064
H34   H     H_    0.884904 0.247517 0.020854 0.089411
H35   H     H_    0.262228 0.663561 0.583959 0.171875
H36   H     H_    0.216360 0.719182 0.139226 0.121260
H37   H     H_    0.303762 0.333403 0.010485 0.132110
H38   H     H_    0.805182 0.165925 0.007942 0.125795
H39   H     H_    0.720511 0.782918 0.135229 0.125949
H40   H     H_    0.794467 0.270341 0.852240 0.130869
H41   H     H_    0.685194 0.665035 0.013562 0.126824
H42   H     H_    0.187085 0.834500 0.008881 0.127680
H43   H     H_    0.292737 0.229448 0.855013 0.169837
H44   H     H_    0.308619 0.947483 0.912279 0.107193
H45   H     H_    0.212579 0.083194 0.537096 0.207754
H46   H     H_    0.360327 0.085928 0.836670 0.137765
H47   H     H_    0.862651 0.414188 0.834208 0.118108
H48   H     H_    0.808316 0.553804 0.912267 0.104518
H49   H     H_    0.356416 0.046532 0.377117 0.092071
H50   H     H_    0.379244 0.927532 0.379420 0.088282
H51   H     H_    0.913483 0.575221 0.360215 0.105365
H52   H     H_    0.846622 0.455384 0.380056 0.119878
H53   H     H_    0.670887 0.228728 0.906355 0.090844
H54   H     H_    0.616754 0.744378 0.984828 0.080111
H55   H     H_    0.118826 0.755052 0.980551 0.087199
H56   H     H_    0.182387 0.897944 0.470192 0.203151
H57   H     H_    0.170017 0.271401 0.907465 0.144447
H58   H     H_    0.667091 0.777607 0.806088 0.134315
H59   H     H_    0.608341 0.253897 0.819224 0.130236
H60   H     H_    0.095376 0.244987 0.828441 0.165586
H61   H     H_    0.108988 0.752984 0.821813 0.122856
H62   H     H_    0.639483 0.921628 0.163755 0.098412
H63   H     H_    0.691223 0.048572 0.088655 0.106893
H64   H     H_    0.190834 0.451267 0.089482 0.105008
H65   H     H_    0.138343 0.579171 0.164891 0.104729
H66   H     H_    0.307505 0.126827 0.503978 0.157421
H67   H     H_    0.839085 0.645196 0.513502 0.205011
H68   H     H_    0.240903 0.899446 0.524708 0.152841
H69   H     H_    0.927593 0.709552 0.446248 0.186254
H70   H     H_    0.710242 0.414639 0.530506 0.176434
H71   H     H_    0.304462 0.246294 0.616067 0.043970
H72   H     H_    0.157429 0.873404 0.719670 -0.017026
H73   H     H_    0.917497 0.841234 0.538536 0.053461
H74   H     H_    0.642182 0.379677 0.722258 -0.001612
H75   H     H_    0.693686 0.617744 0.418809 0.029079
H76   H     H_    0.679520 0.270271 0.279667 0.026569
H77   H     H_    0.128423 0.119256 0.369518 0.019990
H78   H     H_    0.646040 0.402871 0.485434 0.209088
H79   H     H_    0.210704 0.806647 0.282054 0.043867
H80   H     H_    0.646149 0.842097 0.520026 0.342132
H81   H     H_    0.746297 0.121600 0.453321 0.309178
H82   H     H_    0.100978 0.332954 0.495658 0.352707
H83   H     H_    0.245093 0.608933 0.462235 0.309949
H84   H     H_    0.515779 0.030799 0.694237 0.331412
H85   H     H_    0.719319 0.996050 0.576331 0.295171
H86   H     H_    0.996844 0.541288 0.715191 0.333107
H87   H     H_    0.131597 0.481331 0.602502 0.338556
H88   H     H_    0.770211 0.720190 0.657596 0.147050
N1    N     N_R   0.408680 0.130160 0.995800 -0.045084
N2    N     N_R   0.403730 0.078230 0.935950 -0.058522
N3    N     N_R   0.903730 0.421770 0.935950 -0.051797
N4    N     N_R   0.903730 0.578230 0.935950 -0.054089
N5    N     N_R   0.426630 0.075970 0.212960 -0.040593
N6    N     N_R   0.426630 0.924030 0.212960 -0.035977
N7    N     N_R   0.926630 0.575970 0.212960 -0.042215
N8    N     N_R   0.926630 0.424030 0.212960 -0.042016
N9    N     N_R   0.591320 0.134600 0.004200 -0.045944
N10   N     N_R   0.591320 0.865400 0.004200 -0.047935
N11   N     N_R   0.091320 0.634600 0.004200 -0.042246
N12   N     N_R   0.408680 0.869840 0.995800 -0.044541
N13   N     N_R   0.091320 0.365400 0.004200 -0.045480
N14   N     N_R   0.578320 0.867660 0.846880 -0.064582
N15   N     N_R   0.578320 0.132340 0.846880 -0.068691
N16   N     N_R   0.078320 0.367660 0.846880 -0.058653
N17   N     N_R   0.078320 0.632340 0.846880 -0.064202
N18   N     N_R   0.573370 0.074390 0.787040 -0.123719
N19   N     N_R   0.573370 0.925610 0.787040 -0.082727
N20   N     N_R   0.073370 0.574390 0.787040 -0.127233
N21   N     N_R   0.073370 0.425610 0.787040 -0.111535
N22   N     N_R   0.596270 0.927870 0.064040 -0.042928
N23   N     N_R   0.908680 0.630160 0.995800 -0.044990
N24   N     N_R   0.596270 0.072130 0.064040 -0.046367
N25   N     N_R   0.096270 0.427870 0.064040 -0.044662
N26   N     N_R   0.096270 0.572130 0.064040 -0.041707
N27   N     N_R   0.908680 0.369840 0.995800 -0.040723
N28   N     N_R   0.421680 0.867580 0.153120 -0.033770
N29   N     N_R   0.421680 0.132420 0.153120 -0.035490
N30   N     N_R   0.921680 0.367580 0.153120 -0.036755
N31   N     N_R   0.921680 0.632420 0.153120 -0.037892
N32   N     N_R   0.403730 0.921770 0.935950 -0.048870
Ni1   Ni    Ni4+2 0.500000 0.131190 0.000000 0.210718
Ni2   Ni    Ni4+2 0.500000 0.868810 0.000000 0.213552
Ni3   Ni    Ni4+2 0.000000 0.631190 0.000000 0.217969
Ni4   Ni    Ni4+2 0.000000 0.368810 0.000000 0.210700
Ni5   Ni    Ni4+2 0.488650 0.000000 0.862740 0.236158
Ni6   Ni    Ni4+2 0.988650 0.500000 0.862740 0.229032
Ni7   Ni    Ni4+2 0.511350 0.000000 0.137260 0.216391
Ni8   Ni    Ni4+2 0.011350 0.500000 0.137260 0.216627
O1    O     O_2   0.237945 0.172163 0.738857 -0.628052
O2    O     O_3   0.686000 0.119480 0.482417 -0.706514
O3    O     O_3   0.062470 0.298207 0.558061 -0.721561
O4    O     O_3   0.185263 0.611975 0.489588 -0.750418
O5    O     O_3   0.539554 0.083173 0.662733 -0.727351
O6    O     O_3   0.662456 0.974431 0.607454 -0.753099
O7    O     O_3   0.028060 0.589514 0.675470 -0.725257
O8    O     O_3   0.100514 0.432383 0.614218 -0.749589
O9    O     O_2   0.038970 0.887664 0.770066 -0.559020
O10   O     O_2   0.862352 0.796359 0.685450 -0.567349
O11   O     O_2   0.519902 0.379647 0.785986 -0.585596
O12   O     O_2   0.712843 0.591096 0.528585 -0.623893
O13   O     O_2   0.583294 0.303164 0.426773 -0.601831
O14   O     O_2   0.102969 0.072902 0.504611 -0.592376
O15   O     O_2   0.097174 0.780640 0.413266 -0.610308
O16   O     O_3   0.623380 0.803879 0.579824 -0.746695

loop_
_geom_bond_atom_site_label_1
_geom_bond_atom_site_label_2
_ccdc_geom_bond_type
C22   C93   S    
C6    C32   S    
N4    N23   A    
N16   N21   A    
C79   N13   A    
C96   H79   S    
C10   C28   S    
C8    C83   A    
C12   N12   A    
C23   C69   A    
N15   Ni1   S    
C15   H4    S    
C83   N17   A    
C43   N31   A    
C77   H55   S    
C14   C33   S    
N11   Ni3   S    
C55   C68   S    
C3    C49   S    
C18   C38   S    
C14   H3    S    
N10   Ni2   S    
C20   H7    S    
C16   C31   S    
N9    Ni1   S    
N27   Ni4   S    
C12   C68   A    
C91   O10   D    
N19   Ni5   S    
C45   N22   A    
C55   H42   S    
N1    Ni1   S    
C46   H19   S    
N12   N32   A    
C86   O7    S    
C19   C39   S    
C41   H28   S    
C21   C37   S    
C40   C71   A    
C56   H63   S    
N31   Ni3   S    
C10   C15   S    
C96   O15   D    
C60   H47   S    
C23   H23   S    
C48   O4    S    
C19   H6    S    
C39   H35   S    
C54   H41   S    
C53   C70   S    
C58   H44   S    
C87   O8    S    
N21   Ni6   S    
H83   O4    S    
C65   C73   A    
C57   H43   S    
C59   N2    A    
N8    N30   A    
C38   H11   S    
N6    N28   A    
N32   Ni5   S    
C87   N21   A    
C10   H56   S    
C61   H48   S    
C42   H29   S    
N7    N31   A    
H81   O2    S    
C21   H8    S    
C7    C87   A    
C59   H46   S    
C92   H74   S    
C22   H14   S    
C62   H49   S    
C83   H61   S    
N15   N18   A    
C67   H64   S    
C76   H54   S    
C27   C72   S    
N13   Ni4   S    
C17   H2    S    
C18   H22   S    
C63   H50   S    
C25   H16   S    
C26   C48   S    
C37   H32   S    
C94   H76   S    
C43   C74   A    
N20   Ni6   S    
C44   H18   S    
C2    C45   A    
C6    C81   A    
C16   C91   S    
C7    C33   S    
N18   Ni5   S    
N14   Ni2   S    
C24   H15   S    
C35   C48   S    
C44   O16   S    
C43   H30   S    
C15   C35   S    
N23   Ni3   S    
C52   C54   D    
C18   H5    S    
C62   N5    A    
C20   C29   S    
C93   O12   D    
C26   C96   S    
C13   H78   S    
N10   N22   A    
C49   H36   S    
C22   C44   S    
H84   O5    S    
N26   Ni8   S    
C31   C44   S    
C91   H73   S    
C38   H33   S    
C13   C30   S    
C6    C84   A    
N17   Ni3   S    
N11   N26   A    
C34   N27   A    
C1    H1    S    
C12   H12   S    
C30   C73   S    
N29   Ni1   S    
C34   C70   A    
C29   C74   S    
C49   C55   D    
C61   N4    A    
C90   O9    D    
C4    C50   S    
C65   H52   S    
C8    C35   S    
C20   C36   S    
C95   O14   D    
C35   C39   S    
C9    C14   S    
C82   N16   A    
C42   N30   A    
C24   C94   S    
C79   H57   S    
C41   N29   A    
C11   C16   S    
H86   O7    S    
C94   O13   D    
C88   O1    D    
C56   N24   A    
C65   N8    A    
C60   C70   A    
H85   O6    S    
N5    N29   A    
C88   H71   S    
C80   N14   A    
N24   Ni7   S    
C11   H67   S    
C1    C66   A    
C46   O2    S    
C62   C72   A    
C32   C37   S    
C5    C80   A    
C84   O5    S    
N8    Ni8   S    
H82   O3    S    
C85   N19   A    
C76   N10   A    
C4    C79   A    
C41   C72   A    
C75   N9    A    
C58   C68   A    
C56   C89   A    
H80   O16   S    
N2    Ni5   S    
C63   C71   A    
C19   H24   S    
C25   C95   S    
C60   N3    A    
C64   H51   S    
C19   C28   S    
C33   C47   S    
N17   N20   A    
C28   C71   S    
C3    C77   A    
C86   N20   A    
C64   N7    A    
C2    C76   A    
N13   N25   A    
C9    C27   S    
C20   H25   S    
C21   H26   S    
C84   N18   A    
C52   H39   S    
C40   H27   S    
C78   N26   A    
C25   C47   S    
C93   H75   S    
C42   C73   A    
C10   H68   S    
C23   N23   A    
C36   H9    S    
C50   C57   D    
C32   C46   S    
C90   H72   S    
C45   H62   S    
N3    N27   A    
C53   H40   S    
C50   H37   S    
C85   O6    S    
C4    C67   A    
N12   Ni2   S    
C16   H88   S    
C80   H58   S    
C48   H21   S    
N3    Ni6   S    
C1    N1    A    
C25   C27   S    
C63   N6    A    
C21   C30   S    
C40   N28   A    
C92   O11   D    
C26   C28   S    
C33   C38   S    
C81   H59   S    
C2    C52   S    
C13   C17   S    
C18   C27   S    
C61   C69   A    
C77   N11   A    
C26   H17   S    
C82   H60   S    
C37   H10   S    
C59   C66   A    
C57   C66   S    
N30   Ni4   S    
N6    Ni7   S    
C51   C89   S    
C15   C90   S    
N1    N2    A    
C54   C69   S    
N28   Ni2   S    
C75   H53   S    
N16   Ni4   S    
N7    Ni8   S    
C47   H20   S    
C51   H38   S    
C67   N25   A    
C8    C86   A    
C11   C29   S    
C95   H77   S    
C9    H66   S    
N25   Ni8   S    
C24   C30   S    
N22   Ni7   S    
C9    H45   S    
C81   N15   A    
C75   C89   A    
C14   C88   S    
C36   H31   S    
C17   C92   S    
N5    Ni7   S    
C39   H13   S    
C7    C82   A    
C47   O3    S    
C34   H34   S    
C78   H65   S    
C22   C29   S    
N14   N19   A    
N9    N24   A    
C17   C32   S    
C64   C74   A    
C31   C36   S    
C11   H69   S    
C51   C53   D    
C3    C78   A    
H87   O8    S    
C5    C85   A    
C13   H70   S    
N4    Ni6   S    
C24   C46   S    
C5    C31   S    
C58   N32   A    
