data_mof_unit_60745.cif
_audit_creation_date              2012-10-26T17:41:55-0400
_audit_creation_method            fapswitch 2.2
_symmetry_space_group_name_H-M    P1
_symmetry_Int_Tables_number       1
_space_group_crystal_system       triclinic
_cell_length_a                    21.735492
_cell_length_b                    21.735751
_cell_length_c                    22.24092
_cell_angle_alpha                 119.380996
_cell_angle_beta                  119.473968
_cell_angle_gamma                 89.862665
_cell_volume                      7565.04237806

loop_
_atom_site_label
_atom_site_type_symbol
_atom_type_description
_atom_site_fract_x
_atom_site_fract_y
_atom_site_fract_z
_atom_type_partial_charge
C1    C     C_R   0.500070 0.118699 0.500186 0.552217
C2    C     C_R   0.501240 0.185753 0.501847 0.019244
C3    C     C_R   0.568159 0.244962 0.555175 -0.158228
C4    C     C_R   0.580049 0.079901 0.659914 0.550730
C5    C     C_R   0.568074 0.310056 0.555618 -0.160437
C6    C     C_R   0.501582 0.315220 0.500621 0.017671
C7    C     C_R   0.437622 0.255114 0.448348 0.016141
C8    C     C_3   0.356382 0.226827 0.382659 -0.272832
C9    C     C_3   0.355981 0.156644 0.384136 -0.273430
C10   C     C_3   0.205315 0.773027 0.049737 -0.203069
C11   C     C_3   0.305566 0.716480 0.048263 -0.215991
C12   C     C_3   0.710496 0.257834 0.048164 -0.287173
C13   C     C_3   0.255076 0.667288 0.951449 -0.211707
C14   C     C_1   0.124044 0.624892 0.749579 -0.042741
C15   C     C_3   0.288907 0.791063 0.082608 0.059798
C16   C     C_R   0.499871 0.880954 0.499413 0.550822
C17   C     C_3   0.154634 0.729176 0.952158 -0.077877
C18   C     C_3   0.204620 0.708332 0.917187 0.078499
C19   C     C_3   0.256788 0.782266 0.951202 -0.229861
C20   C     C_3   0.303701 0.832067 0.048095 -0.221531
C21   C     C_1   0.160284 0.662529 0.824947 -0.075145
C22   C     C_1   0.336139 0.837310 0.174858 -0.077901
C23   C     C_3   0.792478 0.291168 0.082579 0.057619
C24   C     C_1   0.374595 0.875102 0.250283 -0.035301
C25   C     C_R   0.501342 0.813160 0.562017 0.011372
C26   C     C_R   0.501730 0.814892 0.500375 0.018218
C27   C     C_R   0.512045 0.754682 0.444749 -0.155266
C28   C     C_R   0.419922 0.920055 0.340082 0.550341
C29   C     C_R   0.511503 0.689994 0.444261 -0.158340
C30   C     C_R   0.503298 0.686392 0.501411 0.013407
C31   C     C_R   0.503127 0.750238 0.563225 0.024278
C32   C     C_3   0.450235 0.759425 0.589109 -0.275475
C33   C     C_3   0.448168 0.828526 0.587513 -0.270604
C34   C     C_3   0.822318 0.225895 0.048859 0.187468
C35   C     C_R   0.881308 0.499726 0.499422 0.588346
C36   C     C_R   0.920204 0.420017 0.340086 0.567756
C37   C     C_R   0.119186 0.500062 0.500503 0.551262
C38   C     C_R   0.080109 0.579973 0.659882 0.544809
C39   C     C_R   0.619046 0.499961 0.500112 0.558498
C40   C     C_3   0.662202 0.208791 0.951263 -0.291072
C41   C     C_R   0.500168 0.381141 0.500039 0.553869
C42   C     C_R   0.380817 0.499866 0.499730 0.551494
C43   C     C_R   0.500041 0.619151 0.500132 0.552065
C44   C     C_R   0.808828 0.560294 0.554497 -0.038609
C45   C     C_3   0.773690 0.178187 0.951407 -0.150019
C46   C     C_R   0.813978 0.497998 0.497194 0.031943
C47   C     C_R   0.752379 0.432040 0.439217 0.246190
C48   C     C_R   0.687048 0.433323 0.439088 -0.145020
C49   C     C_R   0.685135 0.497978 0.499721 -0.027967
C50   C     C_R   0.748252 0.559704 0.557185 0.001071
C51   C     C_3   0.779518 0.639421 0.627862 -0.259266
C52   C     C_3   0.744083 0.290929 0.951463 0.188537
C53   C     C_3   0.849053 0.639888 0.625204 -0.275472
C54   C     C_R   0.186210 0.496903 0.436768 0.014853
C55   C     C_R   0.185175 0.498142 0.499509 0.019064
C56   C     C_1   0.838034 0.337384 0.174892 -0.034268
C57   C     C_R   0.245977 0.489166 0.556222 -0.156445
C58   C     C_R   0.310594 0.489583 0.556598 -0.159804
C59   C     C_R   0.313529 0.496339 0.498310 0.012623
C60   C     C_R   0.249103 0.495049 0.435529 0.025555
C61   C     C_3   0.238790 0.546378 0.407437 -0.274778
C62   C     C_3   0.169702 0.548516 0.409057 -0.270149
C63   C     C_3   0.793404 0.338805 0.048916 -0.151958
C64   C     C_1   0.875471 0.375086 0.250306 -0.010976
C65   C     C_3   0.709803 0.209032 0.917443 0.059503
C66   C     C_3   0.936805 0.204799 0.088484 -0.135243
C67   C     C_1   0.663150 0.162543 0.825121 -0.037986
C68   C     C_3   0.089486 0.662040 0.912739 -0.262613
C69   C     C_3   0.015500 0.653427 0.840436 -0.308925
C70   C     C_3   0.954216 0.584261 0.799209 -0.450775
C71   C     C_3   0.787456 0.352950 0.912511 -0.135583
C72   C     C_3   0.749546 0.311244 0.389003 -0.108084
C73   C     C_1   0.625170 0.124768 0.749701 -0.022752
C74   C     C_R   0.437136 0.194053 0.450245 0.017058
Cu1   Cu    Cu3+1 0.438190 0.000000 0.500020 0.916250
Cu2   Cu    Cu3+1 0.561810 0.000000 0.499980 0.932050
Cu3   Cu    Cu3+1 0.000200 0.561800 0.500000 0.923958
Cu4   Cu    Cu3+1 0.000170 0.438200 0.500000 0.935491
Cu5   Cu    Cu3+1 0.541330 0.541310 0.582630 0.911424
Cu6   Cu    Cu3+1 0.458770 0.458690 0.417370 0.919687
H1    H     H_    0.687485 0.303369 0.070733 0.132749
H2    H     H_    0.615255 0.229986 0.927510 0.118597
H3    H     H_    0.194561 0.740878 0.071902 0.113158
H4    H     H_    0.365069 0.727328 0.069790 0.116471
H5    H     H_    0.296160 0.686111 0.072790 0.112847
H6    H     H_    0.221098 0.613730 0.929597 0.108676
H7    H     H_    0.290771 0.653293 0.927075 0.112135
H8    H     H_    0.289413 0.884635 0.069482 0.113219
H9    H     H_    0.363857 0.847324 0.072726 0.118298
H10   H     H_    0.223504 0.812911 0.926312 0.108504
H11   H     H_    0.192299 0.825498 0.077267 0.101162
H12   H     H_    0.637474 0.150891 0.928473 0.126254
H13   H     H_    0.129329 0.768860 0.937825 0.124974
H14   H     H_    0.294725 0.770326 0.929753 0.118315
H15   H     H_    0.516834 0.756350 0.399295 0.123455
H16   H     H_    0.516082 0.642649 0.398615 0.128869
H17   H     H_    0.396232 0.713733 0.540601 0.124592
H18   H     H_    0.477021 0.771933 0.652906 0.140318
H19   H     H_    0.392947 0.822845 0.537918 0.149298
H20   H     H_    0.473710 0.880842 0.650387 0.134230
H21   H     H_    0.638343 0.384279 0.392109 0.132002
H22   H     H_    0.748082 0.674127 0.609109 0.139862
H23   H     H_    0.707673 0.223751 0.071694 0.122187
H24   H     H_    0.696498 0.312613 0.929959 0.089006
H25   H     H_    0.789695 0.646618 0.685385 0.139169
H26   H     H_    0.857804 0.675100 0.605269 0.148585
H27   H     H_    0.899347 0.647092 0.680933 0.127712
H28   H     H_    0.244801 0.485543 0.602543 0.122251
H29   H     H_    0.358419 0.486122 0.603080 0.127878
H30   H     H_    0.284074 0.600657 0.454913 0.123910
H31   H     H_    0.226069 0.518421 0.343462 0.143916
H32   H     H_    0.174974 0.604057 0.457631 0.148057
H33   H     H_    0.117182 0.521832 0.346017 0.141663
H34   H     H_    0.619791 0.241362 0.596934 0.125785
H35   H     H_    0.772248 0.385749 0.072604 0.055390
H36   H     H_    0.851681 0.364013 0.073054 0.188018
H37   H     H_    0.749951 0.119622 0.927528 0.052440
H38   H     H_    0.808641 0.177114 0.927682 0.190238
H39   H     H_    0.816543 0.190387 0.070138 0.089704
H40   H     H_    0.909071 0.148782 0.028791 0.099171
H41   H     H_    0.943296 0.200757 0.139125 0.114557
H42   H     H_    0.993335 0.226204 0.106086 0.149747
H43   H     H_    0.969379 0.533454 0.771940 0.156545
H44   H     H_    0.945390 0.587367 0.845626 0.148628
H45   H     H_    0.619656 0.355450 0.597627 0.122412
H46   H     H_    0.901283 0.580230 0.748377 0.145203
H47   H     H_    0.997823 0.703140 0.864656 0.148733
H48   H     H_    0.022038 0.649134 0.792291 0.167208
H49   H     H_    0.103311 0.609497 0.890392 0.154096
H50   H     H_    0.079641 0.669731 0.960176 0.135815
H51   H     H_    0.806327 0.406688 0.972137 0.098845
H52   H     H_    0.731257 0.344051 0.861595 0.112183
H53   H     H_    0.826787 0.356427 0.895399 0.147883
H54   H     H_    0.791623 0.329101 0.454417 0.117392
H55   H     H_    0.761578 0.265526 0.348053 0.140187
H56   H     H_    0.325317 0.260275 0.406432 0.136623
H57   H     H_    0.692643 0.288371 0.369827 0.103322
H58   H     H_    0.344750 0.216627 0.323408 0.143140
H59   H     H_    0.324215 0.149287 0.408165 0.144719
H60   H     H_    0.344648 0.106052 0.325955 0.131764
O1    O     O_R   0.447800 0.090170 0.500010 -0.508852
O2    O     O_R   0.555400 0.465140 0.430260 -0.512858
O3    O     O_R   0.534920 0.444720 0.569790 -0.514987
O4    O     O_R   0.552190 0.090170 0.499980 -0.511995
O5    O     O_R   0.465190 0.374940 0.430230 -0.510365
O6    O     O_R   0.444700 0.534860 0.569740 -0.514413
O7    O     O_R   0.374970 0.465080 0.430180 -0.506391
O8    O     O_R   0.534910 0.625060 0.569770 -0.507178
O9    O     O_R   0.465180 0.555280 0.430210 -0.512942
O10   O     O_R   0.508090 0.060280 0.620580 -0.508736
O11   O     O_R   0.612480 0.060280 0.620550 -0.498584
O12   O     O_R   0.909990 0.447840 0.500030 -0.491088
O13   O     O_R   0.447810 0.909830 0.500020 -0.513006
O14   O     O_R   0.552200 0.909830 0.499990 -0.509865
O15   O     O_R   0.387520 0.939720 0.379450 -0.506944
O16   O     O_R   0.491910 0.939720 0.379420 -0.505572
O17   O     O_R   0.910020 0.552220 0.500020 -0.514864
O18   O     O_3   0.897605 0.254975 0.080002 -0.556984
O19   O     O_3   0.787573 0.292647 0.920849 -0.554581
O20   O     O_3   0.753918 0.369575 0.378362 -0.553708
O21   O     O_R   0.939920 0.491910 0.379430 -0.506760
O22   O     O_R   0.939890 0.387530 0.379440 -0.496102
O23   O     O_R   0.090380 0.552160 0.499970 -0.513751
O24   O     O_R   0.090350 0.447780 0.499980 -0.512610
O25   O     O_R   0.060480 0.612470 0.620560 -0.508971
O26   O     O_R   0.060450 0.508090 0.620570 -0.511388
O27   O     O_R   0.625130 0.534920 0.569820 -0.509074

loop_
_geom_bond_atom_site_label_1
_geom_bond_atom_site_label_2
_ccdc_geom_bond_type
C45   H38   S    
C25   C31   A    
C38   O25   A    
Cu4   O24   S    
C8    H56   S    
C18   C21   S    
C11   C13   S    
C27   H15   S    
C19   C20   S    
C1    O4    A    
Cu4   O12   S    
C7    C8    S    
C54   C60   A    
Cu3   Cu4   S    
C51   H22   S    
C12   C23   S    
C26   C27   A    
C13   C18   S    
C14   C21   T    
C41   O3    A    
C10   C15   S    
C30   C31   A    
C9    H60   S    
C27   C29   A    
C42   O7    A    
C10   C17   S    
Cu3   O25   S    
C58   H29   S    
C10   H3    S    
C32   H17   S    
C8    H58   S    
C1    C2    S    
Cu1   O13   S    
C44   C50   A    
C43   O8    A    
Cu1   O1    S    
C71   H52   S    
C46   C47   A    
C11   C15   S    
C70   H43   S    
Cu6   O7    S    
Cu5   O3    S    
C31   C32   S    
C69   H48   S    
C32   H18   S    
C68   C69   S    
C65   C67   S    
C6    C41   S    
C13   H6    S    
C28   O15   A    
C66   H42   S    
C67   C73   T    
Cu5   O6    S    
C43   O9    A    
C37   O23   A    
C63   H35   S    
C70   H46   S    
C52   O19   S    
C23   C63   S    
C53   H26   S    
C59   C60   A    
C3    H34   S    
C66   H40   S    
C36   O22   A    
C15   C20   S    
C61   H30   S    
C44   C53   S    
C44   C46   A    
C50   C51   S    
C7    C74   A    
C47   O20   S    
C15   C22   S    
Cu3   O21   S    
Cu6   O9    S    
Cu4   O26   S    
Cu3   O23   S    
C40   H2    S    
C23   C56   S    
C12   H23   S    
C52   H24   S    
C18   C19   S    
C72   H55   S    
C54   C62   S    
Cu2   O11   S    
C25   C26   A    
C52   C63   S    
C60   C61   S    
C51   C53   S    
C12   C40   S    
Cu1   Cu2   S    
C35   O17   A    
C29   C30   A    
C70   H44   S    
C14   C38   S    
C53   H27   S    
C72   H54   S    
C47   C48   A    
C39   O2    A    
C51   H25   S    
C23   C34   S    
C13   H7    S    
C25   C33   S    
C56   C64   T    
C17   C18   S    
C8    C9    S    
C66   H41   S    
C62   H32   S    
C34   C45   S    
C40   H12   S    
C68   H50   S    
C4    C73   S    
C6    C7    A    
C19   H14   S    
C62   H33   S    
C37   O24   A    
C63   H36   S    
Cu2   O4    S    
C72   H57   S    
C39   C49   S    
C10   H11   S    
Cu4   O22   S    
Cu6   O2    S    
C40   C65   S    
C55   C57   A    
C16   O14   A    
C36   O21   A    
C22   C24   T    
C30   C43   S    
C17   H13   S    
C9    C74   S    
C42   O6    A    
C34   O18   S    
C66   O18   S    
C4    O10   A    
C45   H37   S    
C34   H39   S    
C38   O26   A    
C4    O11   A    
C54   C55   A    
Cu6   O5    S    
C17   C68   S    
C24   C28   S    
C3    C5    A    
C16   C26   S    
C2    C74   A    
C42   C59   S    
C71   H53   S    
C29   H16   S    
Cu5   O8    S    
C11   H4    S    
C71   O19   S    
C20   H9    S    
C72   O20   S    
C33   H20   S    
Cu5   O27   S    
C32   C33   S    
C2    C3    A    
C58   C59   A    
C19   H10   S    
C45   C65   S    
C9    H59   S    
C57   C58   A    
C5    C6    A    
C11   H5    S    
C48   C49   A    
C48   H21   S    
C20   H8    S    
Cu2   O14   S    
Cu2   O16   S    
C12   H1    S    
C39   O27   A    
C61   C62   S    
C69   C70   S    
C1    O1    A    
C71   H51   S    
Cu5   Cu6   S    
C37   C55   S    
Cu1   O15   S    
C57   H28   S    
C41   O5    A    
C68   H49   S    
C69   H47   S    
C49   C50   A    
C35   O12   A    
C5    H45   S    
C16   O13   A    
C28   O16   A    
Cu1   O10   S    
C33   H19   S    
C36   C64   S    
C35   C46   S    
C52   C65   S    
Cu3   O17   S    
C61   H31   S    
