data_mof_unit_40859.cif
_audit_creation_date              2012-12-10T17:22:51-0500
_audit_creation_method            fapswitch 2.2
_symmetry_space_group_name_H-M    P1
_symmetry_Int_Tables_number       1
_space_group_crystal_system       triclinic
_cell_length_a                    10.212612
_cell_length_b                    10.503109
_cell_length_c                    10.859161
_cell_angle_alpha                 89.874883
_cell_angle_beta                  94.944528
_cell_angle_gamma                 80.494779
_cell_volume                      1144.37201218

loop_
_atom_site_label
_atom_site_type_symbol
_atom_type_description
_atom_site_fract_x
_atom_site_fract_y
_atom_site_fract_z
_atom_type_partial_charge
C1    C     C_R   0.444292 0.505960 0.267816 0.922782
C2    C     C_3   0.501615 0.122043 0.499704 0.001496
C3    C     C_3   0.588660 0.943093 0.590484 -0.162056
C4    C     C_3   0.411350 0.056924 0.409552 -0.161343
C5    C     C_2   0.412903 0.501132 0.136358 -0.346865
C6    C     C_2   0.587256 0.474943 0.863698 -0.348139
C7    C     C_2   0.513116 0.469577 0.065720 -0.138807
C8    C     C_2   0.487388 0.473255 0.934368 -0.144114
C9    C     C_2   0.073072 0.491135 0.490705 0.026941
C10   C     C_2   0.926596 0.510162 0.508078 0.028208
C11   C     C_R   0.555743 0.489083 0.732188 0.925656
C12   C     C_R   0.500525 0.257356 0.499852 0.857101
C13   C     C_R   0.499479 0.742644 0.500165 0.863132
C14   C     C_3   0.623175 0.020230 0.480047 -0.084276
C15   C     C_3   0.376834 0.979786 0.519991 -0.084311
C16   C     C_3   0.532767 0.952452 0.389918 -0.191442
C17   C     C_3   0.467244 0.047568 0.610119 -0.190783
C18   C     C_3   0.498395 0.877969 0.500330 -0.001308
H1    H     H_    0.559217 0.908970 0.300408 0.156228
H2    H     H_    0.309918 0.524038 0.097316 0.181951
H3    H     H_    0.885497 0.579740 0.573468 0.182279
H4    H     H_    0.113900 0.422674 0.424251 0.182634
H5    H     H_    0.800421 0.200491 0.224666 0.364198
H6    H     H_    0.200945 0.795374 0.779286 0.365232
H7    H     H_    0.440807 0.091080 0.699623 0.155243
H8    H     H_    0.723598 0.040660 0.463720 0.199402
H9    H     H_    0.276417 0.959346 0.536331 0.198562
H10   H     H_    0.660618 0.891941 0.664024 0.171760
H11   H     H_    0.339404 0.108091 0.336010 0.171662
H12   H     H_    0.384327 0.481086 0.895832 0.223159
H13   H     H_    0.616387 0.446939 0.104208 0.231879
H14   H     H_    0.690019 0.467274 0.902749 0.181483
N1    N     N_2   0.157310 0.552180 0.551120 0.048894
N2    N     N_2   0.842690 0.447820 0.448880 0.050497
O1    O     O_R   0.568940 0.489500 0.307530 -0.567602
O2    O     O_2   0.996580 0.226746 0.404981 -0.324178
O3    O     O_3   0.763147 0.265892 0.283405 -0.525660
O4    O     O_2   0.005341 0.773278 0.598230 -0.325968
O5    O     O_2   0.046663 0.604836 0.760873 -0.321313
O6    O     O_3   0.238177 0.729676 0.720795 -0.514575
O7    O     O_R   0.431060 0.510500 0.692470 -0.565073
O8    O     O_R   0.348880 0.522990 0.340350 -0.630160
O9    O     O_R   0.651120 0.477010 0.659650 -0.629917
O10   O     O_R   0.610000 0.297210 0.483560 -0.565944
O11   O     O_R   0.390000 0.702790 0.516440 -0.566471
O12   O     O_R   0.389940 0.330700 0.516390 -0.640511
O13   O     O_R   0.610060 0.669300 0.483610 -0.638644
O14   O     O_2   0.952509 0.391895 0.239267 -0.322225
S1    S     S_3+6 0.893793 0.331388 0.342596 0.089244
S2    S     S_3+6 0.106801 0.666694 0.659305 0.091101
Zn1   Zn    Zn3+2 0.646930 0.477640 0.478080 1.060884
Zn2   Zn    Zn3+2 0.353070 0.522360 0.521920 1.060077

loop_
_geom_bond_atom_site_label_1
_geom_bond_atom_site_label_2
_ccdc_geom_bond_type
C4    C16   S    
C15   C18   S    
C2    C4    S    
C11   O9    A    
O4    S2    D    
O3    S1    S    
C9    C10   S    
O7    Zn2   S    
C15   H9    S    
C4    H11   S    
C17   H7    S    
C8    H12   S    
C4    C15   S    
C2    C12   S    
C7    C8    S    
C12   O10   A    
C5    H2    S    
C14   H8    S    
C2    C17   S    
C9    N1    D    
O9    Zn1   S    
N2    Zn1   S    
C3    C14   S    
C13   C18   S    
C16   H1    S    
O6    S2    S    
O10   Zn1   S    
C16   C18   S    
C3    H10   S    
H6    O6    S    
C3    C17   S    
C5    C7    D    
C10   H3    S    
O1    Zn1   S    
C2    C14   S    
C14   C16   S    
C9    H4    S    
C7    H13   S    
C10   N2    D    
O12   Zn2   S    
C1    O8    A    
C1    C5    S    
O5    S2    D    
C13   O11   A    
C3    C18   S    
C12   O12   A    
C6    H14   S    
C11   O7    A    
C6    C11   S    
C15   C17   S    
C1    O1    A    
O14   S1    D    
N2    S1    S    
C6    C8    D    
O11   Zn2   S    
N1    S2    S    
H5    O3    S    
C13   O13   A    
O13   Zn1   S    
O2    S1    D    
O8    Zn2   S    
N1    Zn2   S    
