data_mof_unit_49771.cif
_audit_creation_date              2012-10-26T19:59:10-0400
_audit_creation_method            fapswitch 2.2
_symmetry_space_group_name_H-M    P1
_symmetry_Int_Tables_number       1
_space_group_crystal_system       triclinic
_cell_length_a                    7.417071
_cell_length_b                    8.692233
_cell_length_c                    15.813045
_cell_angle_alpha                 94.258184
_cell_angle_beta                  75.023699
_cell_angle_gamma                 102.673977
_cell_volume                      960.689184652

loop_
_atom_site_label
_atom_site_type_symbol
_atom_type_description
_atom_site_fract_x
_atom_site_fract_y
_atom_site_fract_z
_atom_type_partial_charge
C1    C     C_R   0.540791 0.799612 0.506940 0.564604
C2    C     C_R   0.616181 0.512743 0.333740 0.519243
C3    C     C_R   0.313331 0.466487 0.761048 -0.001118
C4    C     C_R   0.686380 0.527223 0.238396 -0.015750
C5    C     C_R   0.078144 0.341569 0.885864 -0.129720
C6    C     C_R   0.931228 0.625779 0.109953 -0.133534
C7    C     C_R   0.129326 0.382205 0.798016 -0.144622
C8    C     C_R   0.875984 0.595969 0.199306 -0.145614
C9    C     C_R   0.442180 0.515940 0.813314 -0.129355
C10   C     C_R   0.555392 0.481361 0.186800 -0.149921
C11   C     C_R   0.397249 0.471414 0.901205 0.027993
C12   C     C_R   0.459411 0.200694 0.493691 0.593071
C13   C     C_R   0.607730 0.507567 0.096286 0.021925
C14   C     C_R   0.210885 0.383606 0.937254 0.046371
C15   C     C_R   0.798142 0.585067 0.058704 0.045696
C16   C     C_R   0.532515 0.508953 0.953514 0.027321
C17   C     C_R   0.475068 0.463970 0.042955 0.024554
C18   C     C_3   0.810443 0.051406 0.582515 0.038367
C19   C     C_3   0.833407 0.968804 0.660204 -0.269308
C20   C     C_3   0.042471 0.973234 0.655278 -0.462440
C21   C     C_3   0.485593 0.939858 0.335690 0.010645
C22   C     C_3   0.504021 0.075877 0.275749 -0.269279
C23   C     C_R   0.287910 0.375135 0.075706 -0.144886
C24   C     C_3   0.626616 0.051091 0.184122 -0.485109
C25   C     C_R   0.724247 0.586860 0.919016 -0.143364
C26   C     C_R   0.159236 0.336136 0.023749 -0.131711
C27   C     C_R   0.853810 0.623047 0.970633 -0.133690
C28   C     C_2   0.552029 0.966594 0.519566 0.199189
C29   C     C_2   0.455735 0.036264 0.477485 0.226924
C30   C     C_R   0.383844 0.487926 0.666241 0.545797
Cu1   Cu    Cu3+1 0.322120 0.483240 0.490330 0.937880
Cu2   Cu    Cu3+1 0.677880 0.516760 0.509670 0.942769
H1    H     H_    0.017668 0.267769 0.051679 0.112460
H2    H     H_    0.781805 0.619540 0.851579 0.103618
H3    H     H_    0.003458 0.614241 0.569151 0.238724
H4    H     H_    0.996230 0.385141 0.431125 0.233693
H5    H     H_    0.880467 0.177841 0.585550 0.177685
H6    H     H_    0.887091 0.003911 0.519169 0.153335
H7    H     H_    0.770410 0.027998 0.722132 0.163912
H8    H     H_    0.755531 0.843937 0.661726 0.185261
H9    H     H_    0.105787 0.909137 0.595562 0.179971
H10   H     H_    0.053452 0.914987 0.713382 0.139676
H11   H     H_    0.123596 0.097018 0.654249 0.170239
H12   H     H_    0.999280 0.681920 0.941181 0.118459
H13   H     H_    0.425639 0.827679 0.304993 0.175499
H14   H     H_    0.629812 0.929508 0.340768 0.097162
H15   H     H_    0.360043 0.085767 0.271032 0.172387
H16   H     H_    0.571029 0.187680 0.303981 0.158987
H17   H     H_    0.772732 0.044697 0.187228 0.147061
H18   H     H_    0.637066 0.151449 0.142329 0.153506
H19   H     H_    0.561837 0.940406 0.153770 0.154899
H20   H     H_    0.411004 0.430203 0.219864 0.121209
H21   H     H_    0.578325 0.587117 0.782585 0.109444
H22   H     H_    0.979315 0.632080 0.238184 0.133598
H23   H     H_    0.027823 0.342945 0.758459 0.126053
H24   H     H_    0.935692 0.274437 0.913301 0.116751
H25   H     H_    0.077565 0.683091 0.081057 0.116755
H26   H     H_    0.236169 0.329716 0.140969 0.099996
N1    N     N_2   0.945180 0.542040 0.524240 -0.253118
N2    N     N_2   0.054820 0.457960 0.475760 -0.263939
O1    O     O_R   0.384450 0.714270 0.493720 -0.476603
O2    O     O_3   0.357097 0.957377 0.417786 -0.588673
O3    O     O_R   0.615550 0.285730 0.506280 -0.497601
O4    O     O_R   0.684880 0.742590 0.510050 -0.516808
O5    O     O_R   0.315120 0.257410 0.489950 -0.504327
O6    O     O_R   0.265540 0.477900 0.617090 -0.519869
O7    O     O_R   0.734460 0.522100 0.382910 -0.508933
O8    O     O_R   0.565970 0.506210 0.633420 -0.502327
O9    O     O_R   0.434030 0.493790 0.366580 -0.510158
O10   O     O_3   0.613953 0.043430 0.590834 -0.600911

loop_
_geom_bond_atom_site_label_1
_geom_bond_atom_site_label_2
_ccdc_geom_bond_type
Cu1   N2    S    
C18   O10   S    
C1    C28   S    
C2    C4    S    
C3    C9    A    
C7    H23   S    
C12   C29   S    
Cu1   O6    S    
C2    O9    A    
C12   O5    A    
Cu1   O1    S    
C5    H24   S    
C20   H10   S    
Cu1   Cu2   S    
C13   C17   A    
C25   H2    S    
C4    C8    A    
C10   H20   S    
C24   H19   S    
C22   H15   S    
C18   H6    S    
N1    N2    D    
C30   O6    A    
C21   C22   S    
C14   C26   A    
Cu2   O8    S    
C9    C11   A    
C6    H25   S    
C5    C14   A    
C17   C23   A    
C19   H7    S    
Cu2   O7    S    
C24   H17   S    
C3    C30   S    
C28   C29   D    
H4    N2    S    
C18   H5    S    
C22   H16   S    
C20   H9    S    
C23   H26   S    
C3    C7    A    
C13   C15   A    
C24   H18   S    
C11   C14   A    
C22   C24   S    
C25   C27   A    
C19   H8    S    
C4    C10   A    
C28   O10   S    
C1    O4    A    
C2    O7    A    
Cu1   O9    S    
C20   H11   S    
C9    H21   S    
Cu2   O4    S    
H3    N1    S    
C21   H14   S    
C11   C16   A    
C23   C26   A    
C8    H22   S    
C16   C25   A    
C5    C7    A    
C12   O3    A    
Cu1   O5    S    
C29   O2    S    
C18   C19   S    
C6    C8    A    
C26   H1    S    
Cu2   N1    S    
C21   O2    S    
C6    C15   A    
C15   C27   A    
C27   H12   S    
C30   O8    A    
C19   C20   S    
Cu2   O3    S    
C16   C17   A    
C21   H13   S    
C10   C13   A    
C1    O1    A    
