data_mof_unit_17913.cif
_audit_creation_date              2012-12-11T15:42:43-0500
_audit_creation_method            fapswitch 2.2
_symmetry_space_group_name_H-M    P1
_symmetry_Int_Tables_number       1
_space_group_crystal_system       triclinic
_cell_length_a                    6.93082
_cell_length_b                    14.644572
_cell_length_c                    16.118273
_cell_angle_alpha                 90.423139
_cell_angle_beta                  90.370451
_cell_angle_gamma                 89.784514
_cell_volume                      1635.89677184

loop_
_atom_site_label
_atom_site_type_symbol
_atom_type_description
_atom_site_fract_x
_atom_site_fract_y
_atom_site_fract_z
_atom_type_partial_charge
O1    O     O_R   0.505810 0.583360 0.413880 -0.517610
O2    O     O_R   0.175870 0.595480 0.585520 -0.551247
O3    O     O_R   0.005540 0.416640 0.586120 -0.549798
C1    C     C_R   0.345019 0.617328 0.614785 0.670826
O4    O     O_R   0.176100 0.594390 0.414490 -0.502612
O5    O     O_R   0.005770 0.415540 0.413870 -0.530108
C2    C     C_R   0.343001 0.614799 0.384015 0.780537
O6    O     O_R   0.505580 0.584460 0.586130 -0.549635
O7    O     O_3   0.339190 0.441320 0.500000 -0.386041
V1    V     V_3+5 0.064350 0.510890 0.500000 1.515242
O8    O     O_R   0.676050 0.404520 0.414480 -0.539451
C3    C     C_R   0.845365 0.380860 0.386865 0.778189
O9    O     O_R   0.675830 0.405610 0.585510 -0.550741
C4    C     C_R   0.845923 0.382997 0.613263 0.732374
V2    V     V_3+5 0.564340 0.489110 0.500000 1.476648
O10   O     O_3   0.839370 0.558680 0.500000 -0.354004
C5    C     C_2   0.721043 0.192978 0.771186 0.326428
C6    C     C_2   0.876790 0.182241 0.822313 -0.355833
H1    H     H_    0.996928 0.229220 0.818973 0.132138
C7    C     C_2   0.709268 0.271694 0.711971 -0.153854
C8    C     C_2   0.863620 0.310823 0.676802 -0.361893
H2    H     H_    0.567503 0.295634 0.693192 0.149496
H3    H     H_    0.008011 0.287047 0.691806 0.129164
C9    C     C_R   0.025061 0.254175 0.195688 0.450228
C10   C     C_R   0.018382 0.310883 0.266165 -0.224855
H4    H     H_    0.135610 0.357801 0.277700 0.204885
C11   C     C_R   0.858241 0.311700 0.319043 -0.130834
C12   C     C_R   0.711777 0.247526 0.305257 -0.117218
H5    H     H_    0.587929 0.245206 0.345810 0.122708
C13   C     C_R   0.727088 0.183489 0.240592 -0.173296
H6    H     H_    0.616509 0.131796 0.234510 0.158851
C14   C     C_R   0.881760 0.186027 0.184225 -0.185597
C15   C     C_R   0.199765 0.740296 0.705518 -0.170734
H7    H     H_    0.067717 0.737709 0.669288 0.124808
C16   C     C_R   0.212309 0.802253 0.771976 -0.222110
H8    H     H_    0.089963 0.846450 0.784200 0.135738
C17   C     C_R   0.380568 0.808380 0.821214 -0.069104
C18   C     C_R   0.537331 0.749097 0.802593 0.281394
C19   C     C_R   0.524929 0.689155 0.734083 -0.209338
H9    H     H_    0.646211 0.644645 0.720671 0.121874
C20   C     C_R   0.356659 0.683691 0.685163 -0.065623
C21   C     C_R   0.197868 0.692944 0.254479 0.458331
C22   C     C_R   0.216049 0.758606 0.191967 -0.222658
H10   H     H_    0.103439 0.765523 0.145587 0.175276
C23   C     C_R   0.380064 0.813374 0.185654 -0.125949
C24   C     C_R   0.527395 0.803894 0.244865 -0.093292
H11   H     H_    0.654431 0.846618 0.242366 0.120084
C25   C     C_R   0.509595 0.741009 0.309485 -0.120543
H12   H     H_    0.622331 0.738516 0.356136 0.165009
C26   C     C_R   0.348167 0.683087 0.315088 -0.184317
O11   O     O_R   0.230120 0.912300 0.917180 -0.552164
O12   O     O_R   0.559740 0.902430 0.088770 -0.542799
O13   O     O_R   0.729930 0.081310 0.089370 -0.548493
C27   C     C_R   0.391505 0.881290 0.118009 0.696036
O14   O     O_R   0.559840 0.901330 0.917750 -0.523848
O15   O     O_R   0.730030 0.080210 0.917120 -0.526967
C28   C     C_R   0.390823 0.878007 0.889505 0.689966
O16   O     O_R   0.230020 0.913400 0.089430 -0.549871
O17   O     O_3   0.396460 0.055470 0.003290 -0.338728
V3    V     V_3+5 0.671360 0.985960 0.003250 1.482525
O18   O     O_R   0.059740 0.091300 0.917690 -0.526325
C29   C     C_R   0.889800 0.111959 0.888232 0.772115
O19   O     O_R   0.059640 0.092400 0.088720 -0.497008
C30   C     C_R   0.890917 0.116339 0.116263 0.751391
V4    V     V_3+5 0.171350 0.007820 0.003190 1.540727
O20   O     O_3   0.896380 0.938200 0.003220 -0.381724
N1    N     N_2   0.567036 0.127700 0.773972 -0.482301
H13   H     H_    0.611171 0.060514 0.768995 0.239436
C31   C     C_3   0.385811 0.146730 0.732406 -0.549425
H14   H     H_    0.281297 0.091626 0.746099 0.186658
H15   H     H_    0.406839 0.149405 0.664200 0.179477
H16   H     H_    0.324007 0.212037 0.755633 0.200687
N2    N     N_2   0.707235 0.747946 0.852742 -0.534300
H17   H     H_    0.830363 0.730365 0.820688 0.246522
C32   C     C_3   0.689331 0.696358 0.928531 -0.415841
H18   H     H_    0.667188 0.622835 0.913888 0.191365
H19   H     H_    0.566527 0.721978 0.966165 0.188433
H20   H     H_    0.823395 0.703710 0.966065 0.207273
S1    S     S_3+6 0.994947 0.619741 0.246360 -0.011035
O21   O     O_2   0.877770 0.621517 0.324209 -0.337246
O22   O     O_2   0.866721 0.647732 0.175191 -0.355216
O23   O     O_3   0.075409 0.513440 0.228934 -0.494209
H21   H     H_    0.977209 0.485093 0.192098 0.385433
S2    S     S_3+6 0.201022 0.278834 0.119631 0.007224
O24   O     O_2   0.109722 0.276430 0.034783 -0.337529
O25   O     O_2   0.286285 0.371783 0.134667 -0.311475
O26   O     O_3   0.378389 0.200844 0.124002 -0.509113
H22   H     H_    0.476985 0.223172 0.084907 0.368415

loop_
_geom_bond_atom_site_label_1
_geom_bond_atom_site_label_2
_ccdc_geom_bond_type
O26   H22   S    
O19   V4    S    
N2    H17   S    
C16   H8    S    
S2    O26   S    
C1    O6    A    
C19   C20   A    
C23   C24   A    
C4    C8    S    
C12   H5    S    
C16   C17   A    
S2    O25   D    
O5    C3    A    
C13   H6    S    
O13   C30   A    
C1    C20   S    
V2    O10   S    
C5    C7    S    
C6    H1    S    
O11   V4    S    
C31   H15   S    
O12   V3    S    
O8    V2    S    
O11   C28   A    
O7    V1    S    
C25   C26   A    
V3    O20   S    
C21   S1    S    
O9    C4    A    
N2    C32   S    
O18   C29   A    
O13   V3    S    
O12   C27   A    
C15   H7    S    
C8    H3    S    
C24   C25   A    
C5    N1    S    
C3    C11   S    
N1    H13   S    
C9    C10   A    
C14   C30   S    
C19   H9    S    
S1    O22   D    
C6    C29   S    
C10   H4    S    
O15   V3    S    
N1    C31   S    
C31   H16   S    
O2    C1    A    
C32   H18   S    
C9    C14   A    
C17   C18   A    
C32   H19   S    
O16   V4    S    
O9    V2    S    
C5    C6    D    
S2    O24   D    
C22   C23   A    
O3    C4    A    
C21   C26   A    
O1    V2    S    
C25   H12   S    
C7    H2    S    
C23   C27   S    
V4    O20   S    
O6    V2    S    
O14   C28   A    
C22   H10   S    
O15   C29   A    
S1    O21   D    
C21   C22   A    
O2    V1    S    
O4    C2    A    
C27   O16   A    
C24   H11   S    
O1    C2    A    
C2    C26   S    
O5    V1    S    
S1    O23   S    
O8    C3    A    
C10   C11   A    
C15   C20   A    
C12   C13   A    
O7    V2    S    
O4    V1    S    
O3    V1    S    
V1    O10   S    
O17   V4    S    
C13   C14   A    
C18   C19   A    
C15   C16   A    
C9    S2    S    
C31   H14   S    
C32   H20   S    
O19   C30   A    
O18   V4    S    
O17   V3    S    
C7    C8    D    
O23   H21   S    
C11   C12   A    
O14   V3    S    
C17   C28   S    
C18   N2    S    
