data_mof_unit_22901.cif
_audit_creation_date              2013-03-05T16:33:42-0500
_audit_creation_method            fapswitch 2.2
_symmetry_space_group_name_H-M    P1
_symmetry_Int_Tables_number       1
_space_group_crystal_system       triclinic
_cell_length_a                    14.55745
_cell_length_b                    14.131268
_cell_length_c                    27.638064
_cell_angle_alpha                 89.939284
_cell_angle_beta                  90.123884
_cell_angle_gamma                 90.539365
_cell_volume                      5685.30233953

loop_
_atom_site_label
_atom_site_type_symbol
_atom_site_description
_atom_site_fract_x
_atom_site_fract_y
_atom_site_fract_z
_atom_type_partial_charge
O1    O     O_R   0.369060 0.579480 0.500000 -0.631907
O2    O     O_R   0.630940 0.420520 0.500000 -0.624180
O3    O     O_R   0.630940 0.579480 0.500000 -0.626599
O4    O     O_R   0.369060 0.420520 0.500000 -0.617163
C1    C     C_R   0.326361 0.499571 0.497792 0.934447
C2    C     C_R   0.673611 0.500513 0.498421 0.919781
O5    O     O_R   0.500010 0.579470 0.428760 -0.572264
O6    O     O_R   0.499990 0.420530 0.571240 -0.628924
O7    O     O_R   0.499990 0.579470 0.571240 -0.586079
O8    O     O_R   0.500010 0.420530 0.428760 -0.636163
C3    C     C_R   0.499674 0.499918 0.405735 0.889905
C4    C     C_R   0.500305 0.499887 0.594156 0.913116
Zn1   Zn    Zn3+2 0.500000 0.606140 0.500000 0.961009
Zn2   Zn    Zn3+2 0.500000 0.393860 0.500000 0.936800
C5    C     C_R   0.416928 0.497128 0.175488 0.571769
C6    C     C_R   0.587350 0.477243 0.824062 0.566435
O9    O     O_2   0.342208 0.526298 0.199901 -0.540835
O10   O     O_2   0.666650 0.491548 0.799822 -0.515539
N1    N     N_R   0.495432 0.477559 0.200424 -0.352675
N2    N     N_R   0.506440 0.475709 0.799074 -0.355617
C7    C     C_R   0.573077 0.446811 0.178104 0.567167
C8    C     C_R   0.423849 0.461648 0.821315 0.566152
C9    C     C_R   0.494822 0.573855 0.273933 -0.201678
C10   C     C_R   0.474627 0.566940 0.725657 -0.200678
C11   C     C_R   0.494595 0.581090 0.324379 0.438043
C12   C     C_R   0.473845 0.574999 0.675166 0.437365
C13   C     C_R   0.497871 0.408916 0.329618 -0.293026
C14   C     C_R   0.539146 0.417068 0.669760 -0.290533
C15   C     C_R   0.496405 0.402801 0.279658 -0.139219
C16   C     C_R   0.541478 0.410886 0.719759 -0.117693
C17   C     C_R   0.495194 0.485028 0.251832 0.244790
C18   C     C_R   0.508532 0.485249 0.747709 0.240055
C19   C     C_R   0.493793 0.454053 0.101184 -0.210063
C20   C     C_R   0.502685 0.451791 0.898349 -0.207550
C21   C     C_R   0.414211 0.486753 0.124944 -0.164159
C22   C     C_R   0.587698 0.465390 0.874543 -0.168298
C23   C     C_R   0.335476 0.510105 0.097567 0.415074
C24   C     C_R   0.669836 0.469650 0.901865 0.416393
C25   C     C_R   0.573348 0.431071 0.127992 -0.186592
C26   C     C_R   0.419922 0.447151 0.871555 -0.188151
C27   C     C_R   0.497688 0.497660 0.352649 -0.151003
C28   C     C_R   0.504319 0.498154 0.647026 -0.143493
H1    H     H_    0.499543 0.343616 0.350139 0.185452
H2    H     H_    0.564304 0.357967 0.648830 0.174889
H3    H     H_    0.496776 0.334027 0.262396 0.140240
H4    H     H_    0.567355 0.347524 0.736917 0.141201
C29   C     C_R   0.414664 0.443368 0.973253 -0.086102
C30   C     C_R   0.577320 0.424617 0.026377 -0.086375
C31   C     C_R   0.582605 0.443130 0.976112 -0.082138
C32   C     C_R   0.413990 0.463333 0.023436 -0.081962
C33   C     C_R   0.500099 0.444902 0.949159 -0.056543
C34   C     C_R   0.494654 0.446254 0.050412 -0.056437
C35   C     C_R   0.334049 0.422324 0.946239 0.415856
C36   C     C_R   0.650823 0.385943 0.053534 0.415081
C37   C     C_R   0.336393 0.426112 0.895616 0.452946
C38   C     C_R   0.649678 0.391186 0.104106 0.457015
O11   O     O_2   0.346195 0.462013 0.794566 -0.509118
O12   O     O_2   0.649719 0.432831 0.204616 -0.527374
C39   C     C_R   0.337783 0.504339 0.046965 0.412707
C40   C     C_R   0.666367 0.464881 0.952462 0.411260
H5    H     H_    0.447358 0.623274 0.747775 0.150622
H6    H     H_    0.495298 0.637317 0.251913 0.152091
C41   C     C_R   0.107378 0.569532 0.438152 0.526706
C42   C     C_R   0.890627 0.442629 0.434218 0.502530
C43   C     C_R   0.917684 0.579053 0.486963 0.459757
C44   C     C_R   0.084690 0.416890 0.478382 0.462498
C45   C     C_R   0.196738 0.572777 0.455590 -0.322050
C46   C     C_R   0.800787 0.436873 0.451292 -0.317952
C47   C     C_R   0.826176 0.576093 0.501094 -0.326880
C48   C     C_R   0.176197 0.418391 0.492877 -0.328878
H7    H     H_    0.240011 0.632841 0.446215 0.164822
H8    H     H_    0.755117 0.382356 0.437438 0.172135
H9    H     H_    0.800286 0.629799 0.525346 0.165075
H10   H     H_    0.203729 0.358370 0.512355 0.180659
C49   C     C_R   0.230604 0.498365 0.483763 -0.173009
C50   C     C_R   0.769386 0.502352 0.485227 -0.155964
C51   C     C_R   0.049262 0.494859 0.452745 -0.067232
C52   C     C_R   0.950590 0.509834 0.454665 -0.071979
C53   C     C_R   0.441359 0.104559 0.469231 -0.274598
C54   C     C_R   0.581497 0.895936 0.507285 -0.278354
C55   C     C_R   0.558462 0.105658 0.530996 -0.287332
C56   C     C_R   0.418277 0.894391 0.493131 -0.285365
H11   H     H_    0.395850 0.068164 0.444275 0.136065
H12   H     H_    0.646438 0.932514 0.512386 0.139924
H13   H     H_    0.603917 0.070125 0.556015 0.138333
H14   H     H_    0.353281 0.929689 0.488143 0.148214
C57   C     C_R   0.442564 0.204014 0.469717 0.019648
C58   C     C_R   0.580014 0.796504 0.507177 0.022460
C59   C     C_R   0.557383 0.205084 0.530356 0.026711
C60   C     C_R   0.419842 0.794997 0.493129 -0.012081
H15   H     H_    0.397578 0.242627 0.445720 0.128604
H16   H     H_    0.643326 0.758694 0.512818 0.131010
H17   H     H_    0.602406 0.244523 0.554315 0.123138
H18   H     H_    0.356479 0.756111 0.487533 0.136199
N3    N     N_R   0.500000 0.252470 0.500000 -0.092576
N4    N     N_R   0.500000 0.747530 0.500000 -0.090179
C61   C     C_R   0.499881 0.053418 0.500150 0.137028
C62   C     C_R   0.499886 0.946844 0.500175 0.140063
O13   O     O_3   0.258572 0.547433 0.119524 -0.546954
C63   C     C_3   0.191004 0.475514 0.123005 -0.171218
H19   H     H_    0.216914 0.412977 0.143262 0.137171
H20   H     H_    0.165748 0.453618 0.086665 0.171593
H21   H     H_    0.131580 0.503634 0.143320 0.187248
O14   O     O_3   0.753564 0.487072 0.879839 -0.538976
C64   C     C_3   0.801116 0.400807 0.876349 -0.167532
H22   H     H_    0.760696 0.346940 0.855744 0.130395
H23   H     H_    0.819485 0.372826 0.912696 0.165698
H24   H     H_    0.866081 0.413664 0.856398 0.191670
O15   O     O_3   0.433412 0.652511 0.653508 -0.629877
C65   C     C_3   0.493073 0.731479 0.657748 0.091387
H25   H     H_    0.560078 0.716731 0.639904 0.143200
H26   H     H_    0.505308 0.749935 0.696421 0.127367
C66   C     C_3   0.448922 0.816258 0.632826 -0.290202
H27   H     H_    0.433296 0.797910 0.594657 0.242446
H28   H     H_    0.383274 0.833298 0.651194 0.218930
C67   C     C_3   0.511978 0.903111 0.633965 -0.976994
H29   H     H_    0.526351 0.924382 0.671930 0.263514
H30   H     H_    0.478180 0.962834 0.615059 0.273507
H31   H     H_    0.577804 0.887892 0.615419 0.264146
O16   O     O_3   0.499392 0.669684 0.345355 -0.623241
C68   C     C_3   0.410174 0.707887 0.347317 0.082622
H32   H     H_    0.368282 0.668494 0.374508 0.140310
H33   H     H_    0.374830 0.704585 0.311480 0.134921
C69   C     C_3   0.417762 0.811679 0.362333 -0.299106
H34   H     H_    0.459831 0.817599 0.395742 0.247796
H35   H     H_    0.453147 0.852509 0.333333 0.218983
C70   C     C_3   0.323499 0.854432 0.371366 -0.984883
H36   H     H_    0.281725 0.852540 0.337704 0.269536
H37   H     H_    0.331877 0.929233 0.382946 0.266123
H38   H     H_    0.286927 0.814834 0.400370 0.264918
O17   O     O_3   0.254962 0.414215 0.870301 -0.523747
C71   C     C_3   0.245483 0.318119 0.857166 -0.200320
H39   H     H_    0.307023 0.291396 0.837791 0.138420
H40   H     H_    0.186057 0.310981 0.832209 0.191580
H41   H     H_    0.230828 0.273319 0.889264 0.131287
O18   O     O_3   0.726186 0.361299 0.129512 -0.527635
C72   C     C_3   0.712213 0.266445 0.143992 -0.221955
H42   H     H_    0.646621 0.256336 0.164099 0.138672
H43   H     H_    0.768862 0.246308 0.168742 0.187977
H44   H     H_    0.714351 0.218000 0.112456 0.136516
O19   O     O_3   0.251771 0.396645 0.968024 -0.561538
C73   C     C_3   0.260633 0.307485 0.990837 0.073174
H45   H     H_    0.299136 0.314711 0.025407 0.131804
H46   H     H_    0.296829 0.255725 0.967311 0.098585
C74   C     C_3   0.164787 0.268551 0.002112 -0.291910
H47   H     H_    0.127734 0.319607 0.025400 0.231811
H48   H     H_    0.125503 0.259765 0.967850 0.224250
C75   C     C_3   0.169512 0.173352 0.028050 -0.991663
H49   H     H_    0.206899 0.180975 0.062934 0.263433
H50   H     H_    0.205033 0.120668 0.005089 0.265350
H51   H     H_    0.098848 0.147081 0.035591 0.272181
O20   O     O_3   0.724436 0.341079 0.031938 -0.563917
C76   C     C_3   0.694210 0.256004 0.009845 0.077590
H52   H     H_    0.658137 0.271257 0.975277 0.131610
H53   H     H_    0.646944 0.214846 0.033844 0.098915
C77   C     C_3   0.777814 0.195297 0.998749 -0.298849
H54   H     H_    0.825826 0.235559 0.975033 0.225878
H55   H     H_    0.814198 0.178305 0.033033 0.224417
C78   C     C_3   0.750023 0.103352 0.973540 -0.994717
H56   H     H_    0.703111 0.061145 0.996949 0.265711
H57   H     H_    0.812228 0.060937 0.966093 0.271636
H58   H     H_    0.715148 0.118764 0.938656 0.262831
O21   O     O_3   0.266499 0.544201 0.021046 -0.544105
C79   C     C_3   0.292615 0.636820 0.007481 -0.218522
H59   H     H_    0.353023 0.636540 0.982871 0.138205
H60   H     H_    0.307158 0.681660 0.039756 0.158411
H61   H     H_    0.234781 0.669375 0.987499 0.193010
O22   O     O_3   0.745271 0.486949 0.978237 -0.545018
C80   C     C_3   0.742359 0.583242 0.991417 -0.211134
H62   H     H_    0.683611 0.597684 0.015945 0.136152
H63   H     H_    0.739178 0.629831 0.958953 0.161292
H64   H     H_    0.806357 0.601286 0.011354 0.194443
O23   O     O_3   0.074565 0.645452 0.411845 -0.609357
C81   C     C_3   0.065284 0.619136 0.362653 0.090519
H65   H     H_    0.014872 0.667680 0.345778 0.174970
H66   H     H_    0.036856 0.546140 0.357866 0.123517
C82   C     C_3   0.157241 0.629966 0.336056 -0.428761
H67   H     H_    0.183675 0.703338 0.340784 0.237097
H68   H     H_    0.208274 0.580381 0.351565 0.213318
C83   C     C_3   0.146916 0.609247 0.282156 -0.867941
H69   H     H_    0.122227 0.535435 0.276557 0.263836
H70   H     H_    0.214551 0.618004 0.264118 0.296397
H71   H     H_    0.097589 0.659030 0.265345 0.259471
O24   O     O_3   0.922854 0.377488 0.401044 -0.607622
C84   C     C_3   0.879505 0.390493 0.355523 0.060399
H72   H     H_    0.934001 0.404302 0.328256 0.155726
H73   H     H_    0.831953 0.452146 0.353766 0.127985
C85   C     C_3   0.827475 0.300130 0.341205 -0.360248
H74   H     H_    0.876822 0.240961 0.337851 0.236455
H75   H     H_    0.776838 0.281251 0.369698 0.219949
C86   C     C_3   0.776675 0.312546 0.293251 -0.873294
H76   H     H_    0.724655 0.369228 0.296439 0.292351
H77   H     H_    0.740872 0.245484 0.283508 0.251599
H78   H     H_    0.825766 0.331073 0.263939 0.275740
O25   O     O_3   0.974275 0.651686 0.503184 -0.600611
C87   C     C_3   0.007573 0.629466 0.549807 0.064644
H79   H     H_    0.040124 0.558535 0.550379 0.116638
H80   H     H_    0.950714 0.631041 0.576681 0.134110
C88   C     C_3   0.080644 0.702695 0.564049 -0.306732
H81   H     H_    0.134922 0.705387 0.535823 0.237857
H82   H     H_    0.048734 0.773685 0.566422 0.223429
C89   C     C_3   0.124945 0.678460 0.612541 -0.925151
H83   H     H_    0.072237 0.676089 0.641528 0.265223
H84   H     H_    0.177142 0.733308 0.621889 0.270382
H85   H     H_    0.159538 0.608833 0.610426 0.271980
O26   O     O_3   0.030130 0.338458 0.488206 -0.599699
C90   C     C_3   0.999270 0.342561 0.536547 0.066744
H86   H     H_    0.965865 0.411427 0.544289 0.114769
H87   H     H_    0.057651 0.332145 0.562045 0.136913
C91   C     C_3   0.927952 0.264110 0.544505 -0.284877
H88   H     H_    0.871501 0.271670 0.517645 0.235947
H89   H     H_    0.960543 0.194125 0.539024 0.225023
C92   C     C_3   0.887459 0.268268 0.595328 -0.981723
H90   H     H_    0.942446 0.259998 0.622898 0.270213
H91   H     H_    0.836390 0.210113 0.599951 0.263215
H92   H     H_    0.852351 0.336827 0.601027 0.266305

loop_
_geom_bond_atom_site_label_1
_geom_bond_atom_site_label_2
_geom_bond_distance
_ccdc_geom_bond_type
C51   C52   1.454972 S    
C86   H77   1.110354 S    
C58   N4    1.363523 A    
C59   N3    1.362504 A    
C10   H5    1.083059 S    
C60   H18   1.080161 S    
C57   H15   1.081935 S    
C13   C15   1.383694 A    
C56   C62   1.407645 A    
C80   H62   1.112962 S    
O21   C79   1.410078 S    
C75   H51   1.110429 S    
C54   H12   1.082207 S    
O3    C2    1.283075 A    
N1    C17   1.424872 S    
C8    O11   1.349432 S    
C53   C57   1.405446 A    
C61   C62   1.506022 S    
O23   C81   1.415731 S    
O24   C84   1.418840 S    
C19   C34   1.407764 A    
C30   C36   1.419035 A    
C64   H23   1.112186 S    
C20   C33   1.408118 A    
C40   O22   1.383587 S    
C31   C40   1.415800 A    
C89   H84   1.110559 S    
C85   C86   1.527065 S    
O1    C1    1.285296 A    
C32   C39   1.416118 A    
C42   C46   1.392964 A    
C79   H59   1.112954 S    
N1    C7    1.363723 A    
C75   H50   1.110878 S    
C74   H47   1.111562 S    
C44   O26   1.384444 S    
C84   H73   1.118801 S    
C45   H7    1.083775 S    
C67   H29   1.110686 S    
C47   C50   1.394572 A    
C85   H75   1.110439 S    
C14   C28   1.404576 A    
C10   C18   1.398442 A    
C41   C51   1.405592 A    
O7    Zn1   2.004286 S    
C81   H65   1.110847 S    
C68   C69   1.527648 S    
C24   O14   1.383509 S    
C65   H26   1.114054 S    
C38   O18   1.384460 S    
C65   H25   1.115450 S    
C19   C25   1.413686 A    
C9    H6    1.083242 S    
C78   H56   1.110899 S    
C67   H30   1.110486 S    
C71   H39   1.113917 S    
C82   H68   1.111040 S    
C89   H85   1.111170 S    
C57   N3    1.362305 A    
C48   H10   1.083662 S    
C88   C89   1.526053 S    
C4    C28   1.462457 S    
C78   H57   1.110370 S    
C47   H9    1.083898 S    
C76   H53   1.115940 S    
C20   C22   1.414278 A    
O3    Zn1   1.946502 S    
C83   H71   1.110760 S    
C46   H8    1.082578 S    
C29   C35   1.418880 A    
C66   C67   1.526004 S    
C55   C59   1.405347 A    
C26   C37   1.416159 A    
C35   C37   1.400547 A    
C72   H42   1.113792 S    
C88   H81   1.111932 S    
C54   C58   1.405066 A    
O4    Zn2   1.946503 S    
C80   H63   1.113460 S    
C73   C74   1.527624 S    
O2    C2    1.285452 A    
C87   C88   1.528277 S    
C5    C21   1.405188 A    
O14   C64   1.411020 S    
C74   H48   1.111633 S    
C83   H70   1.110394 S    
C41   O23   1.383568 S    
C29   C32   1.415737 A    
C41   C45   1.386659 A    
C92   H91   1.110444 S    
C72   H44   1.109543 S    
C36   C38   1.399900 A    
C68   H33   1.115950 S    
C89   H83   1.110793 S    
Zn1   N4    1.998020 S    
C90   H86   1.113145 S    
C16   C18   1.394230 A    
C58   H16   1.080614 S    
C75   H49   1.110959 S    
C87   H80   1.113682 S    
O8    Zn2   2.004289 S    
C11   C27   1.414689 A    
O26   C90   1.411900 S    
C87   H79   1.112821 S    
C84   C85   1.530505 S    
C29   C33   1.412000 A    
C31   C33   1.412361 A    
C92   H90   1.110828 S    
C14   H2    1.083490 S    
C63   H21   1.109283 S    
C86   H76   1.111152 S    
C15   H3    1.083163 S    
C85   H74   1.111543 S    
C9    C17   1.396606 A    
C1    C49   1.446039 S    
O1    Zn1   1.939545 S    
C5    N1    1.363682 A    
C70   H37   1.110302 S    
C90   C91   1.527773 S    
C72   H43   1.109289 S    
C13   C27   1.406987 A    
O5    C3    1.292343 A    
C25   C38   1.415604 A    
C12   O15   1.383395 S    
O5    Zn1   2.005074 S    
O6    C4    1.288453 A    
C82   C83   1.525325 S    
C8    C26   1.404537 A    
C63   H20   1.112037 S    
C78   H58   1.110969 S    
C6    N2    1.364114 A    
C64   H24   1.109187 S    
C76   C77   1.527424 S    
C60   N4    1.364237 A    
C65   C66   1.527628 S    
C88   H82   1.111526 S    
C68   H32   1.114135 S    
C23   C39   1.401493 A    
C81   C82   1.534903 S    
C69   C70   1.525690 S    
C24   C40   1.400946 A    
C71   H40   1.109170 S    
C30   C31   1.415499 A    
N2    C8    1.364315 A    
C91   H88   1.112056 S    
C37   O17   1.384178 S    
C80   H64   1.109147 S    
C73   H46   1.115871 S    
C45   C49   1.400530 A    
O17   C71   1.411451 S    
C11   O16   1.381325 S    
Zn2   N3    1.998020 S    
C23   O13   1.383691 S    
C74   C75   1.525749 S    
O16   C68   1.412375 S    
C12   C28   1.411823 A    
C69   H35   1.111682 S    
C66   H27   1.109171 S    
N2    C18   1.426224 S    
C92   H92   1.111141 S    
C5    O9    1.349271 S    
C44   C51   1.410497 A    
O22   C80   1.410071 S    
O6    Zn2   2.005071 S    
C43   C52   1.412675 A    
C21   C23   1.413514 A    
C83   H69   1.110915 S    
C42   C52   1.402351 A    
C7    C25   1.403007 A    
C53   C61   1.409063 A    
C77   C78   1.525808 S    
C10   C12   1.400031 A    
O4    C1    1.284816 A    
C36   O20   1.386699 S    
C67   H31   1.110631 S    
C2    C50   1.441886 S    
C32   C34   1.412158 A    
C91   C92   1.525895 S    
C64   H22   1.113997 S    
C91   H89   1.111563 S    
C56   C60   1.404956 A    
O13   C63   1.411028 S    
C16   H4    1.083129 S    
C79   H60   1.113501 S    
C86   H78   1.110895 S    
C7    O12   1.349462 S    
C15   C17   1.392969 A    
C56   H14   1.082234 S    
O15   C65   1.412408 S    
C6    C22   1.405045 A    
C22   C24   1.413661 A    
C53   H11   1.082353 S    
C46   C50   1.398745 A    
C19   C21   1.414545 A    
C84   H72   1.111175 S    
C44   C48   1.390184 A    
C54   C62   1.407973 A    
C71   H41   1.109219 S    
C43   C47   1.389243 A    
C77   H55   1.111650 S    
C63   H19   1.114005 S    
C55   C61   1.409018 A    
C14   C16   1.384913 A    
C3    C27   1.467797 S    
C35   O19   1.386830 S    
C79   H61   1.109140 S    
C59   H17   1.081990 S    
O2    Zn2   1.939544 S    
O7    C4    1.290145 A    
C81   H66   1.115729 S    
C70   H38   1.111061 S    
C39   O21   1.383553 S    
O8    C3    1.289230 A    
O25   C87   1.411847 S    
C42   O24   1.385602 S    
C13   H1    1.083063 S    
C30   C34   1.412009 A    
C9    C11   1.398106 A    
C77   H54   1.111558 S    
O20   C76   1.414988 S    
C6    O10   1.349436 S    
C82   H67   1.110297 S    
C48   C49   1.396912 A    
C90   H87   1.113617 S    
C73   H45   1.110988 S    
C20   C26   1.413877 A    
C66   H28   1.111611 S    
C76   H52   1.111104 S    
O19   C73   1.415149 S    
C55   H13   1.082427 S    
O18   C72   1.411485 S    
C70   H36   1.110579 S    
C69   H34   1.109696 S    
C43   O25   1.384417 S    
