data_mof_unit_9703.cif
_audit_creation_date              2013-03-05T16:35:44-0500
_audit_creation_method            fapswitch 2.2
_symmetry_space_group_name_H-M    P1
_symmetry_Int_Tables_number       1
_space_group_crystal_system       triclinic
_cell_length_a                    19.429133
_cell_length_b                    9.080941
_cell_length_c                    7.76494
_cell_angle_alpha                 89.998155
_cell_angle_beta                  89.996239
_cell_angle_gamma                 89.999266
_cell_volume                      1370.00571331

loop_
_atom_site_label
_atom_site_type_symbol
_atom_site_description
_atom_site_fract_x
_atom_site_fract_y
_atom_site_fract_z
_atom_type_partial_charge
O1    O     O_R   0.500000 0.288390 0.642760 -0.575203
O2    O     O_R   0.500000 0.711610 0.357240 -0.574395
O3    O     O_R   0.500000 0.711610 0.642760 -0.574293
O4    O     O_R   0.500000 0.288390 0.357240 -0.574372
C1    C     C_R   0.499996 0.219977 0.500001 0.924363
C2    C     C_R   0.500000 0.780023 0.499998 0.925468
O5    O     O_R   0.400140 0.500000 0.642830 -0.539323
O6    O     O_R   0.599860 0.500000 0.357170 -0.539243
O7    O     O_R   0.599860 0.500000 0.642830 -0.539125
O8    O     O_R   0.400140 0.500000 0.357170 -0.539212
C3    C     C_R   0.366820 0.499990 0.500007 0.967900
C4    C     C_R   0.633179 0.499995 0.499993 0.968218
Cu1   Cu    Cu3+1 0.500000 0.500000 0.669080 1.152019
Cu2   Cu    Cu3+1 0.500000 0.500000 0.330920 1.152287
C5    C     C_1   0.499996 0.065357 0.500000 -0.142576
C6    C     C_1   0.499998 0.934643 0.499997 -0.141720
N1    N     N_1   0.500000 0.500000 0.076820 0.013408
N2    N     N_1   0.500000 0.500000 0.923180 0.013359
C7    C     C_R   0.253271 0.415058 0.623425 0.381846
C8    C     C_R   0.746705 0.414970 0.376590 0.381787
C9    C     C_R   0.746709 0.585043 0.623308 0.381749
C10   C     C_R   0.253307 0.585038 0.376608 0.381786
C11   C     C_R   0.181204 0.432237 0.636090 0.031641
C12   C     C_R   0.818767 0.432155 0.363815 0.031599
C13   C     C_R   0.818773 0.567884 0.636018 0.031600
C14   C     C_R   0.181247 0.567861 0.363806 0.031624
C15   C     C_R   0.145200 0.500034 0.499905 -0.049251
C16   C     C_R   0.854790 0.500025 0.499900 -0.049212
C17   C     C_R   0.290281 0.500021 0.500017 -0.327746
C18   C     C_R   0.709716 0.499997 0.499969 -0.327867
N3    N     N_R   0.034217 0.628900 0.499258 -0.212524
N4    N     N_R   0.965762 0.371159 0.500142 -0.212441
N5    N     N_R   0.965759 0.628899 0.499576 -0.212440
N6    N     N_R   0.034220 0.371162 0.500438 -0.212494
C19   C     C_R   0.930485 0.500028 0.499870 0.436456
C20   C     C_R   0.069498 0.500032 0.499841 0.436507
S1    S     S_3+6 0.295163 0.276805 0.749420 0.039874
O9    O     O_2   0.327533 0.346793 0.904990 -0.247678
O10   O     O_2   0.245219 0.160324 0.807102 -0.249381
O11   O     O_3   0.356110 0.193869 0.630991 -0.556246
H1    H     H_    0.373166 0.112384 0.704393 0.381331
S2    S     S_3+6 0.704799 0.276547 0.250902 0.039825
O12   O     O_2   0.672372 0.346288 0.095250 -0.246955
O13   O     O_2   0.754757 0.160037 0.193364 -0.250133
O14   O     O_3   0.643893 0.193756 0.369621 -0.556778
H2    H     H_    0.627610 0.110684 0.297643 0.381650
S3    S     S_3+6 0.704803 0.723483 0.748988 0.039851
O15   O     O_2   0.672383 0.653776 0.904679 -0.246716
O16   O     O_2   0.754763 0.840004 0.806464 -0.250304
O17   O     O_3   0.643889 0.806238 0.630274 -0.556930
H3    H     H_    0.627815 0.889712 0.701896 0.381744
S4    S     S_3+6 0.295223 0.723506 0.250983 0.040057
O18   O     O_2   0.327678 0.653834 0.095322 -0.246579
O19   O     O_2   0.245260 0.840011 0.193460 -0.250254
O20   O     O_3   0.356106 0.806271 0.369774 -0.556467
H4    H     H_    0.372175 0.889778 0.298191 0.381777
C21   C     C_3   0.142349 0.382723 0.795218 -0.669882
H5    H     H_    0.101466 0.463263 0.828664 0.196965
H6    H     H_    0.118411 0.273480 0.772403 0.266976
H7    H     H_    0.176245 0.377793 0.909998 0.262927
C22   C     C_3   0.857601 0.382530 0.204710 -0.669855
H8    H     H_    0.898443 0.463113 0.171081 0.196931
H9    H     H_    0.881596 0.273365 0.227679 0.266888
H10   H     H_    0.823682 0.377403 0.089984 0.263061
C23   C     C_3   0.857618 0.617525 0.795086 -0.669869
H11   H     H_    0.823705 0.622678 0.909834 0.263064
H12   H     H_    0.898459 0.536939 0.828700 0.196928
H13   H     H_    0.881615 0.726683 0.772077 0.266893
C24   C     C_3   0.142447 0.617434 0.204636 -0.669809
H14   H     H_    0.176395 0.622557 0.089953 0.263029
H15   H     H_    0.101619 0.536828 0.170998 0.196916
H16   H     H_    0.118442 0.726601 0.227525 0.266969

loop_
_geom_bond_atom_site_label_1
_geom_bond_atom_site_label_2
_geom_bond_distance
_ccdc_geom_bond_type
C22   H10   1.109121 S    
C8    S2    1.787661 S    
O20   H4    0.990665 S    
N3    N5    1.330066 A    
S1    O9    1.502954 D    
C10   C17   1.424919 A    
C11   C15   1.409485 A    
C15   C20   1.470828 S    
S1    O11   1.677782 S    
C9    C18   1.424925 A    
C7    C11   1.412280 A    
S3    O15   1.502933 D    
O3    Cu1   1.932449 S    
S4    O20   1.677857 S    
O6    C4    1.284165 A    
O3    C2    1.270736 A    
C23   H13   1.109895 S    
C11   C21   1.516129 S    
C9    C13   1.412243 A    
O17   H3    0.990666 S    
C14   C15   1.409462 A    
C13   C23   1.516106 S    
S1    O10   1.503671 D    
C8    C18   1.424939 A    
Cu1   Cu2   2.625793 S    
C13   C16   1.409426 A    
O5    C3    1.284172 A    
Cu2   N1    1.973070 S    
C21   H5    1.110541 S    
O2    C2    1.270745 A    
C10   C14   1.412226 A    
S2    O13   1.503703 D    
Cu1   N2    1.973070 S    
C12   C22   1.516112 S    
O1    C1    1.270752 A    
C10   S4    1.787664 S    
O11   H1    0.991062 S    
N5    C19   1.356202 A    
S4    O19   1.503714 D    
N1    N2    1.193006 T    
S3    O17   1.677859 S    
N6    C20   1.356233 A    
C24   H14   1.109117 S    
O4    Cu2   1.932450 S    
C22   H8    1.110547 S    
O2    Cu2   1.932462 S    
O7    C4    1.284186 A    
C9    S3    1.787657 S    
C1    C5    1.404092 S    
C21   H6    1.109896 S    
O8    C3    1.284198 A    
C2    C6    1.404091 S    
C5    C6    1.187010 T    
C7    C17   1.424959 A    
N4    C19   1.356200 A    
C12   C16   1.409418 A    
O5    Cu1   1.950886 S    
C24   H16   1.109891 S    
O1    Cu1   1.932463 S    
S4    O18   1.502927 D    
C3    C17   1.487079 S    
S3    O16   1.503711 D    
C23   H11   1.109124 S    
S2    O12   1.502941 D    
C24   H15   1.110548 S    
C14   C24   1.516103 S    
O7    Cu1   1.950857 S    
N3    C20   1.356230 A    
C21   H7    1.109111 S    
O6    Cu2   1.950884 S    
C7    S1    1.787691 S    
C4    C18   1.487042 S    
O14   H2    0.990761 S    
C22   H9    1.109893 S    
C8    C12   1.412242 A    
C16   C19   1.470688 S    
O8    Cu2   1.950859 S    
O4    C1    1.270728 A    
C23   H12   1.110549 S    
S2    O14   1.677842 S    
N4    N6    1.330068 A    
