data_mof_unit_66948.cif
_audit_creation_date              2013-03-05T15:57:30-0500
_audit_creation_method            fapswitch 2.2
_symmetry_space_group_name_H-M    P1
_symmetry_Int_Tables_number       1
_space_group_crystal_system       triclinic
_cell_length_a                    17.548573
_cell_length_b                    19.011943
_cell_length_c                    8.320701
_cell_angle_alpha                 89.976265
_cell_angle_beta                  101.210711
_cell_angle_gamma                 90.303865
_cell_volume                      2723.04678617

loop_
_atom_site_label
_atom_site_type_symbol
_atom_site_description
_atom_site_fract_x
_atom_site_fract_y
_atom_site_fract_z
_atom_type_partial_charge
P1    P     P_3+3 0.834140 0.419320 0.003900 0.473353
P2    P     P_3+3 0.834140 0.580680 0.503900 0.479294
P3    P     P_3+3 0.334140 0.919320 0.003900 0.476251
P4    P     P_3+3 0.334140 0.080680 0.503900 0.475110
O1    O     O_2   0.841960 0.394640 0.833410 -0.380379
O2    O     O_2   0.841960 0.605360 0.333410 -0.380737
O3    O     O_2   0.341960 0.894640 0.833410 -0.369893
O4    O     O_2   0.341960 0.105360 0.333410 -0.377445
O5    O     O_3   0.907950 0.463080 0.102990 -0.420085
O6    O     O_3   0.907950 0.536920 0.602990 -0.418406
O7    O     O_3   0.407950 0.963080 0.102990 -0.416509
O8    O     O_3   0.407950 0.036920 0.602990 -0.415279
O9    O     O_3   0.972780 0.329600 0.629720 -0.384812
O10   O     O_3   0.972780 0.670400 0.129720 -0.390287
O11   O     O_3   0.472780 0.829600 0.629720 -0.381188
O12   O     O_3   0.472780 0.170400 0.129720 -0.386827
O13   O     O_2   0.851883 0.268475 0.712896 -0.387274
O14   O     O_2   0.852753 0.731159 0.212276 -0.385010
O15   O     O_2   0.344628 0.778645 0.704058 -0.379075
O16   O     O_2   0.351733 0.231376 0.211035 -0.388908
O17   O     O_3   0.758709 0.478960 0.959269 -0.524127
O18   O     O_3   0.754572 0.523994 0.459467 -0.515840
O19   O     O_3   0.255639 0.976068 0.961306 -0.524866
O20   O     O_3   0.255151 0.023845 0.459134 -0.523922
O21   O     O_3   0.960869 0.188767 0.638507 -0.467012
O22   O     O_3   0.962611 0.811492 0.142180 -0.458397
O23   O     O_3   0.451047 0.691665 0.665738 -0.470868
O24   O     O_3   0.461686 0.311133 0.138089 -0.468227
H1    H     H_    0.076485 0.215699 0.704367 0.125162
H2    H     H_    0.078284 0.788096 0.218093 0.126211
H3    H     H_    0.558448 0.726998 0.627528 0.081695
H4    H     H_    0.576495 0.282399 0.203962 0.124492
C1    C     C_3   0.062939 0.129494 0.531518 -0.096073
C2    C     C_3   0.065186 0.870967 0.037146 -0.101860
C3    C     C_3   0.554542 0.615561 0.648468 -0.051549
C4    C     C_3   0.565689 0.370967 0.038449 -0.103266
H5    H     H_    0.572046 0.618862 0.783207 0.177646
H6    H     H_    0.629929 0.373067 0.073128 0.062437
H7    H     H_    0.127024 0.126310 0.567081 0.065523
H8    H     H_    0.128740 0.877215 0.077616 0.066405
P5    P     P_3+3 0.165830 0.418670 0.685610 0.477431
P6    P     P_3+3 0.165830 0.581330 0.185610 0.477496
P7    P     P_3+3 0.665830 0.918670 0.685610 0.479364
P8    P     P_3+3 0.665830 0.081330 0.185610 0.476664
P9    P     P_3+3 0.099478 0.265941 0.111515 0.458212
P10   P     P_3+3 0.101148 0.732953 0.612568 0.458300
P11   P     P_3+3 0.600929 0.767404 0.113010 0.462956
P12   P     P_3+3 0.600368 0.233893 0.611200 0.454106
O25   O     O_2   0.157990 0.394030 0.856030 -0.342896
O26   O     O_2   0.157990 0.605970 0.356030 -0.369509
O27   O     O_2   0.657990 0.894030 0.856030 -0.370741
O28   O     O_2   0.657990 0.105970 0.356030 -0.340251
O29   O     O_3   0.027110 0.329490 0.059550 -0.388324
O30   O     O_3   0.027110 0.670510 0.559550 -0.393517
O31   O     O_3   0.527110 0.829490 0.059550 -0.392888
O32   O     O_3   0.527110 0.170510 0.559550 -0.390224
O33   O     O_2   0.153866 0.272683 0.986536 -0.388508
O34   O     O_2   0.155440 0.726881 0.487469 -0.381041
O35   O     O_2   0.655911 0.773696 0.989148 -0.371065
O36   O     O_2   0.654667 0.227267 0.486168 -0.391708
O37   O     O_3   0.239450 0.481826 0.716796 -0.534555
O38   O     O_3   0.240268 0.519173 0.208260 -0.536946
O39   O     O_3   0.740666 0.981137 0.708634 -0.536732
O40   O     O_3   0.738686 0.018329 0.216019 -0.540246
O41   O     O_3   0.051357 0.186665 0.056869 -0.478781
O42   O     O_3   0.053058 0.811727 0.560304 -0.477864
O43   O     O_3   0.552110 0.688975 0.057406 -0.488568
O44   O     O_3   0.553126 0.313150 0.557632 -0.481943
C5    C     C_3   0.975192 0.191402 0.085003 0.384575
C6    C     C_3   0.979563 0.806723 0.602569 0.388623
C7    C     C_3   0.476953 0.694339 0.090748 0.383788
C8    C     C_3   0.476206 0.306765 0.580748 0.373712
H9    H     H_    0.940027 0.226764 0.993547 0.157763
H10   H     H_    0.940205 0.773487 0.512151 0.152176
H11   H     H_    0.437828 0.720156 0.986614 0.162637
H12   H     H_    0.442014 0.272177 0.485430 0.164530
H13   H     H_    0.974068 0.210410 0.210842 0.010092
H14   H     H_    0.982568 0.785131 0.727851 0.008500
H15   H     H_    0.475204 0.724068 0.204815 0.023376
H16   H     H_    0.473649 0.286334 0.704938 0.017055
C9    C     C_3   0.938357 0.119092 0.063857 -0.715109
C10   C     C_3   0.944901 0.879054 0.597260 -0.735018
C11   C     C_3   0.447279 0.621380 0.111167 -0.762672
C12   C     C_3   0.439405 0.378455 0.563319 -0.706576
H17   H     H_    0.391361 0.624229 0.151788 0.201797
H18   H     H_    0.442619 0.400775 0.442163 0.310564
H19   H     H_    0.876948 0.121966 0.075880 0.185914
H20   H     H_    0.888442 0.875460 0.635669 0.192790
H21   H     H_    0.941188 0.098917 0.940642 0.308975
H22   H     H_    0.937938 0.899446 0.470956 0.304581
H23   H     H_    0.439711 0.594071 0.992267 0.309275
H24   H     H_    0.470728 0.412852 0.661157 0.301083
C13   C     C_3   0.221527 0.460331 0.293685 0.445000
C14   C     C_3   0.212811 0.545943 0.764613 0.471809
C15   C     C_3   0.711269 0.953840 0.261214 0.469856
C16   C     C_3   0.722578 0.039509 0.795846 0.441412
H25   H     H_    0.234039 0.472655 0.425382 0.119194
H26   H     H_    0.173574 0.538728 0.852872 0.096933
H27   H     H_    0.671693 0.960155 0.349044 0.096604
H28   H     H_    0.736994 0.027201 0.927398 0.118596
H29   H     H_    0.160035 0.443624 0.254657 0.089518
H30   H     H_    0.182115 0.574851 0.655669 0.120757
H31   H     H_    0.680806 0.925308 0.151227 0.124101
H32   H     H_    0.660767 0.055144 0.760660 0.090088
C17   C     C_3   0.273244 0.400197 0.262472 -0.855345
C18   C     C_3   0.283835 0.587510 0.845405 -0.916595
C19   C     C_3   0.781957 0.912686 0.341314 -0.932814
C20   C     C_3   0.772955 0.100676 0.761871 -0.861311
H33   H     H_    0.331616 0.420351 0.253386 0.302288
H34   H     H_    0.298440 0.572335 0.975701 0.264479
H35   H     H_    0.796456 0.928519 0.471193 0.267826
H36   H     H_    0.831205 0.081625 0.750559 0.301854
H37   H     H_    0.280377 0.361183 0.361928 0.196750
H38   H     H_    0.274683 0.644805 0.832698 0.229081
H39   H     H_    0.772260 0.855345 0.329545 0.231864
H40   H     H_    0.780562 0.139878 0.861120 0.197909
H41   H     H_    0.246571 0.373009 0.147785 0.283188
H42   H     H_    0.333858 0.574813 0.788391 0.330143
H43   H     H_    0.832073 0.925769 0.283749 0.316354
H44   H     H_    0.745039 0.127224 0.647552 0.285528
Ba1   Ba    Ba6+2 1.000000 0.447380 0.844850 1.563708
Ba2   Ba    Ba6+2 1.000000 0.552620 0.344850 1.567099
Ba3   Ba    Ba6+2 0.500000 0.947380 0.844850 1.566731
Ba4   Ba    Ba6+2 0.500000 0.052620 0.344850 1.564288
C21   C     C_3   0.789229 0.546986 0.950245 0.349411
C22   C     C_3   0.779325 0.454471 0.448364 0.293544
C23   C     C_3   0.281417 0.045098 0.944958 0.295659
C24   C     C_3   0.280260 0.954745 0.444332 0.299695
H45   H     H_    0.811322 0.551665 0.835180 0.040972
H46   H     H_    0.795843 0.447394 0.327953 0.042911
H47   H     H_    0.301047 0.049795 0.827067 0.047689
H48   H     H_    0.299812 0.949306 0.326540 0.046174
H49   H     H_    0.835738 0.560646 0.055351 0.128078
H50   H     H_    0.828474 0.439968 0.547244 0.123195
H51   H     H_    0.328640 0.061192 0.046981 0.126745
H52   H     H_    0.327224 0.938948 0.546727 0.128242
C25   C     C_3   0.726172 0.600087 0.954862 -0.221659
C26   C     C_3   0.713192 0.404711 0.464009 -0.133945
C27   C     C_3   0.214334 0.094717 0.947749 -0.157261
C28   C     C_3   0.212491 0.905580 0.448305 -0.174024
H53   H     H_    0.695564 0.609028 0.828577 0.102343
H54   H     H_    0.674990 0.397792 0.343316 0.156811
H55   H     H_    0.175694 0.095246 0.826417 0.162067
H56   H     H_    0.171960 0.907292 0.329853 0.164691
H57   H     H_    0.751206 0.651076 0.004053 0.143768
H58   H     H_    0.736292 0.352329 0.506828 0.117373
H59   H     H_    0.235907 0.148921 0.978652 0.117217
H60   H     H_    0.232709 0.850850 0.474014 0.125520
O45   O     O_3   0.092100 0.536880 0.086720 -0.409662
O46   O     O_3   0.092100 0.463120 0.586720 -0.430719
O47   O     O_3   0.592100 0.036880 0.086720 -0.430638
O48   O     O_3   0.592100 0.963120 0.586720 -0.407668
P13   P     P_3+3 0.906239 0.736135 0.085081 0.485801
P14   P     P_3+3 0.904651 0.264008 0.584394 0.482510
P15   P     P_3+3 0.405031 0.235826 0.083475 0.479901
P16   P     P_3+3 0.401617 0.766980 0.587166 0.483183
C29   C     C_3   0.034231 0.197986 0.594524 0.310122
C30   C     C_3   0.037160 0.802898 0.104440 0.307477
C31   C     C_3   0.515528 0.683913 0.590762 0.255752
C32   C     C_3   0.535103 0.301831 0.094985 0.314505
H61   H     H_    0.033859 0.237177 0.495523 -0.002593
H62   H     H_    0.039347 0.762043 0.010611 0.003122
H63   H     H_    0.497892 0.681827 0.455732 0.037751
H64   H     H_    0.533988 0.264022 0.992842 -0.005039
H65   H     H_    0.605882 0.607728 0.590685 0.082862
H66   H     H_    0.550796 0.374039 0.902853 0.125392
H67   H     H_    0.049098 0.128931 0.395815 0.122692
H68   H     H_    0.055437 0.868110 0.902292 0.112664
H69   H     H_    0.489541 0.592565 0.203367 0.318590
H70   H     H_    0.378018 0.374644 0.575266 0.187491
H71   H     H_    0.969168 0.082619 0.158156 0.302760
H72   H     H_    0.982606 0.915423 0.681141 0.309742
C33   C     C_R   0.141929 0.676983 0.929041 -0.519396
C34   C     C_R   0.142429 0.322442 0.428075 -0.514290
C35   C     C_R   0.642348 0.177090 0.927375 -0.511570
C36   C     C_R   0.640064 0.820935 0.432483 -0.517806
C37   C     C_R   0.857207 0.325647 0.272164 -0.562849
C38   C     C_R   0.861064 0.677446 0.768903 -0.567713
C39   C     C_R   0.359289 0.824259 0.270641 -0.558264
C40   C     C_R   0.358147 0.175342 0.770219 -0.566766
C41   C     C_R   0.802769 0.209788 0.297937 0.137742
C42   C     C_R   0.801631 0.790314 0.804170 0.142976
C43   C     C_R   0.300620 0.710337 0.304177 0.138659
C44   C     C_R   0.303383 0.290493 0.797803 0.138544
C45   C     C_R   0.849439 0.266581 0.367390 0.153771
C46   C     C_R   0.851681 0.735050 0.867473 0.142167
C47   C     C_R   0.350212 0.766131 0.368046 0.136752
C48   C     C_R   0.350241 0.233959 0.866187 0.154678
C49   C     C_R   0.814100 0.334018 0.112919 0.263769
C50   C     C_R   0.815751 0.667457 0.612177 0.268464
C51   C     C_R   0.315356 0.833035 0.112554 0.265282
C52   C     C_R   0.314943 0.166754 0.611246 0.265862
C53   C     C_R   0.758088 0.279404 0.048237 -0.090321
C54   C     C_R   0.758062 0.720999 0.550780 -0.087201
C55   C     C_R   0.258480 0.778725 0.049898 -0.092990
C56   C     C_R   0.258583 0.221025 0.547400 -0.090952
C57   C     C_R   0.249255 0.716785 0.147656 -0.137360
C58   C     C_R   0.250404 0.283310 0.644247 -0.132371
C59   C     C_R   0.750012 0.216871 0.144274 -0.132025
C60   C     C_R   0.749253 0.783102 0.648585 -0.132775
C61   C     C_R   0.188523 0.665651 0.083280 0.296295
C62   C     C_R   0.189786 0.334543 0.581385 0.260677
C63   C     C_R   0.689590 0.165288 0.080815 0.259632
C64   C     C_R   0.688011 0.833615 0.584902 0.302857
C65   C     C_R   0.155932 0.731969 0.828693 0.191122
C66   C     C_R   0.155790 0.267448 0.327028 0.205933
C67   C     C_R   0.655944 0.232384 0.826876 0.210558
C68   C     C_R   0.654400 0.766690 0.330872 0.192526
C69   C     C_R   0.212522 0.783019 0.890131 -0.189143
C70   C     C_R   0.212581 0.216759 0.387461 -0.187586
C71   C     C_R   0.712249 0.283724 0.888251 -0.192078
C72   C     C_R   0.711540 0.716290 0.391332 -0.173798
H73   H     H_    0.720377 0.326490 0.809210 0.195713
H74   H     H_    0.721190 0.674768 0.310892 0.199749
H75   H     H_    0.221436 0.825215 0.810667 0.204278
H76   H     H_    0.221418 0.174744 0.307567 0.199658
H77   H     H_    0.096209 0.639799 0.881363 0.159632
H78   H     H_    0.096144 0.358866 0.382096 0.164340
H79   H     H_    0.596073 0.140292 0.880933 0.165233
H80   H     H_    0.594146 0.857607 0.385496 0.159029
H81   H     H_    0.897919 0.366341 0.324233 0.177554
H82   H     H_    0.903791 0.638280 0.818050 0.175862
H83   H     H_    0.400508 0.864746 0.321634 0.176926
H84   H     H_    0.398924 0.135010 0.821852 0.176665
I1    I     I_    0.652292 0.562093 0.111902 -0.198700
I2    I     I_    0.647520 0.446086 0.633593 -0.202691
I3    I     I_    0.149791 0.058980 0.124279 -0.176107
I4    I     I_    0.151245 0.940696 0.629548 -0.179966
I5    I     I_    0.325587 0.616578 0.446039 -0.224555
I6    I     I_    0.343618 0.387943 0.905256 -0.226461
I7    I     I_    0.842651 0.112567 0.404978 -0.242836
I8    I     I_    0.828152 0.884820 0.944441 -0.226549
N1    N     N_R   0.027617 0.068551 0.593588 0.312836
O49   O     O_R   0.033063 0.059408 0.750058 -0.315674
O50   O     O_R   0.990909 0.022465 0.491751 -0.317187
N2    N     N_R   0.025041 0.931646 0.086194 0.314623
O51   O     O_R   0.026623 0.944424 0.240218 -0.304077
O52   O     O_R   0.984627 0.971661 0.975250 -0.330249
N3    N     N_R   0.500601 0.557222 0.608292 0.297996
O53   O     O_R   0.459877 0.536381 0.714143 -0.340287
O54   O     O_R   0.485613 0.531937 0.460597 -0.342091
N4    N     N_R   0.532614 0.430754 0.108534 0.314537
O55   O     O_R   0.539682 0.437059 0.265970 -0.308222
O56   O     O_R   0.493383 0.477124 0.012853 -0.314204

loop_
_geom_bond_atom_site_label_1
_geom_bond_atom_site_label_2
_geom_bond_distance
_ccdc_geom_bond_type
P10   C65   1.867206 S    
C59   C63   1.461699 A    
P1    O17   1.732108 S    
P9    C66   1.871814 S    
O10   Ba2   2.849927 S    
O16   P15   1.547109 D    
C13   H25   1.100013 S    
C6    H14   1.111967 S    
O27   Ba3   2.941708 S    
C20   H44   1.104795 S    
P3    O19   1.735794 S    
N3    O53   1.298047 A    
O26   Ba2   2.931576 S    
P5    O37   1.741142 S    
C8    H12   1.110259 S    
O6    Ba1   2.884354 S    
C2    N2    1.454130 S    
C28   H60   1.108400 S    
C7    H15   1.110494 S    
P7    O39   1.748610 S    
Ba3   Ba4   4.615721 S    
P2    O2    1.525082 D    
P8    O40   1.738818 S    
P9    O33   1.547037 D    
C43   C57   1.438141 A    
O11   Ba3   2.847110 S    
P11   C68   1.872297 S    
C18   H38   1.103925 S    
P1    O1    1.525891 D    
C52   C56   1.459823 A    
C25   H57   1.107312 S    
C3    H5    1.105055 S    
C23   H51   1.106797 S    
C55   C69   1.417063 A    
P3    O3    1.525891 D    
P15   C48   1.875710 S    
C24   H52   1.106666 S    
O41   C5    1.404406 S    
P4    O20   1.735327 S    
C14   C18   1.514624 S    
C70   H76   1.070455 S    
O18   C22   1.402182 S    
C39   C47   1.396835 A    
P13   C46   1.876512 S    
C14   H26   1.108041 S    
C15   H27   1.108663 S    
O23   C31   1.402739 S    
O1    Ba1   2.928140 S    
O24   C32   1.414896 S    
C37   C45   1.395371 A    
Ba1   O46   2.942616 S    
P4    Ba4   3.467340 S    
C27   I3    2.130707 S    
C42   C46   1.407914 A    
C29   H61   1.109617 S    
P5    O25   1.524390 D    
C26   I2    2.140286 S    
P6    O45   1.624901 S    
P4    C52   1.926986 S    
C25   I1    2.134972 S    
C40   C48   1.394368 A    
C13   C17   1.516933 S    
C41   C59   1.432102 A    
C5    H13   1.111644 S    
C54   C60   1.460092 A    
C36   C68   1.388481 A    
O7    Ba4   2.875212 S    
P3    Ba3   3.462418 S    
C53   C71   1.417799 A    
C6    H10   1.111778 S    
O24   P15   1.747744 S    
N4    O56   1.295272 A    
C57   C61   1.461267 A    
C34   H78   1.081923 S    
C31   H63   1.106526 S    
C35   C67   1.391221 A    
P4    O8    1.626428 S    
C33   H77   1.082278 S    
N1    O49   1.298458 A    
C43   I5    2.137328 S    
O32   Ba4   2.846541 S    
C49   C53   1.455279 A    
P4    O4    1.525082 D    
O28   Ba4   2.931576 S    
C56   C70   1.418092 A    
P8    O28   1.525199 D    
O30   Ba2   2.846541 S    
P9    O29   1.749797 S    
C9    H21   1.105003 S    
C7    H11   1.111311 S    
P10   O34   1.546426 D    
C67   C71   1.408469 A    
O15   P16   1.541444 D    
C41   I7    2.114124 S    
C17   H41   1.105027 S    
C1    H67   1.107891 S    
C27   H55   1.101361 S    
C2    H68   1.102993 S    
O13   P14   1.547199 D    
C24   H48   1.104655 S    
C22   H50   1.106013 S    
P11   O43   1.733279 S    
C68   C72   1.410801 A    
C15   H31   1.106635 S    
P12   O36   1.546935 D    
C50   C54   1.459959 A    
C7    C11   1.500189 S    
P2    Ba2   3.467340 S    
O25   Ba1   2.941708 S    
P14   C45   1.876590 S    
O31   Ba3   2.849347 S    
C28   I4    2.124574 S    
P8    O47   1.624901 S    
C37   C49   1.401658 A    
C34   C66   1.391051 A    
Ba2   O45   2.944540 S    
C28   H56   1.098184 S    
C18   H42   1.103712 S    
C36   C64   1.399172 A    
P3    O7    1.619735 S    
P3    C51   1.930291 S    
C56   C58   1.455942 A    
N2    O51   1.299460 A    
C40   C52   1.400035 A    
C13   H29   1.109502 S    
C4    C32   1.525532 S    
O37   C14   1.393393 S    
O4    Ba4   2.938169 S    
C33   C61   1.398447 A    
H1    C29   1.110258 S    
P5    O46   1.631669 S    
C51   C55   1.456461 A    
C21   C25   1.507850 S    
C53   C59   1.453793 A    
C12   H70   1.102905 S    
C54   C72   1.418758 A    
O39   C16   1.397469 S    
P8    Ba4   3.464669 S    
C16   C20   1.516510 S    
C20   H36   1.107386 S    
C39   H83   1.082014 S    
C1    C29   1.527905 S    
P2    O18   1.741103 S    
C43   C47   1.405646 A    
C60   C64   1.465310 A    
P8    C63   1.901369 S    
O9    Ba1   2.847110 S    
C66   C70   1.410568 A    
Ba2   O46   2.884327 S    
C34   C62   1.398871 A    
C65   C69   1.407923 A    
O44   C8    1.404637 S    
C10   H72   1.104096 S    
C27   H59   1.108896 S    
P10   O30   1.747355 S    
O12   P15   1.716447 S    
C4    H66   1.109107 S    
O5    Ba2   2.875212 S    
Ba1   Ba2   4.615721 S    
P1    O5    1.619735 S    
N3    O54   1.297686 A    
C1    H7    1.107814 S    
P12   O44   1.739391 S    
C5    H9    1.110513 S    
N1    O50   1.297324 A    
C19   H39   1.103924 S    
O11   P16   1.707308 S    
C8    C12   1.506150 S    
O14   P13   1.547666 D    
C15   C19   1.511146 S    
P6    O26   1.525199 D    
C3    N3    1.450544 S    
C58   C62   1.465657 A    
C2    C30   1.526397 S    
C42   I8    2.142140 S    
C71   H73   1.071810 S    
Ba4   O47   2.944540 S    
C72   H74   1.070393 S    
C44   C58   1.432628 A    
C25   H53   1.096762 S    
C16   H32   1.109282 S    
C21   H45   1.103982 S    
P9    O41   1.740469 S    
C69   H75   1.069436 S    
C2    H8    1.106323 S    
O2    Ba2   2.938169 S    
P7    Ba3   3.469701 S    
O17   C21   1.404756 S    
P2    O6    1.626428 S    
C32   H64   1.110544 S    
C1    N1    1.452508 S    
P6    Ba2   3.464669 S    
P11   O31   1.749569 S    
P5    Ba1   3.469701 S    
C18   H34   1.103091 S    
P16   C47   1.870436 S    
C17   H37   1.100385 S    
O23   P16   1.738405 S    
H2    C30   1.109448 S    
P6    O38   1.748949 S    
Ba3   O48   2.942616 S    
C22   C26   1.518469 S    
C41   C45   1.406296 A    
H4    C32   1.110313 S    
N4    O55   1.297142 A    
O21   P14   1.750415 S    
O22   C30   1.413796 S    
C19   H35   1.102617 S    
C38   C50   1.401555 A    
Ba1   O45   2.875183 S    
Ba3   O47   2.875183 S    
C38   H82   1.081812 S    
P2    C50   1.938448 S    
O40   C15   1.392800 S    
O3    Ba3   2.928140 S    
O22   P13   1.749185 S    
C10   H22   1.104511 S    
C35   H79   1.081837 S    
P10   O42   1.736208 S    
P12   O32   1.748901 S    
C11   H23   1.102084 S    
C16   H28   1.099846 S    
O19   C23   1.401061 S    
C21   H49   1.104002 S    
C19   H43   1.107305 S    
C4    N4    1.451942 S    
C20   H40   1.100844 S    
C23   H47   1.104480 S    
C4    H6    1.108498 S    
O12   Ba4   2.849927 S    
C35   C63   1.399229 A    
O10   P13   1.705820 S    
O29   Ba1   2.849347 S    
O21   C29   1.415201 S    
C9    H19   1.103110 S    
P7    O27   1.524390 D    
O42   C6    1.403984 S    
O8    Ba3   2.884354 S    
C17   H33   1.108040 S    
C26   H58   1.109447 S    
C10   H20   1.100368 S    
C42   C60   1.440730 A    
C11   H69   1.105182 S    
P12   C67   1.868751 S    
C26   H54   1.101197 S    
C3    H65   1.111284 S    
N2    O52   1.297886 A    
C40   H84   1.081956 S    
O43   C7    1.403765 S    
C9    H71   1.107879 S    
Ba4   O48   2.884327 S    
C11   H17   1.099836 S    
C6    C10   1.503772 S    
P1    Ba1   3.462418 S    
O9    P14   1.713466 S    
C44   I6    2.114834 S    
C3    C31   1.506348 S    
C5    C9    1.511721 S    
C30   H62   1.107611 S    
P11   O35   1.546862 D    
C38   C46   1.397988 A    
C44   C48   1.407872 A    
C39   C51   1.399772 A    
C14   H30   1.107608 S    
C8    H16   1.112742 S    
C36   H80   1.082358 S    
O38   C13   1.396855 S    
P7    C64   1.898208 S    
O20   C24   1.400919 S    
C22   H46   1.104265 S    
C12   H18   1.105004 S    
P6    C61   1.891426 S    
C33   C65   1.388065 A    
C12   H24   1.102344 S    
C37   H81   1.082017 S    
P5    C62   1.907079 S    
C23   C27   1.516151 S    
H3    C31   1.111726 S    
P7    O48   1.631669 S    
C24   C28   1.514126 S    
C55   C57   1.457035 A    
P1    C49   1.921821 S    
