data_mof_unit_16316.cif
_audit_creation_date              2012-12-10T17:28:37-0500
_audit_creation_method            fapswitch 2.2
_symmetry_space_group_name_H-M    P1
_symmetry_Int_Tables_number       1
_space_group_crystal_system       triclinic
_cell_length_a                    10.832129
_cell_length_b                    11.947266
_cell_length_c                    13.009022
_cell_angle_alpha                 90.801072
_cell_angle_beta                  87.14478
_cell_angle_gamma                 85.161081
_cell_volume                      1675.19108642

loop_
_atom_site_label
_atom_site_type_symbol
_atom_type_description
_atom_site_fract_x
_atom_site_fract_y
_atom_site_fract_z
_atom_type_partial_charge
C1    C     C_R   0.493790 0.520179 0.700345 0.919379
C2    C     C_R   0.552812 0.549438 0.124722 0.105431
C3    C     C_R   0.468507 0.455197 0.980122 0.080774
C4    C     C_R   0.531282 0.544816 0.019920 0.084031
C5    C     C_R   0.465030 0.951577 0.368419 0.400738
C6    C     C_R   0.535518 0.048356 0.631506 0.365440
C7    C     C_R   0.457454 0.836562 0.386487 -0.048640
C8    C     C_R   0.542714 0.163435 0.613478 -0.067999
C9    C     C_R   0.502409 0.859321 0.561074 0.025841
C10   C     C_R   0.497658 0.140663 0.438923 0.036234
C11   C     C_R   0.509419 0.976582 0.549091 -0.084987
C12   C     C_R   0.506199 0.479817 0.299662 0.921939
C13   C     C_R   0.490907 0.023376 0.450874 -0.106420
C14   C     C_R   0.741078 0.497676 0.488614 0.890579
C15   C     C_R   0.258932 0.502327 0.511435 0.892099
C16   C     C_R   0.905360 0.285831 0.508101 -0.189645
C17   C     C_R   0.094657 0.714178 0.492118 -0.192695
C18   C     C_R   0.961173 0.199577 0.564983 0.167415
C19   C     C_R   0.038911 0.800419 0.435184 0.181764
C20   C     C_R   0.072169 0.215110 0.610692 0.200649
C21   C     C_R   0.927931 0.784893 0.389444 0.200110
C22   C     C_R   0.125401 0.316491 0.597337 -0.201711
C23   C     C_R   0.504176 0.469081 0.189607 -0.120419
C24   C     C_R   0.874654 0.683537 0.402819 -0.203472
C25   C     C_R   0.066866 0.406407 0.542896 0.044378
C26   C     C_R   0.933152 0.593615 0.457278 0.045228
C27   C     C_R   0.948515 0.394966 0.507902 0.049674
C28   C     C_R   0.051490 0.605052 0.492294 0.049801
C29   C     C_R   0.123271 0.507250 0.523646 -0.172847
C30   C     C_R   0.876744 0.492763 0.476504 -0.172511
C31   C     C_R   0.495712 0.530908 0.810419 -0.122444
C32   C     C_R   0.570079 0.628349 0.954040 -0.112189
C33   C     C_R   0.429563 0.371751 0.046043 -0.102631
C34   C     C_R   0.553741 0.620525 0.850284 -0.184141
C35   C     C_R   0.445920 0.379580 0.149793 -0.183616
C36   C     C_R   0.447161 0.450473 0.875285 0.100013
H1    H     H_    0.829026 0.264335 0.463698 0.202822
H2    H     H_    0.519876 0.820069 0.633590 0.203513
H3    H     H_    0.562308 0.218542 0.675796 0.192945
H4    H     H_    0.437698 0.781527 0.324141 0.216198
H5    H     H_    0.416648 0.927738 0.092578 0.418680
H6    H     H_    0.672645 0.119604 0.821493 0.370844
H7    H     H_    0.170996 0.735645 0.536532 0.200572
H8    H     H_    0.210614 0.325356 0.633654 0.200600
H9    H     H_    0.789454 0.674698 0.366475 0.200314
H10   H     H_    0.410015 0.316482 0.199488 0.211244
H11   H     H_    0.589536 0.683697 0.800619 0.212785
H12   H     H_    0.614324 0.700260 0.980395 0.214307
H13   H     H_    0.385151 0.299915 0.019750 0.217444
H14   H     H_    0.479899 0.179926 0.366455 0.201280
I1    I     I_    0.834002 0.912770 0.303971 -0.155568
I2    I     I_    0.166206 0.087171 0.696035 -0.167784
I3    I     I_    0.865440 0.053794 0.587832 -0.272259
I4    I     I_    0.134790 0.946107 0.412231 -0.218621
I5    I     I_    0.669748 0.669556 0.180982 -0.298501
I6    I     I_    0.330902 0.329843 0.818904 -0.294248
N1    N     N_R   0.523130 0.207800 0.519340 -0.146563
N2    N     N_R   0.476870 0.792200 0.480660 -0.157120
O1    O     O_R   0.506170 0.421700 0.658830 -0.614635
O2    O     O_2   0.557763 0.053801 0.203533 -0.270031
O3    O     O_3   0.417951 0.894424 0.161858 -0.525044
O4    O     O_2   0.443458 0.947258 0.797394 -0.243307
O5    O     O_2   0.665721 0.910772 0.755807 -0.304718
O6    O     O_3   0.585571 0.104234 0.838409 -0.494909
O7    O     O_R   0.493830 0.578300 0.341170 -0.612788
O8    O     O_R   0.491330 0.609310 0.646410 -0.629915
O9    O     O_R   0.508670 0.390690 0.353590 -0.630534
O10   O     O_R   0.690650 0.406190 0.506220 -0.627513
O11   O     O_R   0.309350 0.593810 0.493780 -0.625972
O12   O     O_R   0.675800 0.593810 0.493800 -0.610833
O13   O     O_R   0.324200 0.406190 0.506200 -0.610836
O14   O     O_2   0.334241 0.087229 0.243633 -0.292536
S1    S     S_3+6 0.443580 0.000836 0.241967 0.041049
S2    S     S_3+6 0.557947 0.998874 0.757805 0.043689
Zn1   Zn    Zn3+2 0.509910 0.374730 0.508290 0.979362
Zn2   Zn    Zn3+2 0.490090 0.625270 0.491710 0.981438

loop_
_geom_bond_atom_site_label_1
_geom_bond_atom_site_label_2
_ccdc_geom_bond_type
H6    O6    S    
C14   O12   A    
H5    O3    S    
N2    Zn2   S    
O10   Zn1   S    
C12   C23   S    
O7    Zn2   S    
C24   H9    S    
C28   C29   A    
C19   C21   A    
C24   C26   A    
C2    I5    S    
C1    O1    A    
C3    C33   A    
C33   H13   S    
O2    S1    D    
C1    C31   S    
O11   Zn2   S    
C9    N2    A    
C18   I3    S    
C33   C35   A    
C22   H8    S    
C22   C25   A    
C7    H4    S    
C6    S2    S    
C8    H3    S    
C7    N2    A    
C5    C13   A    
C16   H1    S    
C16   C27   A    
C27   C30   A    
C32   H12   S    
C14   C30   S    
C15   C29   S    
C25   C29   A    
C15   O11   A    
C12   O9    A    
C10   N1    A    
C6    C11   A    
C5    C7    A    
C6    C8    A    
O3    S1    S    
C32   C34   A    
C2    C4    A    
C17   H7    S    
C36   I6    S    
C8    N1    A    
O8    Zn2   S    
C1    O8    A    
C31   C34   A    
C9    C11   A    
C4    C32   A    
C19   I4    S    
C20   C22   A    
C26   C30   A    
C23   C35   A    
O12   Zn2   S    
O9    Zn1   S    
C3    C4    A    
C10   H14   S    
O1    Zn1   S    
C21   I1    S    
C14   O10   A    
C17   C28   A    
O14   S1    D    
C10   C13   A    
O5    S2    D    
C25   C27   A    
C15   O13   A    
C12   O7    A    
C26   C28   A    
N1    Zn1   S    
C20   I2    S    
O13   Zn1   S    
C11   C13   A    
C3    C36   A    
C9    H2    S    
C17   C19   A    
C18   C20   A    
C5    S1    S    
C16   C18   A    
C21   C24   A    
C2    C23   A    
O6    S2    S    
C31   C36   A    
O4    S2    D    
C34   H11   S    
C35   H10   S    
