data_mof_unit_62184.cif
_audit_creation_date              2013-03-05T16:43:43-0500
_audit_creation_method            fapswitch 2.2
_symmetry_space_group_name_H-M    P1
_symmetry_Int_Tables_number       1
_space_group_crystal_system       triclinic
_cell_length_a                    10.822292
_cell_length_b                    19.252012
_cell_length_c                    19.235459
_cell_angle_alpha                 95.225273
_cell_angle_beta                  92.061711
_cell_angle_gamma                 96.458235
_cell_volume                      3961.41498303

loop_
_atom_site_label
_atom_site_type_symbol
_atom_site_description
_atom_site_fract_x
_atom_site_fract_y
_atom_site_fract_z
_atom_type_partial_charge
Zn1   Zn    Zn3+2 0.396020 0.434560 0.434560 1.071131
Zn2   Zn    Zn3+2 0.611960 0.561120 0.448760 1.052707
Zn3   Zn    Zn3+2 0.595990 0.448060 0.560420 0.992929
Zn4   Zn    Zn3+2 0.396040 0.556260 0.556260 0.967208
O1    O     O_3   0.500000 0.500000 0.500000 -0.514835
O2    O     O_R   0.435110 0.654980 0.544320 -0.649208
O3    O     O_R   0.419350 0.338590 0.449260 -0.589820
O4    O     O_R   0.586210 0.538520 0.349230 -0.611635
O5    O     O_R   0.559330 0.467910 0.657200 -0.608299
O6    O     O_R   0.783160 0.551820 0.473170 -0.624472
O7    O     O_R   0.222430 0.530340 0.530340 -0.640878
O8    O     O_R   0.771990 0.472690 0.551320 -0.627186
O9    O     O_R   0.222420 0.445150 0.445160 -0.635124
O10   O     O_R   0.435070 0.449940 0.339290 -0.601706
O11   O     O_R   0.419380 0.543640 0.654290 -0.656059
O12   O     O_R   0.586230 0.658380 0.469080 -0.602815
O13   O     O_R   0.559310 0.348040 0.537340 -0.655786
C1    C     C_R   0.511845 0.689878 0.507818 0.859388
C2    C     C_R   0.487669 0.309627 0.491087 0.841482
C3    C     C_R   0.513036 0.492501 0.311284 0.897329
C4    C     C_R   0.486146 0.506533 0.688994 0.801490
C5    C     C_R   0.834989 0.515321 0.515388 0.864567
C6    C     C_R   0.163776 0.485059 0.485072 0.884867
C7    C     C_2   0.028905 0.479255 0.479203 -0.315762
H1    H     H_    0.978606 0.440737 0.440365 0.171382
C8    C     C_2   0.968293 0.521084 0.521334 -0.292881
H2    H     H_    0.016261 0.559924 0.560582 0.164549
C9    C     C_R   0.483924 0.232392 0.486838 -0.126067
C10   C     C_R   0.528075 0.201877 0.545157 -0.269167
C11   C     C_R   0.526454 0.129384 0.543949 -0.158426
C12   C     C_R   0.479979 0.085504 0.483987 0.271537
C13   C     C_R   0.434330 0.115386 0.426337 -0.224595
C14   C     C_R   0.436563 0.188208 0.426495 0.283486
C15   C     C_R   0.533277 0.876666 0.458495 -0.213577
C16   C     C_R   0.530274 0.803423 0.451335 0.282734
C17   C     C_R   0.517422 0.913214 0.523932 0.266757
N1    N     N_2   0.481647 0.011587 0.477808 -0.166956
N2    N     N_2   0.514481 0.987002 0.532408 -0.180128
C18   C     C_R   0.514365 0.766441 0.511266 -0.118104
H3    H     H_    0.545082 0.904895 0.412548 0.196664
H4    H     H_    0.400267 0.081583 0.379871 0.191228
C19   C     C_R   0.501363 0.803387 0.576453 -0.256449
C20   C     C_R   0.504019 0.876132 0.582710 -0.176387
H5    H     H_    0.490010 0.775815 0.622888 0.173788
H6    H     H_    0.562811 0.108096 0.589633 0.163571
H7    H     H_    0.493286 0.903673 0.633400 0.156522
H8    H     H_    0.564201 0.234178 0.592114 0.178065
C21   C     C_R   0.478656 0.507915 0.765434 -0.122291
C22   C     C_R   0.521335 0.454094 0.802095 0.464222
C23   C     C_R   0.520757 0.459375 0.874869 -0.245767
C24   C     C_R   0.473263 0.516315 0.912244 0.259839
C25   C     C_R   0.427236 0.567933 0.875426 -0.186251
C26   C     C_R   0.429666 0.563895 0.802755 -0.276038
C27   C     C_R   0.490993 0.543500 0.128549 -0.135195
C28   C     C_R   0.495819 0.546965 0.201221 -0.239962
C29   C     C_R   0.509750 0.480679 0.088823 0.262311
N3    N     N_2   0.472500 0.524283 0.986452 -0.171536
N4    N     N_2   0.507401 0.473598 0.014712 -0.176925
C30   C     C_R   0.518955 0.488168 0.235306 -0.125513
H9    H     H_    0.478889 0.595246 0.231009 0.205805
H10   H     H_    0.472389 0.589783 0.103802 0.172714
H11   H     H_    0.390612 0.611997 0.903343 0.164151
H12   H     H_    0.395460 0.605456 0.775858 0.190608
C31   C     C_R   0.541867 0.425540 0.196095 0.280028
C32   C     C_R   0.535631 0.422631 0.122997 -0.238958
H13   H     H_    0.558074 0.418694 0.901690 0.172660
H14   H     H_    0.553283 0.375158 0.092080 0.187675
N5    N     N_R   0.576192 0.365929 0.229210 0.236319
O14   O     O_R   0.555710 0.303259 0.196401 -0.315787
O15   O     O_R   0.643594 0.374845 0.287434 -0.374820
O16   O     O_3   0.571259 0.398002 0.768025 -0.618565
C33   C     C_3   0.474533 0.345772 0.740916 0.113109
H15   H     H_    0.503040 0.323054 0.689613 0.175901
H16   H     H_    0.383686 0.366281 0.730624 0.098459
C34   C     C_3   0.457373 0.287299 0.789736 -0.374650
H17   H     H_    0.548374 0.267667 0.800080 0.243904
H18   H     H_    0.423167 0.308424 0.840250 0.223444
C35   C     C_3   0.364373 0.226295 0.757725 -0.918041
H19   H     H_    0.272139 0.244538 0.747730 0.267998
H20   H     H_    0.353528 0.184933 0.794400 0.276749
H21   H     H_    0.397991 0.203235 0.707819 0.260090
N6    N     N_R   0.537296 0.767726 0.382815 0.219921
O17   O     O_R   0.461145 0.711713 0.362611 -0.402747
O18   O     O_R   0.605878 0.797017 0.336875 -0.363430
N7    N     N_R   0.396458 0.215862 0.363835 0.223945
O19   O     O_R   0.296149 0.186302 0.328888 -0.350021
O20   O     O_R   0.472462 0.260124 0.334287 -0.280416

loop_
_geom_bond_atom_site_label_1
_geom_bond_atom_site_label_2
_geom_bond_distance
_ccdc_geom_bond_type
C28   C30   1.400357 A    
C11   H6    1.082581 S    
C1    C18   1.466558 S    
N7    O19   1.301183 A    
O6    C5    1.275797 A    
C8    H2    1.086376 S    
C10   C11   1.391823 A    
C10   H8    1.083057 S    
Zn1   O1    1.930890 S    
C31   N5    1.439727 S    
C9    C10   1.405866 A    
C7    C8    1.331828 D    
C11   C12   1.407884 A    
C35   H20   1.110322 S    
C29   C32   1.396578 A    
O8    C5    1.275746 A    
O9    C6    1.272722 A    
C15   C16   1.400829 A    
C14   N7    1.433792 S    
Zn3   O8    1.928570 S    
N5    O14   1.301619 A    
C32   H14   1.083468 S    
C6    C7    1.450815 S    
C24   N3    1.422093 S    
Zn2   O12   1.930857 S    
C4    C21   1.473485 S    
C28   H9    1.083844 S    
C19   H5    1.083625 S    
C33   C34   1.530257 S    
C34   C35   1.526176 S    
C16   N6    1.438476 S    
C18   C19   1.403835 A    
N7    O20   1.299967 A    
C21   C26   1.404627 A    
O2    C1    1.279218 A    
C27   C29   1.409219 A    
C24   C25   1.396923 A    
O10   C3    1.277163 A    
C7    H1    1.087811 S    
C33   H16   1.117699 S    
C35   H19   1.110876 S    
C33   H15   1.110837 S    
C12   N1    1.419375 S    
C3    C30   1.460366 S    
C16   C18   1.414809 A    
C34   H17   1.111608 S    
N1    N2    1.246941 D    
Zn3   O5    1.930465 S    
C34   H18   1.111017 S    
C12   C13   1.394804 A    
C13   H4    1.083815 S    
C23   C24   1.411570 A    
C30   C31   1.413925 A    
O4    C3    1.275776 A    
Zn4   O7    1.924597 S    
C2    C9    1.477621 S    
C23   H13   1.082774 S    
Zn4   O2    1.936327 S    
C21   C22   1.414772 A    
C9    C14   1.418739 A    
N6    O17   1.301459 A    
N6    O18   1.301363 A    
C22   O16   1.383967 S    
C15   H3    1.082970 S    
Zn2   O1    1.949514 S    
Zn1   O9    1.928470 S    
C19   C20   1.391651 A    
Zn2   O6    1.926822 S    
C25   C26   1.394297 A    
C27   C28   1.392206 A    
Zn1   O3    1.937099 S    
Zn2   O4    1.927410 S    
Zn4   O1    1.938642 S    
Zn3   O1    1.946351 S    
C27   H10   1.082513 S    
O3    C2    1.279286 A    
C31   C32   1.400959 A    
Zn4   O11   1.934295 S    
C17   N2    1.419138 S    
O16   C33   1.416769 S    
C25   H11   1.083113 S    
C13   C14   1.399180 A    
C26   H12   1.083122 S    
C35   H21   1.111228 S    
O5    C4    1.280120 A    
N3    N4    1.247035 D    
O7    C6    1.272238 A    
O13   C2    1.281059 A    
C29   N4    1.418692 S    
Zn3   O13   1.929304 S    
C15   C17   1.410765 A    
C20   H7    1.083135 S    
O11   C4    1.283107 A    
O12   C1    1.281291 A    
C22   C23   1.394552 A    
C5    C8    1.434040 S    
N5    O15   1.301503 A    
C17   C20   1.394458 A    
Zn1   O10   1.936739 S    
