data_mof_unit_47736.cif
_audit_creation_date              2012-12-11T15:59:29-0500
_audit_creation_method            fapswitch 2.2
_symmetry_space_group_name_H-M    P1
_symmetry_Int_Tables_number       1
_space_group_crystal_system       triclinic
_cell_length_a                    10.660078
_cell_length_b                    10.697991
_cell_length_c                    17.034722
_cell_angle_alpha                 99.179524
_cell_angle_beta                  99.66616
_cell_angle_gamma                 61.352173
_cell_volume                      1673.61776102

loop_
_atom_site_label
_atom_site_type_symbol
_atom_type_description
_atom_site_fract_x
_atom_site_fract_y
_atom_site_fract_z
_atom_type_partial_charge
C1    C     C_R   0.378735 0.717268 0.387822 0.555488
C2    C     C_R   0.856245 0.203021 0.198233 0.002595
C3    C     C_R   0.868179 0.213066 0.282339 0.012429
C4    C     C_R   0.782206 0.470020 0.284377 -0.145508
C5    C     C_R   0.785131 0.458009 0.203559 -0.155311
C6    C     C_R   0.874400 0.071200 0.155761 -0.031406
C7    C     C_R   0.926665 0.947792 0.195121 0.099120
C8    C     C_R   0.956289 0.955914 0.278426 -0.109782
C9    C     C_R   0.924426 0.087573 0.321785 -0.114905
C10   C     C_R   0.822722 0.349161 0.324583 0.011042
C11   C     C_R   0.362265 0.800182 0.151436 -0.008382
C12   C     C_R   0.369249 0.346570 0.357581 0.549319
C13   C     C_R   0.457260 0.829329 0.210937 0.018937
C14   C     C_R   0.444303 0.827670 0.291564 0.020134
C15   C     C_R   0.299576 0.703242 0.247186 -0.153380
C16   C     C_R   0.293557 0.726852 0.169152 -0.135279
C17   C     C_R   0.558555 0.867603 0.193126 -0.095168
C18   C     C_R   0.627978 0.923478 0.253269 -0.127528
C19   C     C_R   0.600524 0.940050 0.331859 -0.115019
C20   C     C_R   0.506308 0.896759 0.350821 -0.096775
C21   C     C_R   0.368132 0.758704 0.309051 0.003975
C22   C     C_R   0.330721 0.327875 0.817477 -0.007297
C23   C     C_R   0.775963 0.378082 0.403449 0.530714
C24   C     C_R   0.450337 0.224246 0.777490 0.015854
C25   C     C_R   0.429412 0.197615 0.694388 0.047447
C26   C     C_R   0.213049 0.427546 0.691728 -0.155216
C27   C     C_R   0.212272 0.429885 0.773503 -0.156095
C28   C     C_R   0.586009 0.139586 0.818111 -0.080872
C29   C     C_R   0.686869 0.015632 0.779427 -0.137091
C30   C     C_R   0.652412 0.972744 0.700876 -0.068212
C31   C     C_R   0.523626 0.061409 0.657687 0.151154
C32   C     C_R   0.324424 0.314046 0.651750 -0.016057
C33   C     C_1   0.846342 0.328998 0.705524 -0.037928
C34   C     C_R   0.380860 0.715205 0.631772 0.569865
C35   C     C_1   0.893275 0.294300 0.772241 -0.035797
C36   C     C_1   0.358117 0.765570 0.713857 -0.032855
C37   C     C_1   0.325525 0.812434 0.780701 -0.035754
C38   C     C_R   0.890483 0.308218 0.086836 0.548031
C39   C     C_R   0.319484 0.299424 0.120015 0.550583
C40   C     C_R   0.299999 0.882834 0.082000 0.549972
C41   C     C_R   0.943376 0.274081 0.854636 0.564270
C42   C     C_R   0.308707 0.293785 0.892554 0.531263
C43   C     C_R   0.280867 0.881153 0.857689 0.542205
C44   C     C_R   0.365985 0.343705 0.581749 0.531450
C45   C     C_R   0.777869 0.378469 0.629049 0.544782
C46   C     C_1   0.342762 0.336459 0.274164 -0.036955
C47   C     C_1   0.332143 0.325921 0.203306 -0.035986
C48   C     C_R   0.829039 0.324956 0.160266 -0.006492
Cr1   Cr    Cr6+3 0.608100 0.610860 0.522250 1.017247
Cr2   Cr    Cr6+3 0.288890 0.599990 0.488420 1.004687
Cr3   Cr    Cr6+3 0.603040 0.289190 0.489390 0.989912
Cr4   Cr    Cr6+3 0.053960 0.052250 0.967380 1.011367
Cr5   Cr    Cr6+3 0.059890 0.373160 0.992710 1.020632
Cr6   Cr    Cr6+3 0.373370 0.061690 0.991710 1.005991
H1    H     H_    0.744121 0.576587 0.314975 0.155337
H2    H     H_    0.699144 0.958723 0.238478 0.134532
H3    H     H_    0.652516 0.986387 0.378328 0.137310
H4    H     H_    0.479996 0.923146 0.411555 0.147633
H5    H     H_    0.129275 0.516190 0.660259 0.142329
H6    H     H_    0.612992 0.167500 0.880301 0.136233
H7    H     H_    0.119381 0.510684 0.802184 0.142368
H8    H     H_    0.788816 0.949097 0.811670 0.122993
H9    H     H_    0.726433 0.870620 0.673159 0.124286
H10   H     H_    0.843792 0.062600 0.092157 0.143796
H11   H     H_    0.760346 0.552481 0.175508 0.137000
H12   H     H_    0.998048 0.861496 0.310109 0.128257
H13   H     H_    0.945916 0.090135 0.386257 0.132785
H14   H     H_    0.246028 0.645461 0.259665 0.126939
H15   H     H_    0.588010 0.851855 0.133326 0.132055
H16   H     H_    0.227783 0.695700 0.123138 0.166344
O1    O     O_R   0.749810 0.499790 0.438040 -0.529577
O2    O     O_R   0.298970 0.468800 0.557390 -0.511611
O3    O     O_R   0.489400 0.255930 0.561910 -0.520984
O4    O     O_R   0.723890 0.306050 0.584610 -0.493309
O5    O     O_3   0.500010 0.500010 0.500020 -0.275790
O6    O     O_R   0.171100 0.914680 0.053100 -0.499393
O7    O     O_R   0.941680 0.184840 0.050710 -0.510548
O8    O     O_R   0.922080 0.403420 0.072610 -0.511038
O9    O     O_R   0.196880 0.369150 0.083850 -0.494942
O10   O     O_R   0.411730 0.181020 0.091530 -0.516698
O11   O     O_R   0.365010 0.944360 0.063320 -0.511498
O12   O     O_R   0.477660 0.726260 0.439290 -0.502721
O13   O     O_R   0.159380 0.906670 0.876210 -0.521154
O14   O     O_R   0.930820 0.177420 0.886730 -0.501374
O15   O     O_R   0.910360 0.395420 0.895720 -0.509557
O16   O     O_R   0.186010 0.361730 0.919870 -0.513919
O17   O     O_R   0.400000 0.173010 0.914630 -0.520306
O18   O     O_R   0.354140 0.936940 0.899340 -0.494830
O19   O     O_3   0.162410 0.162370 0.983930 -0.258986
O20   O     O_R   0.260150 0.743000 0.412270 -0.519816
O21   O     O_R   0.297740 0.466550 0.394720 -0.517900
O22   O     O_R   0.488080 0.253500 0.386430 -0.520912
O23   O     O_R   0.722670 0.303800 0.421940 -0.505538
O24   O     O_R   0.751130 0.502220 0.613520 -0.516377
O25   O     O_R   0.478890 0.728510 0.601960 -0.458204
O26   O     O_R   0.261470 0.745430 0.587750 -0.503866
N1    N     N_3   0.486737 0.005910 0.579777 -0.586610
H17   H     H_    0.383054 0.075039 0.556249 0.228761
H18   H     H_    0.559751 0.994468 0.541789 0.222881
N2    N     N_3   0.946448 0.815737 0.149566 -0.639199
H19   H     H_    0.845897 0.829721 0.121884 0.211186
H20   H     H_    0.982866 0.734615 0.187525 0.224216

loop_
_geom_bond_atom_site_label_1
_geom_bond_atom_site_label_2
_ccdc_geom_bond_type
C25   C31   A    
C1    C21   S    
C1    O20   A    
C43   O13   A    
C12   O21   A    
C19   C20   A    
Cr3   O4    S    
N1    H17   S    
C7    C8    A    
C22   C42   S    
C19   H3    S    
C26   C32   A    
C26   C27   A    
C43   O18   A    
C14   C21   A    
C28   C29   A    
Cr5   O9    S    
Cr3   O5    S    
Cr6   O17   S    
C15   C16   A    
C33   C45   S    
C18   C19   A    
C6    H10   S    
Cr4   O14   S    
Cr2   O2    S    
C27   H7    S    
C29   H8    S    
Cr2   O20   S    
C8    C9    A    
Cr1   O5    S    
Cr5   O16   S    
C42   O16   A    
Cr1   O24   S    
C24   C28   A    
C26   H5    S    
C38   C48   S    
C18   H2    S    
C25   C32   A    
C30   H9    S    
Cr4   O19   S    
C2    C6    A    
C45   O24   A    
N1    H18   S    
Cr6   O10   S    
C28   H6    S    
C5    C48   A    
C7    N2    S    
C14   C20   A    
C16   H16   S    
C34   O25   A    
Cr6   O19   S    
C5    H11   S    
C38   O8    A    
C2    C48   A    
C1    O12   A    
C41   O14   A    
C8    H12   S    
Cr1   O25   S    
C23   O23   A    
C45   O4    A    
C39   O9    A    
Cr1   O12   S    
C37   C43   S    
Cr4   O13   S    
C9    H13   S    
C29   C30   A    
C3    C9    A    
C23   O1    A    
Cr3   O22   S    
C11   C16   A    
N2    H20   S    
C17   C18   A    
C32   C44   S    
C24   C25   A    
Cr3   O23   S    
C12   C46   S    
C22   C27   A    
C4    H1    S    
Cr5   O19   S    
C22   C24   A    
C4    C10   A    
Cr4   O7    S    
C39   C47   S    
C44   O3    A    
C46   C47   T    
C36   C37   T    
C40   O11   A    
C12   O22   A    
Cr3   O3    S    
C34   O26   A    
C4    C5    A    
Cr4   O6    S    
C6    C7    A    
C38   O7    A    
C10   C23   S    
C41   O15   A    
C13   C17   A    
C39   O10   A    
C2    C3    A    
C3    C10   A    
Cr2   O5    S    
Cr6   O18   S    
C11   C13   A    
Cr2   O26   S    
C30   C31   A    
C15   H14   S    
N2    H19   S    
C33   C35   T    
C44   O2    A    
C34   C36   S    
C31   N1    S    
C11   C40   S    
C35   C41   S    
Cr5   O8    S    
C40   O6    A    
Cr2   O21   S    
C15   C21   A    
Cr1   O1    S    
Cr5   O15   S    
C42   O17   A    
C17   H15   S    
C13   C14   A    
C20   H4    S    
Cr6   O11   S    
