data_mof_unit_49304.cif
_audit_creation_date              2012-12-11T17:41:37-0500
_audit_creation_method            fapswitch 2.2
_symmetry_space_group_name_H-M    P1
_symmetry_Int_Tables_number       1
_space_group_crystal_system       triclinic
_cell_length_a                    15.615333
_cell_length_b                    15.159707
_cell_length_c                    15.033418
_cell_angle_alpha                 109.130083
_cell_angle_beta                  120.342927
_cell_angle_gamma                 58.338967
_cell_volume                      2604.68031542

loop_
_atom_site_label
_atom_site_type_symbol
_atom_type_description
_atom_site_fract_x
_atom_site_fract_y
_atom_site_fract_z
_atom_type_partial_charge
C1    C     C_R   0.802972 0.936053 0.769237 0.171061
C2    C     C_R   0.191957 0.426582 0.087626 -0.102736
C3    C     C_R   0.707016 0.817284 0.998704 0.230278
C4    C     C_R   0.295763 0.345958 0.094862 0.242761
C5    C     C_R   0.707386 0.915009 0.019859 0.025240
C6    C     C_R   0.305763 0.245856 0.047280 0.012055
C7    C     C_R   0.808661 0.919173 0.061176 -0.230246
C8    C     C_R   0.209810 0.230258 0.988516 -0.206885
C9    C     C_R   0.907383 0.827704 0.079170 -0.066361
C10   C     C_R   0.106506 0.311645 0.980528 -0.035350
C11   C     C_R   0.905939 0.731289 0.054892 -0.064483
C12   C     C_R   0.202494 0.054433 0.224814 0.181169
C13   C     C_R   0.097772 0.409303 0.031241 -0.071639
C14   C     C_R   0.606176 0.047596 0.116879 -0.201264
C15   C     C_R   0.415521 0.139063 0.946022 -0.207923
C16   C     C_R   0.197504 0.272426 0.439296 -0.071009
C17   C     C_R   0.755532 0.710694 0.507711 -0.060094
C18   C     C_R   0.505738 0.106728 0.125912 0.084832
C19   C     C_R   0.509902 0.058301 0.932754 0.081267
C20   C     C_R   0.410816 0.162723 0.041630 0.071486
C21   C     C_R   0.607820 0.012590 0.020774 0.059563
C22   C     C_2   0.020067 0.346481 0.460874 -0.201774
C23   C     C_R   0.135576 0.272887 0.480299 0.128661
C24   C     C_2   0.849331 0.602787 0.385426 -0.185019
C25   C     C_2   0.960862 0.417253 0.391977 -0.079227
C26   C     C_2   0.866048 0.511982 0.401441 -0.092476
C27   C     C_2   0.957520 0.984814 0.857819 -0.173025
C28   C     C_2   0.059657 0.990195 0.132224 -0.195408
C29   C     C_R   0.287025 0.865938 0.708920 -0.092274
C30   C     C_R   0.742011 0.180754 0.383707 -0.108388
C31   C     C_R   0.367784 0.774945 0.683400 -0.090960
C32   C     C_R   0.655352 0.261691 0.409129 -0.082447
C33   C     C_R   0.339383 0.698607 0.608896 0.091635
C34   C     C_R   0.787325 0.701034 0.432576 0.116696
C35   C     C_R   0.677670 0.326010 0.501034 0.090750
C36   C     C_R   0.228741 0.714630 0.561550 -0.153081
C37   C     C_R   0.788026 0.307352 0.567325 -0.165820
C38   C     C_R   0.148291 0.805570 0.587569 -0.096503
C39   C     C_R   0.874433 0.225374 0.542259 -0.125406
C40   C     C_R   0.592592 0.228281 0.553398 -0.161886
C41   C     C_R   0.405308 0.779543 0.496776 -0.141927
C42   C     C_R   0.177369 0.881236 0.661065 -0.113468
C43   C     C_R   0.851385 0.162271 0.450259 -0.097953
C44   C     C_R   0.431394 0.506595 0.576080 -0.181925
C45   C     C_R   0.502160 0.322021 0.530271 -0.017438
C46   C     C_R   0.577565 0.512555 0.526659 -0.163251
C47   C     C_R   0.509458 0.415901 0.546714 0.095534
C48   C     C_R   0.498658 0.603267 0.553504 0.093118
C49   C     C_R   0.586957 0.417871 0.525896 0.030060
C50   C     C_R   0.424443 0.602525 0.579746 0.033731
C51   C     C_2   0.962659 0.988576 0.949819 -0.063128
C52   C     C_2   0.059808 0.980363 0.041278 -0.051832
C53   C     C_R   0.409085 0.040619 0.734075 -0.131386
C54   C     C_R   0.591865 0.019965 0.288701 -0.113726
C55   C     C_R   0.408787 0.306040 0.463125 0.201954
C56   C     C_R   0.496192 0.695362 0.546436 -0.022673
C57   C     C_R   0.589178 0.708333 0.581473 0.174437
C58   C     C_R   0.593982 0.969964 0.804719 -0.076924
C59   C     C_R   0.409817 0.091320 0.212822 -0.072764
C60   C     C_R   0.198439 0.184378 0.532608 -0.142717
C61   C     C_R   0.756887 0.800726 0.416372 -0.133873
C62   C     C_R   0.799401 0.033763 0.683462 -0.182882
C63   C     C_R   0.208001 0.955042 0.311908 -0.163910
C64   C     C_R   0.858858 0.983260 0.771192 0.088772
C65   C     C_R   0.151868 0.000409 0.221083 0.096012
C66   C     C_R   0.503743 0.024236 0.827988 0.051168
C67   C     C_R   0.501264 0.077870 0.207228 0.044336
C68   C     C_R   0.806054 0.726055 0.014348 -0.107395
H1    H     H_    0.992454 0.994229 0.140407 0.124772
H2    H     H_    0.033167 0.298850 0.935122 0.134813
H3    H     H_    0.681772 0.009199 0.181346 0.114597
H4    H     H_    0.342967 0.180537 0.880782 0.130762
H5    H     H_    0.823510 0.509232 0.438711 0.135047
H6    H     H_    0.991854 0.415190 0.340705 0.153395
H7    H     H_    0.892979 0.604250 0.348393 0.144743
H8    H     H_    0.987622 0.350061 0.511829 0.142678
H9    H     H_    0.114938 0.951694 0.680902 0.102377
H10   H     H_    0.918192 0.099373 0.430311 0.104388
H11   H     H_    0.166256 0.318667 0.379679 0.154928
H12   H     H_    0.022018 0.984423 0.847904 0.135659
H13   H     H_    0.767646 0.649165 0.539659 0.127666
H14   H     H_    0.309479 0.924607 0.765850 0.132166
H15   H     H_    0.724507 0.132816 0.312053 0.112226
H16   H     H_    0.452314 0.764292 0.721038 0.159576
H17   H     H_    0.571248 0.274077 0.357755 0.153611
H18   H     H_    0.204390 0.657466 0.503436 0.144976
H19   H     H_    0.806910 0.356682 0.638212 0.147215
H20   H     H_    0.063259 0.817555 0.550418 0.115190
H21   H     H_    0.959133 0.211419 0.593643 0.107572
H22   H     H_    0.374941 0.502102 0.594364 0.147949
H23   H     H_    0.982481 0.660676 0.068472 0.118273
H24   H     H_    0.631686 0.515567 0.503662 0.143480
H25   H     H_    0.677707 0.213786 0.599676 0.131214
H26   H     H_    0.319272 0.798379 0.468662 0.120215
H27   H     H_    0.323704 0.079964 0.723035 0.093013
H28   H     H_    0.676683 0.005275 0.317826 0.082391
H29   H     H_    0.679402 0.949294 0.855326 0.134518
H30   H     H_    0.325658 0.141278 0.168758 0.154293
H31   H     H_    0.169075 0.153347 0.561029 0.092404
H32   H     H_    0.769578 0.821407 0.363105 0.110286
H33   H     H_    0.828057 0.064952 0.654429 0.113698
H34   H     H_    0.017684 0.472053 0.025295 0.122773
H35   H     H_    0.183500 0.916654 0.337759 0.109416
H36   H     H_    0.130479 0.971639 0.035016 0.147232
H37   H     H_    0.892994 0.997175 0.957862 0.135402
H38   H     H_    0.806160 0.650993 0.998300 0.149737
H39   H     H_    0.183869 0.503522 0.123845 0.148530
H40   H     H_    0.811082 0.993570 0.082078 0.129865
H41   H     H_    0.215086 0.155125 0.947826 0.137991
H42   H     H_    0.985205 0.831239 0.111734 0.126087
I1    I     I_    0.887182 0.791771 0.830753 -0.410502
I2    I     I_    0.115294 0.192003 0.150276 -0.498558
I3    I     I_    0.563416 0.802766 0.957506 -0.457241
I4    I     I_    0.429855 0.384565 0.165831 -0.427150
I5    I     I_    0.263419 0.412254 0.356326 -0.509062
I6    I     I_    0.739260 0.631257 0.706313 -0.453401
N1    N     N_R   0.705410 0.966550 0.689210 -0.067123
N2    N     N_R   0.556610 0.796750 0.548620 -0.060145
N3    N     N_R   0.556610 0.951620 0.703500 -0.037301
N4    N     N_R   0.443390 0.048380 0.296500 -0.042399
N5    N     N_R   0.294590 0.131500 0.522480 -0.046465
N6    N     N_R   0.705410 0.868500 0.477520 -0.048867
N7    N     N_R   0.705410 0.023370 0.632390 -0.052989
N8    N     N_R   0.294590 0.976630 0.367610 -0.053449
N9    N     N_R   0.294590 0.033450 0.310790 -0.063631
N10   N     N_R   0.294590 0.188320 0.465660 -0.047908
N11   N     N_R   0.705410 0.811680 0.534340 -0.038527
N12   N     N_R   0.556610 0.157790 0.497330 -0.054878
N13   N     N_R   0.443390 0.842210 0.502670 -0.053140
N14   N     N_R   0.443390 0.997080 0.657540 -0.044645
N15   N     N_R   0.556610 0.002920 0.342460 -0.043688
N16   N     N_R   0.443390 0.203250 0.451380 -0.059078
Ni1   Ni    Ni4+2 0.629830 0.882720 0.617850 0.275049
Ni2   Ni    Ni4+2 0.370170 0.117280 0.382150 0.252022
Ni3   Ni    Ni4+2 0.629830 0.013030 0.487540 0.210096
Ni4   Ni    Ni4+2 0.370170 0.986970 0.512460 0.210131

loop_
_geom_bond_atom_site_label_1
_geom_bond_atom_site_label_2
_ccdc_geom_bond_type
N9    Ni2   S    
C41   N13   A    
C63   C65   A    
C59   N4    A    
C29   C42   A    
C53   H27   S    
N4    N15   A    
C14   H3    S    
C14   C18   A    
C3    C68   A    
C22   H8    S    
C40   H25   S    
C60   H31   S    
N1    Ni1   S    
C33   C36   A    
C63   N8    A    
C47   C49   A    
C43   H10   S    
C15   C19   A    
C54   N15   A    
C46   C49   A    
N3    Ni1   S    
C14   C21   A    
C4    I4    S    
C35   C37   A    
C24   C26   D    
C38   C42   A    
N15   Ni3   S    
C46   H24   S    
C40   N12   A    
C2    H39   S    
C30   H15   S    
N3    N14   A    
C56   C57   A    
C19   C66   S    
C48   C56   S    
C25   H6    S    
N6    N11   A    
C2    C13   A    
C62   C64   A    
C59   C67   A    
C58   C66   A    
C28   H1    S    
C22   C25   D    
C35   C49   S    
C31   C33   A    
C54   H28   S    
C44   C47   A    
C51   H37   S    
C62   H33   S    
C48   C50   A    
C40   C45   A    
C58   H29   S    
C68   H38   S    
N12   N16   A    
C62   N7    A    
C25   C26   S    
C27   C51   D    
C57   I6    S    
C45   C47   S    
C23   C60   A    
C37   C39   A    
C46   C48   A    
N8    Ni4   S    
C51   C52   S    
C32   C35   A    
C4    C6    A    
C27   H12   S    
C3    I3    S    
N12   Ni3   S    
C5    C7    A    
C17   N11   A    
C39   C43   A    
C12   N9    A    
C36   H18   S    
C33   C50   S    
C26   H5    S    
C34   C61   A    
C24   C34   S    
C31   H16   S    
C38   H20   S    
C61   N6    A    
C2    C4    A    
C41   C56   A    
C15   H4    S    
N13   Ni4   S    
C41   H26   S    
C15   C20   A    
C1    N1    A    
C53   C66   A    
C9    C11   A    
C45   C55   A    
N2    Ni1   S    
N16   Ni2   S    
C10   H2    S    
C63   H35   S    
C16   C23   A    
C30   C43   A    
C61   H32   S    
C17   C34   A    
C1    C64   A    
C12   I2    S    
C44   H22   S    
C11   C68   A    
C44   C50   A    
C9    H42   S    
C7    C9    A    
N4    Ni2   S    
C52   H36   S    
C19   C21   A    
C22   C23   S    
C37   H19   S    
N14   Ni4   S    
N11   Ni1   S    
C3    C5    A    
C10   C13   A    
C18   C20   A    
C6    C8    A    
C24   H7    S    
C54   C67   A    
C6    C20   S    
C12   C65   A    
C16   H11   S    
C36   C38   A    
C28   C65   S    
C18   C67   S    
N5    N10   A    
C29   C31   A    
N2    N13   A    
C8    H41   S    
C1    I1    S    
C30   C32   A    
C28   C52   D    
C55   I5    S    
C32   H17   S    
C58   N3    A    
C17   H13   S    
N5    Ni4   S    
N1    N7    A    
C60   N5    A    
N6    Ni3   S    
C27   C64   S    
C11   H23   S    
C29   H14   S    
C5    C21   S    
N10   Ni2   S    
C42   H9    S    
C8    C10   A    
C55   N16   A    
N7    Ni3   S    
C59   H30   S    
C7    H40   S    
N8    N9    A    
C53   N14   A    
C13   H34   S    
C16   N10   A    
C39   H21   S    
C57   N2    A    
