data_mof_unit_36767.cif
_audit_creation_date              2012-10-26T21:12:36-0400
_audit_creation_method            fapswitch 2.2
_symmetry_space_group_name_H-M    P1
_symmetry_Int_Tables_number       1
_space_group_crystal_system       triclinic
_cell_length_a                    23.520264
_cell_length_b                    10.866166
_cell_length_c                    9.58502
_cell_angle_alpha                 88.32861
_cell_angle_beta                  89.881405
_cell_angle_gamma                 93.051423
_cell_volume                      2445.16225927

loop_
_atom_site_label
_atom_site_type_symbol
_atom_type_description
_atom_site_fract_x
_atom_site_fract_y
_atom_site_fract_z
_atom_type_partial_charge
C1    C     C_R   0.496278 0.262341 0.502165 0.549045
C2    C     C_R   0.122322 0.606800 0.541689 0.401687
C3    C     C_R   0.239032 0.505914 0.627135 -0.056065
C4    C     C_R   0.390984 0.499862 0.500178 0.541435
C5    C     C_R   0.298291 0.504841 0.627052 -0.150411
C6    C     C_R   0.328391 0.500802 0.500510 0.004802
C7    C     C_R   0.298110 0.498009 0.374233 -0.137253
C8    C     C_R   0.238864 0.499035 0.374640 -0.055019
C9    C     C_R   0.209109 0.502927 0.501001 0.240998
C10   C     C_R   0.761217 0.504051 0.372643 -0.053555
C11   C     C_R   0.701904 0.502463 0.372766 -0.142953
C12   C     C_R   0.965037 0.295753 0.416534 -0.120910
C13   C     C_R   0.671689 0.503188 0.499450 0.004448
C14   C     C_R   0.701941 0.506446 0.625784 -0.143613
C15   C     C_R   0.761253 0.508153 0.625321 -0.054210
C16   C     C_R   0.495260 0.736961 0.497631 0.534742
C17   C     C_R   0.791087 0.506616 0.498856 0.240504
C18   C     C_R   0.426204 0.111899 0.711534 -0.091921
C19   C     C_R   0.395353 0.040234 0.811141 -0.106672
C20   C     C_R   0.393795 0.912645 0.806149 -0.104238
C21   C     C_R   0.422973 0.855971 0.701323 -0.089846
C22   C     C_R   0.456952 0.926231 0.602299 0.014686
C23   C     C_R   0.024334 0.295115 0.417159 -0.122023
C24   C     C_R   0.458602 0.056921 0.607878 0.026095
C25   C     C_R   0.490174 0.127898 0.504838 -0.030336
C26   C     C_R   0.512685 0.070776 0.390828 -0.147741
C27   C     C_R   0.507198 0.944647 0.377913 0.028244
C28   C     C_R   0.609028 0.500939 0.499816 0.545106
C29   C     C_R   0.485746 0.870056 0.491847 -0.022335
C30   C     C_R   0.580543 0.653207 0.138927 -0.066251
C31   C     C_R   0.622169 0.722841 0.064489 -0.126719
C32   C     C_R   0.621526 0.725147 0.920710 -0.160855
C33   C     C_R   0.579983 0.655825 0.850776 -0.093430
C34   C     C_R   0.057298 0.399202 0.458799 0.029171
C35   C     C_R   0.539590 0.575742 0.922574 0.149402
C36   C     C_R   0.539748 0.575045 0.072192 0.150500
C37   C     C_R   0.462079 0.428530 0.076571 0.007293
C38   C     C_R   0.462067 0.428666 0.928634 -0.000342
C39   C     C_R   0.883182 0.609198 0.539699 0.400895
C40   C     C_R   0.877897 0.403126 0.458133 0.402575
C41   C     C_R   0.937464 0.400478 0.457576 0.028850
C42   C     C_R   0.970095 0.505295 0.499668 -0.027917
C43   C     C_R   0.942874 0.610719 0.541205 0.029385
C44   C     C_2   0.519206 0.899196 0.237567 0.575992
C45   C     C_R   0.030092 0.504660 0.500262 -0.027907
C46   C     C_R   0.062738 0.609474 0.542314 0.029129
C47   C     C_R   0.035157 0.714189 0.583392 -0.121322
C48   C     C_R   0.975845 0.714800 0.582855 -0.121857
C49   C     C_R   0.116971 0.400643 0.460379 0.400694
Cu1   Cu    Cu3+1 0.500000 0.499990 0.640660 0.919330
Cu2   Cu    Cu3+1 0.500000 0.500010 0.359340 0.961551
H1    H     H_    0.940921 0.213965 0.383835 0.172445
H2    H     H_    0.431009 0.369929 0.133936 0.115568
H3    H     H_    0.044214 0.212861 0.384899 0.170448
H4    H     H_    0.580616 0.668593 0.247843 0.188511
H5    H     H_    0.653453 0.780110 0.118938 0.160488
H6    H     H_    0.652509 0.783648 0.862683 0.141794
H7    H     H_    0.581279 0.670225 0.740809 0.187662
H8    H     H_    0.430769 0.370760 0.875675 0.099519
H9    H     H_    0.059276 0.795976 0.616078 0.171814
H10   H     H_    0.955960 0.797031 0.615165 0.170620
H11   H     H_    0.216276 0.508593 0.725235 0.132663
H12   H     H_    0.679804 0.500383 0.273786 0.134272
H13   H     H_    0.320447 0.507191 0.725956 0.124296
H14   H     H_    0.320111 0.494965 0.275127 0.131214
H15   H     H_    0.215996 0.497065 0.276723 0.132462
H16   H     H_    0.784050 0.503256 0.274480 0.134300
H17   H     H_    0.488203 0.812692 0.068092 0.334084
H18   H     H_    0.679872 0.507401 0.724986 0.135997
H19   H     H_    0.784095 0.509867 0.723281 0.134606
H20   H     H_    0.532831 0.125987 0.306440 0.173416
H21   H     H_    0.421997 0.209896 0.714400 0.130949
H22   H     H_    0.371062 0.084066 0.889960 0.118032
H23   H     H_    0.368228 0.857295 0.880968 0.131256
H24   H     H_    0.415826 0.757343 0.695716 0.153368
N1    N     N_R   0.852071 0.506418 0.498706 -0.399649
N2    N     N_R   0.148123 0.503450 0.501169 -0.399215
N3    N     N_R   0.500540 0.501210 0.147910 -0.236293
N4    N     N_R   0.500560 0.501290 0.852040 -0.242831
O1    O     O_R   0.500000 0.319640 0.618810 -0.496277
O2    O     O_R   0.582120 0.500020 0.618760 -0.515091
O3    O     O_R   0.582120 0.500050 0.381190 -0.524670
O4    O     O_2   0.856411 0.709796 0.577892 -0.491435
O5    O     O_2   0.563338 0.933682 0.177309 -0.540271
O6    O     O_R   0.477171 0.829054 0.167888 -0.671929
O7    O     O_2   0.845977 0.303001 0.419614 -0.485471
O8    O     O_2   0.143693 0.299880 0.422491 -0.491728
O9    O     O_2   0.154265 0.706926 0.580084 -0.490518
O10   O     O_R   0.500000 0.319660 0.381240 -0.502800
O11   O     O_R   0.417880 0.499950 0.618810 -0.523702
O12   O     O_R   0.417880 0.499980 0.381240 -0.496537
O13   O     O_R   0.500000 0.680340 0.618760 -0.537982
O14   O     O_R   0.500000 0.680360 0.381190 -0.474240

loop_
_geom_bond_atom_site_label_1
_geom_bond_atom_site_label_2
_ccdc_geom_bond_type
C8    H15   S    
C33   H7    S    
C26   H20   S    
C22   C29   A    
C27   C29   A    
C41   C42   A    
C49   O8    S    
C19   C20   A    
Cu1   N4    S    
C7    C8    A    
C10   H16   S    
C2    C46   A    
C12   C23   A    
C26   C27   A    
C37   C38   A    
C18   C24   A    
C11   H12   S    
C30   C31   A    
C38   N4    A    
C10   C17   A    
C18   C19   A    
C40   O7    S    
Cu2   O12   S    
C47   H9    S    
C27   C44   S    
Cu1   O11   S    
C31   C32   A    
C8    C9    A    
C17   N1    S    
C13   C28   S    
C2    O9    S    
C31   H5    S    
C43   C48   A    
C4    O12   A    
C37   H2    S    
C21   C22   A    
C1    C25   S    
H17   O6    S    
C32   H6    S    
C12   H1    S    
C4    O11   A    
C18   H21   S    
C28   O3    A    
C19   H22   S    
C24   C25   A    
C4    C6    S    
C39   C43   A    
C3    C5    A    
C25   C26   A    
C45   C46   A    
C40   N1    A    
C5    H13   S    
C42   C45   A    
C12   C41   A    
C3    C9    A    
C7    H14   S    
C47   C48   A    
C23   C34   A    
Cu1   Cu2   S    
C16   O14   A    
C20   H23   S    
C34   C45   A    
C9    N2    S    
C39   N1    A    
Cu2   O3    S    
Cu2   O14   S    
Cu1   O13   S    
C40   C41   A    
C16   O13   A    
C14   H18   S    
C22   C24   A    
C42   C43   A    
C44   O6    S    
C23   H3    S    
C37   N3    A    
C3    H11   S    
C15   C17   A    
C15   H19   S    
C46   C47   A    
C34   C49   A    
C1    O10   A    
C28   O2    A    
C44   O5    D    
Cu1   O1    S    
C6    C7    A    
C30   H4    S    
C21   H24   S    
C30   C36   A    
C32   C33   A    
C16   C29   S    
Cu2   N3    S    
C39   O4    S    
C2    N2    A    
C36   N3    A    
Cu2   O10   S    
C11   C13   A    
C48   H10   S    
C5    C6    A    
C35   N4    A    
C33   C35   A    
C49   N2    A    
C10   C11   A    
C38   H8    S    
C20   C21   A    
C1    O1    A    
C14   C15   A    
C35   C36   A    
C13   C14   A    
Cu1   O2    S    
