data_mof_unit_42210.cif
_audit_creation_date              2013-03-05T16:03:18-0500
_audit_creation_method            fapswitch 2.2
_symmetry_space_group_name_H-M    P1
_symmetry_Int_Tables_number       1
_space_group_crystal_system       triclinic
_cell_length_a                    27.914216
_cell_length_b                    11.713262
_cell_length_c                    10.443769
_cell_angle_alpha                 89.952737
_cell_angle_beta                  90.064001
_cell_angle_gamma                 90.050336
_cell_volume                      3414.7582562

loop_
_atom_site_label
_atom_site_type_symbol
_atom_site_description
_atom_site_fract_x
_atom_site_fract_y
_atom_site_fract_z
_atom_type_partial_charge
O1    O     O_R   0.500000 0.337200 0.605810 -0.568005
O2    O     O_R   0.500000 0.662800 0.394190 -0.571054
O3    O     O_R   0.500000 0.662800 0.605810 -0.566114
O4    O     O_R   0.500000 0.337200 0.394190 -0.570459
C1    C     C_R   0.500018 0.283282 0.500045 0.809456
C2    C     C_R   0.499993 0.716718 0.499961 0.811037
O5    O     O_R   0.430260 0.500000 0.605800 -0.537132
O6    O     O_R   0.569740 0.500000 0.394200 -0.588462
O7    O     O_R   0.569740 0.500000 0.605800 -0.537845
O8    O     O_R   0.430260 0.500000 0.394200 -0.591806
C3    C     C_R   0.407070 0.500137 0.499820 0.865129
C4    C     C_R   0.592997 0.499513 0.499991 0.863072
Cu1   Cu    Cu3+1 0.500000 0.500000 0.625300 0.999414
Cu2   Cu    Cu3+1 0.500000 0.500000 0.374700 0.962057
C5    C     C_R   0.177795 0.398535 0.550431 0.523406
C6    C     C_R   0.822775 0.600503 0.520278 0.585683
C7    C     C_R   0.177938 0.594960 0.489835 0.596243
C8    C     C_R   0.822716 0.396832 0.515580 0.591137
O9    O     O_2   0.203336 0.303425 0.575836 -0.519487
O10   O     O_2   0.797252 0.698245 0.521109 -0.511955
O11   O     O_2   0.203649 0.689407 0.462320 -0.511352
O12   O     O_2   0.797145 0.299134 0.511117 -0.511004
N1    N     N_R   0.201588 0.496131 0.517852 -0.441184
N2    N     N_R   0.798929 0.498698 0.516214 -0.432451
C9    C     C_R   0.279212 0.547012 0.612643 0.217465
C10   C     C_R   0.721027 0.456305 0.616061 0.198681
C11   C     C_R   0.276773 0.449307 0.406255 0.231361
C12   C     C_R   0.723717 0.540005 0.402253 0.234180
C13   C     C_R   0.329598 0.554062 0.604540 0.125790
C14   C     C_R   0.670579 0.451246 0.609256 0.121915
C15   C     C_R   0.326975 0.449542 0.401225 0.138530
C16   C     C_R   0.673398 0.542645 0.397796 0.100898
C17   C     C_R   0.253065 0.495204 0.513374 0.179662
C18   C     C_R   0.747329 0.498766 0.511713 0.209110
C19   C     C_R   0.101945 0.497893 0.523875 -0.147420
C20   C     C_R   0.898678 0.498594 0.522452 -0.150046
C21   C     C_R   0.127303 0.396950 0.555704 -0.046921
C22   C     C_R   0.873300 0.603388 0.523164 -0.059630
C23   C     C_R   0.127423 0.598278 0.490329 -0.059619
C24   C     C_R   0.873230 0.393836 0.519298 -0.061295
C25   C     C_R   0.101397 0.297917 0.590891 0.275301
C26   C     C_R   0.899228 0.707283 0.526424 0.277511
C27   C     C_R   0.101622 0.698234 0.458185 0.273264
C28   C     C_R   0.899075 0.289884 0.519636 0.276551
C29   C     C_R   0.353912 0.502063 0.500579 -0.228326
C30   C     C_R   0.646275 0.497046 0.501197 -0.208231
C31   C     C_R   0.974904 0.394323 0.535106 0.033358
C32   C     C_R   0.025742 0.601258 0.503602 0.033653
C33   C     C_R   0.975061 0.602801 0.515417 0.033032
C34   C     C_R   0.025570 0.395741 0.547684 0.032956
C35   C     C_R   0.949615 0.498571 0.524467 0.067025
C36   C     C_R   0.051016 0.498339 0.525211 0.064603
C37   C     C_R   0.948888 0.291423 0.529679 -0.282049
C38   C     C_R   0.051788 0.699066 0.467395 -0.282885
C39   C     C_R   0.949124 0.705715 0.520411 -0.282541
C40   C     C_R   0.051492 0.297928 0.584294 -0.286941
H1    H     H_    0.966642 0.209698 0.525975 0.136407
H2    H     H_    0.034041 0.776642 0.438159 0.136747
H3    H     H_    0.966950 0.787332 0.526288 0.136124
H4    H     H_    0.033633 0.220941 0.615133 0.137141
C41   C     C_1   0.499993 0.161955 0.500116 -0.189128
C42   C     C_1   0.499966 0.838045 0.499911 -0.188961
C43   C     C_1   0.499970 0.059718 0.500074 0.003500
C44   C     C_1   0.499957 0.940281 0.499972 0.003652
N3    N     N_1   0.500000 0.500000 0.186410 -0.145633
N4    N     N_1   0.500000 0.500000 0.813590 -0.134137
C45   C     C_1   0.500003 0.500000 0.071993 0.068912
C46   C     C_1   0.500003 0.499999 0.928008 0.090055
N5    N     N_2   0.349222 0.393208 0.296155 -0.398205
H5    H     H_    0.372650 0.441640 0.242799 0.270609
C47   C     C_3   0.364782 0.277686 0.321642 -0.590998
H6    H     H_    0.393908 0.277048 0.394134 0.203149
H7    H     H_    0.378408 0.238704 0.231948 0.217558
H8    H     H_    0.334251 0.225449 0.356790 0.240258
N6    N     N_2   0.651258 0.591392 0.287679 -0.428089
H9    H     H_    0.628421 0.538710 0.237569 0.279979
C48   C     C_3   0.635015 0.707862 0.302686 -0.638506
H10   H     H_    0.605452 0.712599 0.373475 0.223623
H11   H     H_    0.621805 0.740519 0.209299 0.222704
H12   H     H_    0.665043 0.763165 0.334957 0.231481
N7    N     N_2   0.356071 0.613691 0.700476 -0.401488
H13   H     H_    0.342996 0.606564 0.792349 0.254442
C49   C     C_3   0.368958 0.729468 0.666374 -0.635660
H14   H     H_    0.336297 0.782910 0.656533 0.217624
H15   H     H_    0.389208 0.731028 0.574887 0.220655
H16   H     H_    0.392111 0.766375 0.742326 0.225205
N8    N     N_2   0.644063 0.400291 0.711100 -0.400495
H17   H     H_    0.657065 0.415631 0.801866 0.253236
C50   C     C_3   0.631182 0.282113 0.689914 -0.633185
H18   H     H_    0.663832 0.228049 0.686248 0.216598
H19   H     H_    0.610941 0.272709 0.598870 0.222205
H20   H     H_    0.608017 0.251975 0.769430 0.223878
N9    N     N_2   0.250381 0.402905 0.301453 -0.385554
H21   H     H_    0.219024 0.361880 0.325498 0.267406
C51   C     C_3   0.244260 0.480467 0.194842 -0.671199
H22   H     H_    0.222101 0.554761 0.224074 0.225297
H23   H     H_    0.225884 0.435515 0.115118 0.220587
H24   H     H_    0.279540 0.511047 0.159549 0.242799
N10   N     N_2   0.751291 0.579740 0.296369 -0.386646
H25   H     H_    0.737557 0.650687 0.250889 0.285911
C52   C     C_3   0.765261 0.491358 0.207386 -0.688147
H26   H     H_    0.789154 0.528321 0.133219 0.221816
H27   H     H_    0.733106 0.454801 0.159720 0.227997
H28   H     H_    0.785107 0.422416 0.257558 0.241195
N11   N     N_2   0.253905 0.597545 0.716638 -0.400891
H29   H     H_    0.267300 0.674849 0.747305 0.263853
C53   C     C_3   0.243084 0.520352 0.820887 -0.699611
H30   H     H_    0.221263 0.565503 0.893796 0.223627
H31   H     H_    0.276625 0.489721 0.866746 0.219117
H32   H     H_    0.222218 0.445965 0.786036 0.257140
N12   N     N_2   0.746142 0.415033 0.725646 -0.396192
H33   H     H_    0.731956 0.342829 0.767411 0.265817
C54   C     C_3   0.759138 0.502027 0.817556 -0.702294
H34   H     H_    0.781125 0.463289 0.894798 0.225187
H35   H     H_    0.726487 0.540069 0.860724 0.220630
H36   H     H_    0.780635 0.570265 0.771198 0.247913
N13   N     N_2   0.124878 0.197231 0.634482 -0.370879
H37   H     H_    0.109104 0.122679 0.602825 0.236517
C55   C     C_3   0.133531 0.195287 0.771088 -0.607589
H38   H     H_    0.154607 0.118100 0.796235 0.228451
H39   H     H_    0.098993 0.192829 0.823917 0.194085
H40   H     H_    0.154253 0.271815 0.801071 0.236526
N14   N     N_2   0.875777 0.814904 0.535205 -0.374942
H41   H     H_    0.891128 0.877432 0.478917 0.235880
C56   C     C_3   0.868333 0.853583 0.665181 -0.620765
H42   H     H_    0.846942 0.933450 0.664086 0.234571
H43   H     H_    0.903305 0.871017 0.712310 0.192184
H44   H     H_    0.848414 0.788355 0.721271 0.241707
N15   N     N_2   0.125103 0.798862 0.414285 -0.370694
H45   H     H_    0.110200 0.873332 0.448769 0.238404
C57   C     C_3   0.131825 0.802661 0.276987 -0.616522
H46   H     H_    0.153032 0.879558 0.251306 0.229785
H47   H     H_    0.096585 0.807006 0.227539 0.195691
H48   H     H_    0.151604 0.725968 0.243600 0.234490
N16   N     N_2   0.875623 0.182209 0.510145 -0.374777
H49   H     H_    0.889948 0.120623 0.569592 0.236066
C58   C     C_3   0.870329 0.141354 0.380200 -0.621056
H50   H     H_    0.848714 0.061739 0.380234 0.235421
H51   H     H_    0.906025 0.122755 0.338039 0.191488
H52   H     H_    0.851589 0.205795 0.320192 0.241682

loop_
_geom_bond_atom_site_label_1
_geom_bond_atom_site_label_2
_geom_bond_distance
_ccdc_geom_bond_type
O5    Cu1   1.957134 S    
N4    C46   1.194956 T    
N8    H17   1.030531 S    
N9    H21   1.029414 S    
C39   H3    1.079121 S    
N14   H41   1.031945 S    
N11   H29   1.030488 S    
C19   C23   1.417579 A    
N12   H33   1.030310 S    
C57   H48   1.111406 S    
C16   N6    1.424251 S    
N7    H13   1.030256 S    
C51   H24   1.110852 S    
C9    N11   1.425658 S    
N16   H49   1.031949 S    
C48   H10   1.110023 S    
C11   C17   1.407767 A    
C32   C38   1.408028 A    
N11   C53   1.446647 S    
C52   H26   1.110108 S    
C49   H14   1.110994 S    
O1    C1    1.272839 A    
C19   C21   1.417682 A    
N15   H45   1.032046 S    
C32   C36   1.415143 A    
N13   C55   1.446886 S    
N14   C56   1.446690 S    
N3    C45   1.194943 T    
C41   C43   1.197521 T    
C7    C23   1.410691 A    
N5    C47   1.445913 S    
O7    Cu1   1.957584 S    
C5    C21   1.410695 A    
C20   C24   1.417686 A    
C42   C44   1.197519 T    
C5    O9    1.349176 S    
C28   C37   1.394423 A    
C10   C18   1.405095 A    
C51   H22   1.111265 S    
C33   C35   1.415073 A    
C56   H44   1.111436 S    
C34   C36   1.415017 A    
C53   H30   1.110304 S    
C50   H19   1.110998 S    
O3    Cu1   1.917585 S    
C6    O10   1.349017 S    
C31   C37   1.407766 A    
C54   H36   1.110194 S    
O3    C2    1.272694 A    
C28   N16   1.423964 S    
C5    N1    1.364636 A    
C12   C18   1.404482 A    
C6    N2    1.365829 A    
Cu1   Cu2   2.617209 S    
O4    Cu2   1.917585 S    
C53   H31   1.110858 S    
O2    C2    1.272891 A    
N7    C49   1.447063 S    
C26   N14   1.424002 S    
C31   C34   1.420344 A    
Cu1   N4    1.966458 S    
C55   H39   1.111665 S    
C9    C13   1.411482 A    
C58   H52   1.111451 S    
C11   C15   1.402390 A    
C45   C46   1.503746 S    
C27   N15   1.423919 S    
C4    C30   1.487565 S    
O8    Cu2   1.957587 S    
C47   H7    1.110152 S    
C37   H1    1.079071 S    
C31   C35   1.415202 A    
N1    C17   1.437807 S    
C33   C39   1.407739 A    
C34   C40   1.408028 A    
C40   H4    1.079131 S    
C13   C29   1.419122 A    
O5    C3    1.281608 A    
N6    H9    1.029646 S    
C25   C40   1.394668 A    
C13   N7    1.427001 S    
C26   C39   1.394447 A    
C58   H51   1.111629 S    
C27   C38   1.394549 A    
N10   H25   1.030856 S    
C12   C16   1.405712 A    
O6    C4    1.280855 A    
C48   H11   1.110121 S    
C1    C41   1.421140 S    
N12   C54   1.446202 S    
C7    N1    1.364489 A    
C50   H20   1.110273 S    
N6    C48   1.446694 S    
C20   C35   1.422007 A    
C12   N10   1.425594 S    
C32   C33   1.420364 A    
C49   H15   1.110828 S    
C10   C14   1.411144 A    
C52   H28   1.110407 S    
N8    C50   1.447014 S    
C56   H42   1.110313 S    
C53   H32   1.109096 S    
C8    N2    1.366036 A    
C11   N9    1.426397 S    
O1    Cu1   1.917919 S    
C57   H46   1.110273 S    
C54   H34   1.110018 S    
C38   H2    1.079032 S    
C48   H12   1.111110 S    
N16   C58   1.446763 S    
O6    Cu2   1.957132 S    
N10   C52   1.445873 S    
C8    O12   1.349001 S    
C16   C30   1.422967 A    
C14   C30   1.421125 A    
O4    C1    1.272751 A    
C57   H47   1.111668 S    
C47   H8    1.111248 S    
C23   C27   1.415091 A    
C55   H38   1.110267 S    
C51   H23   1.110363 S    
C22   C26   1.415774 A    
C58   H50   1.110289 S    
C2    C42   1.421138 S    
C20   C22   1.417804 A    
C14   N8    1.426640 S    
C47   H6    1.110349 S    
C15   N5    1.424301 S    
N13   H37   1.032089 S    
N9    C51   1.446535 S    
C54   H35   1.111054 S    
C55   H40   1.111455 S    
Cu2   N3    1.966457 S    
C21   C25   1.414928 A    
N5    H5    1.029400 S    
O2    Cu2   1.917919 S    
O7    C4    1.282281 A    
N2    C18   1.441075 S    
C3    C29   1.484080 S    
O8    C3    1.279620 A    
C43   C44   1.399004 S    
C24   C28   1.415850 A    
C49   H16   1.110277 S    
C8    C24   1.411016 A    
C52   H27   1.111548 S    
C15   C29   1.420927 A    
C6    C22   1.411027 A    
C19   C36   1.421747 A    
C56   H43   1.111635 S    
C25   N13   1.423934 S    
C50   H18   1.110966 S    
C10   N12   1.425801 S    
C9    C17   1.405122 A    
N15   C57   1.446990 S    
C7    O11   1.349098 S    
