data_mof_unit_37519.cif
_audit_creation_date              2012-12-11T14:44:15-0500
_audit_creation_method            fapswitch 2.2
_symmetry_space_group_name_H-M    P1
_symmetry_Int_Tables_number       1
_space_group_crystal_system       triclinic
_cell_length_a                    18.976911
_cell_length_b                    10.916995
_cell_length_c                    18.771274
_cell_angle_alpha                 90.204255
_cell_angle_beta                  89.810477
_cell_angle_gamma                 90.130083
_cell_volume                      3888.80474436

loop_
_atom_site_label
_atom_site_type_symbol
_atom_type_description
_atom_site_fract_x
_atom_site_fract_y
_atom_site_fract_z
_atom_type_partial_charge
C1    C     C_R   0.730624 0.377418 0.146272 0.557715
C2    C     C_R   0.023235 0.001728 0.027828 -0.139253
C3    C     C_R   0.007852 0.779446 0.035553 0.028794
C4    C     C_R   0.487219 0.058705 0.040039 -0.156800
C5    C     C_R   0.484473 0.054609 0.967218 -0.145418
C6    C     C_R   0.987239 0.558699 0.040031 -0.156745
C7    C     C_R   0.984495 0.554604 0.967210 -0.145744
C8    C     C_3   0.612709 0.739667 0.573522 0.012241
C9    C     C_3   0.533266 0.755785 0.571087 -0.274675
C10   C     C_3   0.495242 0.632430 0.569601 -0.495792
C11   C     C_3   0.390007 0.777995 0.419642 0.022244
C12   C     C_3   0.437023 0.689969 0.377271 -0.261792
C13   C     C_R   0.534607 0.492334 0.954881 -0.129440
C14   C     C_3   0.503463 0.752663 0.349458 -0.472832
C15   C     C_3   0.101957 0.209257 0.538167 0.017857
C16   C     C_3   0.052636 0.312075 0.563039 -0.256574
C17   C     C_3   0.993480 0.262175 0.610685 -0.451628
C18   C     C_3   0.888455 0.267709 0.424565 0.025825
C19   C     C_3   0.938836 0.173358 0.392071 -0.261238
C20   C     C_3   0.001997 0.234879 0.356337 -0.479429
C21   C     C_R   0.523240 0.501727 0.027830 -0.139406
C22   C     C_R   0.699099 0.861944 0.039660 -0.141192
C23   C     C_R   0.299129 0.860046 0.960996 -0.136886
C24   C     C_R   0.199102 0.361938 0.039662 -0.141361
C25   C     C_R   0.799118 0.360024 0.960989 -0.136600
C26   C     C_R   0.709350 0.834756 0.968053 -0.138470
C27   C     C_R   0.297275 0.845639 0.034494 -0.137010
C28   C     C_R   0.209352 0.334750 0.968054 -0.139057
C29   C     C_R   0.288193 0.330085 0.861472 0.564177
C30   C     C_R   0.797264 0.345616 0.034487 -0.136818
C31   C     C_R   0.776309 0.849772 0.937279 0.027250
C32   C     C_R   0.250860 0.917135 0.075745 0.027941
C33   C     C_R   0.276310 0.349771 0.937280 0.027771
C34   C     C_R   0.750856 0.417122 0.075740 0.027902
C35   C     C_R   0.833346 0.884960 0.979559 -0.133928
C36   C     C_R   0.210605 0.008418 0.043974 -0.120711
C37   C     C_R   0.333348 0.384964 0.979559 -0.133779
C38   C     C_R   0.710605 0.508412 0.043971 -0.120628
C39   C     C_R   0.823219 0.912271 0.050828 -0.132442
C40   C     C_R   0.230626 0.877423 0.146275 0.557990
C41   C     C_R   0.210676 0.019510 0.971232 -0.118634
C42   C     C_R   0.323220 0.412274 0.050828 -0.132493
C43   C     C_R   0.710677 0.519507 0.971229 -0.119015
C44   C     C_R   0.755577 0.905761 0.080566 0.027878
C45   C     C_R   0.253823 0.944337 0.929015 0.035416
C46   C     C_R   0.255579 0.405759 0.080567 0.027970
C47   C     C_R   0.753819 0.444327 0.929011 0.034722
C48   C     C_R   0.476699 0.061849 0.455507 -0.142715
C49   C     C_R   0.467453 0.058778 0.527864 -0.118825
C50   C     C_R   0.966090 0.568400 0.452289 -0.144969
C51   C     C_R   0.788192 0.830086 0.861471 0.566878
C52   C     C_R   0.954817 0.565811 0.524790 -0.143735
C53   C     C_R   0.481387 0.162990 0.569248 0.049853
C54   C     C_R   0.498830 0.168980 0.422550 0.035896
C55   C     C_R   0.977394 0.663529 0.567788 0.033252
C56   C     C_R   0.996217 0.671152 0.421237 0.034871
C57   C     C_R   0.531058 0.156227 0.146978 0.545197
C58   C     C_R   0.468619 0.154977 0.853262 0.538613
C59   C     C_R   0.031060 0.656227 0.146976 0.544452
C60   C     C_R   0.968622 0.654977 0.853259 0.536921
C61   C     C_R   0.498263 0.273954 0.536090 -0.144960
C62   C     C_R   0.529227 0.378919 0.921169 -0.092585
C63   C     C_R   0.505072 0.277596 0.462246 -0.140367
C64   C     C_R   0.001232 0.771681 0.536018 -0.153083
C65   C     C_R   0.007130 0.777073 0.462179 -0.145181
C66   C     C_R   0.821550 0.907627 0.449674 -0.112370
C67   C     C_R   0.177380 0.921916 0.548646 -0.123774
C68   C     C_R   0.322833 0.426194 0.452939 -0.111834
C69   C     C_R   0.677762 0.434307 0.545898 -0.154236
C70   C     C_R   0.830835 0.884987 0.521335 -0.172175
C71   C     C_R   0.170027 0.906087 0.476228 -0.174865
C72   C     C_R   0.332108 0.399694 0.523912 -0.171847
C73   C     C_R   0.510097 0.396857 0.067968 -0.088042
C74   C     C_R   0.669641 0.410687 0.474426 -0.181101
C75   C     C_R   0.772782 0.862922 0.565443 0.037846
C76   C     C_R   0.222366 0.846985 0.436797 0.032579
C77   C     C_R   0.277981 0.344799 0.563107 0.034226
C78   C     C_R   0.721016 0.345670 0.436709 0.033184
C79   C     C_R   0.704064 0.861927 0.537010 0.258439
C80   C     C_R   0.282446 0.800682 0.472454 0.246024
C81   C     C_R   0.215435 0.304523 0.528425 0.264053
C82   C     C_R   0.779606 0.296500 0.473770 0.248703
C83   C     C_R   0.695066 0.887085 0.465165 -0.116161
C84   C     C_R   0.029226 0.878925 0.921166 -0.093118
C85   C     C_R   0.293319 0.832593 0.544227 -0.122614
C86   C     C_R   0.204575 0.343014 0.457432 -0.131523
C87   C     C_R   0.789565 0.328521 0.545564 -0.116309
C88   C     C_R   0.753470 0.912408 0.421860 0.000178
C89   C     C_R   0.242008 0.900447 0.580932 -0.006314
C90   C     C_R   0.257387 0.407005 0.420900 -0.004836
C91   C     C_R   0.740650 0.404048 0.580198 -0.007242
C92   C     C_R   0.742108 0.966680 0.148298 0.547135
C93   C     C_R   0.259525 0.973576 0.854136 0.538405
C94   C     C_R   0.242108 0.466678 0.148299 0.547718
C95   C     C_R   0.010097 0.896855 0.067965 -0.087965
C96   C     C_R   0.759523 0.473570 0.854133 0.544368
C97   C     C_R   0.710859 0.330260 0.359742 0.582162
C98   C     C_R   0.288983 0.329956 0.640075 0.581724
C99   C     C_R   0.211260 0.831135 0.359921 0.582065
C100  C     C_R   0.786776 0.836252 0.639705 0.575972
C101  C     C_R   0.530882 0.157914 0.352699 0.541544
C102  C     C_R   0.464555 0.156633 0.644415 0.553280
C103  C     C_R   0.030297 0.658132 0.352321 0.540670
C104  C     C_R   0.963060 0.656496 0.643602 0.544617
C105  C     C_R   0.741930 0.968828 0.353358 0.558055
C106  C     C_R   0.034601 0.992340 0.954878 -0.129454
C107  C     C_R   0.257448 0.966424 0.647129 0.552719
C108  C     C_R   0.242210 0.468834 0.353766 0.558342
C109  C     C_R   0.757275 0.467289 0.646873 0.544996
C110  C     C_R   0.494903 0.160637 0.926316 0.003607
C111  C     C_R   0.501780 0.168373 0.075255 0.001076
C112  C     C_R   0.994913 0.660637 0.926311 0.002812
C113  C     C_R   0.001789 0.668370 0.075249 0.001028
C114  C     C_R   0.511285 0.272778 0.960241 0.011934
C115  C     C_R   0.507848 0.279447 0.035557 0.028709
C116  C     C_R   0.011289 0.772779 0.960237 0.011920
Cr1   Cr    Cr6+3 0.772000 0.169640 0.250110 1.011815
Cr2   Cr    Cr6+3 0.383330 0.010620 0.749160 1.004983
Cr3   Cr    Cr6+3 0.116670 0.510620 0.250840 0.996967
Cr4   Cr    Cr6+3 0.883330 0.510620 0.749160 0.994298
Cr5   Cr    Cr6+3 0.228000 0.169640 0.749890 1.034239
Cr6   Cr    Cr6+3 0.272000 0.669640 0.250110 1.007960
Cr7   Cr    Cr6+3 0.728000 0.669640 0.749890 1.009718
Cr8   Cr    Cr6+3 0.614960 0.323350 0.249260 0.992895
Cr9   Cr    Cr6+3 0.385040 0.323350 0.750740 0.996771
Cr10  Cr    Cr6+3 0.114960 0.823350 0.249260 0.992011
Cr11  Cr    Cr6+3 0.885040 0.823350 0.750740 1.000995
Cr12  Cr    Cr6+3 0.616670 0.010620 0.250840 0.992228
H1    H     H_    0.480847 0.973379 0.068747 0.133738
H2    H     H_    0.123987 0.943082 0.450924 0.121250
H3    H     H_    0.381319 0.425479 0.548775 0.136794
H4    H     H_    0.623904 0.447810 0.448216 0.128947
H5    H     H_    0.641897 0.895872 0.444973 0.141545
H6    H     H_    0.341615 0.806334 0.570558 0.119241
H7    H     H_    0.155507 0.328299 0.430111 0.115001
H8    H     H_    0.835873 0.296895 0.573436 0.121132
H9    H     H_    0.539368 0.375250 0.864484 0.136762
H10   H     H_    0.498196 0.410600 0.123693 0.129573
H11   H     H_    0.039366 0.875258 0.864481 0.135538
H12   H     H_    0.471429 0.967016 0.943287 0.144394
H13   H     H_    0.998196 0.910595 0.123690 0.129773
H14   H     H_    0.046483 0.073501 0.924096 0.108232
H15   H     H_    0.024993 0.090587 0.053553 0.100004
H16   H     H_    0.546494 0.573493 0.924097 0.108873
H17   H     H_    0.525002 0.590587 0.053554 0.099823
H18   H     H_    0.646250 0.856806 0.061461 0.128586
H19   H     H_    0.334752 0.804638 0.929298 0.127264
H20   H     H_    0.146253 0.356796 0.061463 0.128512
H21   H     H_    0.834738 0.304611 0.929290 0.127403
H22   H     H_    0.664367 0.807344 0.936394 0.125063
H23   H     H_    0.980872 0.473370 0.068737 0.133800
H24   H     H_    0.328899 0.774249 0.058293 0.133918
H25   H     H_    0.164369 0.307336 0.936396 0.124042
H26   H     H_    0.828884 0.274217 0.058285 0.133985
H27   H     H_    0.885129 0.896385 0.956564 0.147167
H28   H     H_    0.175218 0.065736 0.074842 0.131147
H29   H     H_    0.385130 0.396394 0.956563 0.147282
H30   H     H_    0.675223 0.565737 0.074840 0.131035
H31   H     H_    0.867344 0.946079 0.081529 0.127899
H32   H     H_    0.177143 0.088587 0.948211 0.129649
H33   H     H_    0.367344 0.446087 0.081528 0.127857
H34   H     H_    0.971460 0.467009 0.943278 0.144203
H35   H     H_    0.677149 0.588593 0.948209 0.129644
H36   H     H_    0.471104 0.978463 0.425571 0.109131
H37   H     H_    0.448755 0.974348 0.551232 0.120185
H38   H     H_    0.954972 0.488398 0.420693 0.105697
H39   H     H_    0.929116 0.486399 0.547189 0.121345
H40   H     H_    0.505673 0.356790 0.567007 0.112260
H41   H     H_    0.518350 0.363059 0.436665 0.108210
H42   H     H_    0.013408 0.851904 0.567821 0.106288
H43   H     H_    0.023026 0.861425 0.437222 0.109184
H44   H     H_    0.625235 0.685447 0.621425 0.192860
H45   H     H_    0.867154 0.928062 0.416959 0.132993
H46   H     H_    0.629298 0.687035 0.525105 0.105124
H47   H     H_    0.515258 0.809053 0.618301 0.193467
H48   H     H_    0.520870 0.807642 0.522315 0.150620
H49   H     H_    0.512993 0.577299 0.523115 0.129577
H50   H     H_    0.437568 0.647078 0.565457 0.166679
H51   H     H_    0.506009 0.580841 0.619268 0.147120
H52   H     H_    0.418385 0.807082 0.468116 0.101085
H53   H     H_    0.378643 0.859383 0.385937 0.146504
H54   H     H_    0.452876 0.612552 0.411733 0.142918
H55   H     H_    0.407383 0.653057 0.331040 0.194510
H56   H     H_    0.134373 0.959211 0.579009 0.135518
H57   H     H_    0.489276 0.828218 0.312804 0.168124
H58   H     H_    0.536001 0.685246 0.319637 0.138530
H59   H     H_    0.535268 0.789250 0.394230 0.147652
H60   H     H_    0.081221 0.122709 0.559757 0.143580
H61   H     H_    0.100010 0.190519 0.480293 0.091667
H62   H     H_    0.082258 0.383569 0.592885 0.206223
H63   H     H_    0.029620 0.355724 0.515512 0.118499
H64   H     H_    0.961979 0.192591 0.581341 0.131749
H65   H     H_    0.957699 0.336269 0.627775 0.176611
H66   H     H_    0.016123 0.219577 0.659129 0.159179
H67   H     H_    0.365509 0.469849 0.424573 0.154277
H68   H     H_    0.913964 0.306323 0.472802 0.098932
H69   H     H_    0.879416 0.341749 0.385090 0.151044
H70   H     H_    0.957621 0.110744 0.434541 0.136593
H71   H     H_    0.911133 0.118033 0.351176 0.198402
H72   H     H_    0.984498 0.288100 0.309270 0.155079
H73   H     H_    0.040040 0.163982 0.338299 0.140708
H74   H     H_    0.029000 0.297767 0.393859 0.147616
H75   H     H_    0.636528 0.484519 0.572850 0.125390
H76   H     H_    0.883252 0.888568 0.543141 0.134416
O1    O     O_R   0.787540 0.042690 0.170470 -0.532581
O2    O     O_R   0.454130 0.051100 0.669160 -0.518363
O3    O     O_R   0.045870 0.551100 0.330840 -0.525793
O4    O     O_R   0.954130 0.551100 0.669160 -0.531303
O5    O     O_R   0.681340 0.959300 0.325510 -0.515229
O6    O     O_R   0.318660 0.959300 0.674490 -0.514212
O7    O     O_R   0.181340 0.459300 0.325510 -0.510390
O8    O     O_R   0.818660 0.459300 0.674490 -0.510755
O9    O     O_3   0.667880 0.167870 0.250070 -0.257148
O10   O     O_3   0.332120 0.167870 0.749930 -0.293054
O11   O     O_3   0.167880 0.667870 0.250070 -0.256963
O12   O     O_R   0.212460 0.042690 0.829530 -0.542303
O13   O     O_3   0.832120 0.667870 0.749930 -0.287071
O14   O     O_R   0.765660 0.292160 0.175050 -0.506016
O15   O     O_R   0.234340 0.292160 0.824950 -0.504255
O16   O     O_R   0.265660 0.792160 0.175050 -0.506827
O17   O     O_R   0.734340 0.792160 0.824950 -0.498275
O18   O     O_R   0.670190 0.408980 0.168550 -0.517331
O19   O     O_R   0.329810 0.408980 0.831450 -0.506563
O20   O     O_R   0.170190 0.908980 0.168550 -0.516977
O21   O     O_R   0.829810 0.908980 0.831450 -0.504680
O22   O     O_R   0.556580 0.251450 0.175160 -0.508675
O23   O     O_R   0.287540 0.542690 0.170470 -0.533348
O24   O     O_R   0.443420 0.251450 0.824840 -0.526814
O25   O     O_R   0.056580 0.751450 0.175160 -0.509019
O26   O     O_R   0.943420 0.751450 0.824840 -0.526407
O27   O     O_R   0.545920 0.049510 0.170320 -0.523137
O28   O     O_R   0.454080 0.049510 0.829680 -0.515228
O29   O     O_R   0.045920 0.549510 0.170320 -0.522609
O30   O     O_R   0.954080 0.549510 0.829680 -0.516650
O31   O     O_R   0.681390 0.957840 0.176710 -0.501867
O32   O     O_R   0.318610 0.957840 0.823290 -0.502969
O33   O     O_R   0.181390 0.457840 0.176710 -0.501894
O34   O     O_R   0.712460 0.542690 0.829530 -0.538532
O35   O     O_R   0.818610 0.457840 0.823290 -0.500077
O36   O     O_R   0.787500 0.044280 0.330990 -0.501495
O37   O     O_R   0.212500 0.044280 0.669010 -0.487127
O38   O     O_R   0.287500 0.544280 0.330990 -0.506302
O39   O     O_R   0.712500 0.544280 0.669010 -0.551308
O40   O     O_R   0.765610 0.293630 0.323860 -0.479097
O41   O     O_R   0.234390 0.293630 0.676140 -0.435244
O42   O     O_R   0.265610 0.793630 0.323860 -0.475700
O43   O     O_R   0.734390 0.793630 0.676140 -0.453993
O44   O     O_R   0.670140 0.410570 0.329080 -0.536973
O45   O     O_R   0.556540 0.252920 0.323970 -0.525949
O46   O     O_R   0.329860 0.410570 0.670920 -0.523530
O47   O     O_R   0.170140 0.910570 0.329080 -0.536499
O48   O     O_R   0.829860 0.910570 0.670920 -0.509784
O49   O     O_3   0.645201 0.855770 0.580490 -0.541547
O50   O     O_3   0.327061 0.718025 0.439135 -0.546748
O51   O     O_3   0.170714 0.224788 0.565605 -0.535684
O52   O     O_3   0.823766 0.211154 0.442051 -0.538156
O53   O     O_R   0.443460 0.252920 0.676030 -0.528194
O54   O     O_R   0.056540 0.752920 0.323970 -0.527538
O55   O     O_R   0.943460 0.752920 0.676030 -0.523012
O56   O     O_R   0.545870 0.051100 0.330840 -0.534020

loop_
_geom_bond_atom_site_label_1
_geom_bond_atom_site_label_2
_ccdc_geom_bond_type
C101  O45   A    
Cr4   O8    S    
Cr7   O43   S    
C49   C53   A    
Cr3   O11   S    
C27   H24   S    
C23   C45   A    
C74   H4    S    
C57   C111  S    
C54   C101  S    
C17   H65   S    
C19   C20   S    
C11   H53   S    
C59   O25   A    
C45   C93   S    
C97   O44   A    
Cr7   O39   S    
C114  C115  A    
C17   H66   S    
C42   H33   S    
Cr10  O11   S    
Cr6   O38   S    
C107  O6    A    
C15   O51   S    
Cr6   O11   S    
C76   C99   S    
C48   C54   A    
Cr7   O17   S    
C36   H28   S    
C72   C77   A    
C80   O50   S    
C40   O20   A    
Cr8   O18   S    
C60   O26   A    
C10   H51   S    
C32   C36   A    
C2    C95   A    
Cr2   O2    S    
C35   H27   S    
C20   H73   S    
C62   C114  A    
Cr1   O1    S    
C3    C116  A    
C52   H39   S    
C66   C88   A    
C71   C76   A    
C14   H58   S    
Cr10  O20   S    
C63   H41   S    
C12   H55   S    
C5    C110  A    
C109  O39   A    
C56   C65   A    
C101  O56   A    
Cr9   O53   S    
C8    O49   S    
C67   C89   A    
C11   O50   S    
C105  O5    A    
C7    C112  A    
C9    H48   S    
C25   H21   S    
Cr11  O48   S    
C42   C46   A    
C13   H16   S    
C37   H29   S    
C37   C42   A    
C61   C63   A    
C20   H72   S    
C22   C26   A    
C92   O1    A    
Cr4   O30   S    
C53   C61   A    
Cr3   O29   S    
C22   C44   A    
C13   C62   A    
C22   H18   S    
C29   C33   S    
Cr2   O28   S    
C16   C17   S    
C46   C94   S    
C51   O21   A    
C68   C90   A    
C47   C96   S    
C66   H45   S    
C1    O14   A    
Cr10  O54   S    
C23   C27   A    
C109  O8    A    
C9    C10   S    
C25   C47   A    
C67   C71   A    
C81   C86   A    
C44   C92   S    
C52   C55   A    
C68   C72   A    
Cr12  O9    S    
Cr6   O42   S    
Cr7   O34   S    
Cr12  O31   S    
Cr5   O41   S    
C83   C88   A    
C15   H61   S    
C8    H44   S    
C26   C31   A    
C84   C116  A    
C58   C110  S    
C40   O16   A    
C93   O12   A    
C2    H15   S    
Cr5   O15   S    
C82   O52   S    
C36   C41   A    
C59   O29   A    
C18   H69   S    
C1    C34   S    
C106  H14   S    
C6    C7    A    
Cr8   O9    S    
Cr9   O19   S    
C93   O32   A    
C70   H76   S    
C7    H34   S    
C12   H54   S    
C87   C91   A    
C30   C34   A    
C18   H68   S    
C10   H50   S    
Cr5   O12   S    
C24   C28   A    
C26   H22   S    
Cr10  O25   S    
C60   O30   A    
C50   C52   A    
C38   H30   S    
C98   O41   A    
C99   O47   A    
C86   C90   A    
C31   C51   S    
C98   O46   A    
C14   H57   S    
C85   C89   A    
C8    C9    S    
C18   O52   S    
C23   H19   S    
C55   C104  S    
C2    C106  A    
Cr11  O26   S    
C33   C37   A    
Cr1   O14   S    
C1    O18   A    
C32   C40   S    
C104  O55   A    
Cr4   O4    S    
Cr8   O44   S    
C35   C39   A    
C6    C113  A    
C49   H37   S    
C80   C85   A    
C60   C112  S    
C16   H63   S    
Cr12  O5    S    
C41   H32   S    
Cr9   O10   S    
C78   C82   A    
C94   O33   A    
C84   C106  A    
C77   C98   S    
C29   O15   A    
C53   C102  S    
C59   C113  S    
C55   C64   A    
C89   C107  S    
C78   C97   S    
C79   O49   S    
C13   C21   A    
C69   C74   A    
Cr2   O10   S    
C81   O51   S    
C99   O42   A    
Cr1   O9    S    
C102  O2    A    
Cr8   O45   S    
C39   C44   A    
C16   H62   S    
C94   O23   A    
C84   H11   S    
C6    H23   S    
Cr3   O33   S    
C48   C49   A    
C4    C111  A    
C65   H43   S    
C28   C33   A    
C69   H75   S    
Cr12  O27   S    
C5    H12   S    
C3    C113  A    
C28   H25   S    
C96   O35   A    
Cr11  O55   S    
Cr3   O3    S    
C57   O22   A    
Cr9   O24   S    
Cr12  O56   S    
C112  C116  A    
C108  O7    A    
C58   O24   A    
Cr11  O13   S    
C72   H3    S    
C17   H64   S    
Cr5   O37   S    
C19   H71   S    
C107  O37   A    
C25   C30   A    
C29   O19   A    
C110  C114  A    
Cr9   O46   S    
C19   H70   S    
C92   O31   A    
C39   H31   S    
C27   C32   A    
C34   C38   A    
C10   H49   S    
C96   O34   A    
C87   H8    S    
C21   C73   A    
C76   C80   A    
C56   C103  S    
C103  O3    A    
C4    C5    A    
C100  O48   A    
C15   C16   S    
Cr8   O22   S    
C11   C12   S    
C95   H13   S    
C4    H1    S    
C48   H36   S    
C15   H60   S    
Cr6   O16   S    
C73   H10   S    
Cr3   O7    S    
C73   C115  A    
C102  O53   A    
Cr2   O6    S    
C61   H40   S    
C24   C46   A    
Cr5   O10   S    
C91   C109  S    
C12   C14   S    
C20   H74   S    
C38   C43   A    
C100  O43   A    
C64   C65   A    
C97   O40   A    
C79   C83   A    
C14   H59   S    
C66   C70   A    
C43   C47   A    
C51   O17   A    
C57   O27   A    
Cr6   O23   S    
C31   C35   A    
C74   C78   A    
C75   C100  S    
C103  O54   A    
C105  O36   A    
C88   C105  S    
C9    H47   S    
C68   H67   S    
C8    H46   S    
C104  O4    A    
C62   H9    S    
C64   H42   S    
C50   H38   S    
Cr1   O36   S    
C50   C56   A    
C83   H5    S    
C58   O28   A    
C67   H56   S    
Cr4   O13   S    
Cr4   O35   S    
C90   C108  S    
Cr1   O40   S    
Cr2   O32   S    
C86   H7    S    
C30   H26   S    
C3    C95   A    
C77   C81   A    
C54   C63   A    
C108  O38   A    
C70   C75   A    
Cr11  O21   S    
C18   C19   S    
C41   C45   A    
Cr10  O47   S    
Cr7   O13   S    
C111  C115  A    
C11   H52   S    
C85   H6    S    
C69   C91   A    
C75   C79   A    
C24   H20   S    
C82   C87   A    
C21   H17   S    
C71   H2    S    
C43   H35   S    
