data_mof_unit_28716.cif
_audit_creation_date              2012-12-11T16:46:34-0500
_audit_creation_method            fapswitch 2.2
_symmetry_space_group_name_H-M    P1
_symmetry_Int_Tables_number       1
_space_group_crystal_system       triclinic
_cell_length_a                    26.125898
_cell_length_b                    7.198852
_cell_length_c                    23.899347
_cell_angle_alpha                 90.079694
_cell_angle_beta                  101.431853
_cell_angle_gamma                 89.911701
_cell_volume                      4405.72315914

loop_
_atom_site_label
_atom_site_type_symbol
_atom_type_description
_atom_site_fract_x
_atom_site_fract_y
_atom_site_fract_z
_atom_type_partial_charge
O1    O     O_R   0.547620 0.505720 0.453310 -0.533665
O2    O     O_R   0.452380 0.005720 0.546690 -0.541109
O3    O     O_R   0.442260 0.172470 0.436770 -0.535610
O4    O     O_R   0.557740 0.672470 0.563230 -0.532996
C1    C     C_R   0.076110 0.467997 0.078663 0.787351
C2    C     C_R   0.923858 0.968045 0.921370 0.784034
C3    C     C_R   0.424079 0.344558 0.421650 0.692100
C4    C     C_R   0.575924 0.844522 0.578336 0.711549
O5    O     O_R   0.546600 0.175780 0.446490 -0.537262
O6    O     O_R   0.453400 0.675780 0.553510 -0.536167
O7    O     O_R   0.557460 0.008970 0.556480 -0.526782
O8    O     O_R   0.442540 0.508970 0.443520 -0.527978
C5    C     C_R   0.562521 0.344417 0.434862 0.706866
C6    C     C_R   0.437918 0.844962 0.565738 0.712586
O9    O     O_R   0.047630 0.803580 0.953300 -0.505460
O10   O     O_R   0.952370 0.303580 0.046700 -0.504234
O11   O     O_3   0.503440 0.340340 0.536080 -0.370216
O12   O     O_3   0.496560 0.840340 0.463920 -0.370850
V1    V     V_3+5 0.499360 0.064140 0.493310 1.476404
V2    V     V_3+5 0.500640 0.564140 0.506690 1.484329
O13   O     O_R   0.057730 0.636870 0.063240 -0.518038
O14   O     O_R   0.942270 0.136870 0.936760 -0.520554
O15   O     O_3   0.996540 0.468950 0.963950 -0.370107
O16   O     O_3   0.003460 0.968950 0.036050 -0.368507
C7    C     C_R   0.145555 0.821211 0.910697 0.393550
C8    C     C_R   0.856047 0.320616 0.093731 0.397118
C9    C     C_R   0.180606 0.810023 0.873311 -0.192918
C10   C     C_R   0.822513 0.310337 0.133003 -0.203766
H1    H     H_    0.209951 0.701864 0.879933 0.172759
H2    H     H_    0.792331 0.205153 0.127840 0.171187
C11   C     C_R   0.178490 0.935585 0.827963 0.060678
C12   C     C_R   0.826137 0.437647 0.177969 0.044067
C13   C     C_R   0.139024 0.071565 0.819576 -0.094505
C14   C     C_R   0.864221 0.577019 0.183817 -0.080965
H3    H     H_    0.136589 0.173200 0.785825 0.134180
H4    H     H_    0.867492 0.677502 0.218118 0.163738
C15   C     C_R   0.102317 0.079506 0.855013 -0.223192
C16   C     C_R   0.899451 0.584374 0.146566 -0.226976
H5    H     H_    0.071897 0.184036 0.846597 0.148745
H6    H     H_    0.929503 0.690107 0.153465 0.150001
C17   C     C_R   0.104424 0.954094 0.900499 -0.148973
C18   C     C_R   0.896713 0.455556 0.101590 -0.145465
C19   C     C_R   0.204547 0.968609 0.732068 -0.114326
C20   C     C_R   0.754203 0.566756 0.222427 -0.064621
H7    H     H_    0.165220 0.011145 0.712991 0.137237
H8    H     H_    0.753532 0.690904 0.196734 0.142611
C21   C     C_R   0.241497 0.954723 0.697178 -0.149710
C22   C     C_R   0.718339 0.548688 0.258586 -0.070912
H9    H     H_    0.230116 0.990550 0.652414 0.147338
H10   H     H_    0.690452 0.659007 0.259947 0.183690
C23   C     C_R   0.292670 0.895190 0.719405 -0.013130
C24   C     C_R   0.718235 0.390023 0.292762 -0.022406
C25   C     C_R   0.306559 0.846886 0.777841 0.509223
C26   C     C_R   0.754213 0.245362 0.289093 0.454516
C27   C     C_R   0.269431 0.865766 0.812640 -0.168841
C28   C     C_R   0.789213 0.263199 0.251534 -0.192914
H11   H     H_    0.281187 0.833917 0.857603 0.180693
H12   H     H_    0.816718 0.152830 0.248402 0.168928
C29   C     C_R   0.217985 0.924740 0.790418 0.025135
C30   C     C_R   0.789733 0.423685 0.218349 0.019519
C31   C     C_R   0.330319 0.728787 0.645802 -0.065690
C32   C     C_R   0.630990 0.295445 0.309670 -0.154965
C33   C     C_R   0.365752 0.713342 0.609161 -0.101103
C34   C     C_R   0.593180 0.280163 0.343625 -0.151682
H13   H     H_    0.365108 0.589604 0.583200 0.135335
H14   H     H_    0.556271 0.213541 0.326374 0.143089
C35   C     C_R   0.400965 0.857562 0.605402 -0.110209
C36   C     C_R   0.602475 0.354598 0.398867 -0.085287
C37   C     C_R   0.400053 0.017384 0.639098 -0.232582
C38   C     C_R   0.650525 0.440793 0.420073 -0.263775
H15   H     H_    0.427160 0.129138 0.636591 0.164979
H16   H     H_    0.657983 0.496965 0.463022 0.128500
C39   C     C_R   0.365196 0.033242 0.676647 0.459428
C40   C     C_R   0.689687 0.450834 0.387382 0.453099
C41   C     C_R   0.330166 0.886334 0.680417 0.001968
C42   C     C_R   0.679702 0.378481 0.330971 -0.013054
C43   C     C_3   0.759053 0.754325 0.802126 -0.292520
C44   C     C_3   0.241164 0.254516 0.197694 -0.263147
C45   C     C_3   0.758073 0.098452 0.788782 -0.494851
C46   C     C_3   0.241768 0.598360 0.211301 -0.446015
C47   C     C_3   0.707329 0.081852 0.741635 0.312816
C48   C     C_3   0.292069 0.582789 0.259029 0.362791
H17   H     H_    0.745231 0.776992 0.842761 0.200909
H18   H     H_    0.255047 0.277479 0.157131 0.208088
H19   H     H_    0.780432 0.222937 0.780129 0.158387
H20   H     H_    0.219118 0.723030 0.219434 0.156770
H21   H     H_    0.748600 0.120799 0.831663 0.225241
H22   H     H_    0.251853 0.619875 0.168664 0.252814
H23   H     H_    0.708042 0.195037 0.710099 0.074310
H24   H     H_    0.290354 0.694765 0.290797 0.068322
C49   C     C_1   0.621444 0.855674 0.624403 -0.093722
C50   C     C_1   0.378550 0.355780 0.375588 -0.103139
C51   C     C_3   0.792819 0.922244 0.790651 0.053620
C52   C     C_3   0.207182 0.422118 0.209282 0.006575
C53   C     C_3   0.710976 0.729046 0.752634 -0.270010
C54   C     C_3   0.289197 0.229328 0.247234 -0.250814
C55   C     C_3   0.706727 0.891698 0.709317 0.047142
C56   C     C_3   0.293179 0.391721 0.290782 0.024173
C57   C     C_3   0.756611 0.885596 0.683117 -0.441578
C58   C     C_3   0.243257 0.384026 0.316862 -0.461284
C59   C     C_3   0.807292 0.900664 0.730361 0.379676
C60   C     C_3   0.192636 0.400278 0.269538 0.388022
C61   C     C_1   0.659628 0.870384 0.662701 0.049180
C62   C     C_1   0.340346 0.370574 0.337308 0.051132
C63   C     C_1   0.839930 0.942658 0.837292 0.063378
C64   C     C_1   0.160100 0.442509 0.162625 0.072097
C65   C     C_1   0.878209 0.956956 0.875483 -0.049769
C66   C     C_1   0.121797 0.456838 0.124479 -0.040217
H25   H     H_    0.828512 0.028413 0.721972 0.075483
H26   H     H_    0.171495 0.528336 0.278097 0.072286
H27   H     H_    0.755728 0.002218 0.652394 0.148039
H28   H     H_    0.243940 0.499409 0.348063 0.137411
V3    V     V_3+5 0.000640 0.745210 0.006690 1.639833
V4    V     V_3+5 0.999360 0.245210 0.993310 1.637050
O17   O     O_R   0.057440 0.306950 0.056520 -0.533588
O18   O     O_R   0.942560 0.806950 0.943480 -0.533756
O19   O     O_R   0.953390 0.633680 0.053510 -0.544420
O20   O     O_R   0.046610 0.133680 0.946490 -0.544777
C67   C     C_R   0.936413 0.465021 0.064310 0.741659
C68   C     C_R   0.063756 0.964739 0.936159 0.742178
S1    S     S_3+6 0.157402 0.674112 0.971423 0.026147
O21   O     O_2   0.212388 0.600689 0.982103 -0.292405
O22   O     O_2   0.149610 0.780669 0.023207 -0.324816
O23   O     O_3   0.115800 0.493887 0.960527 -0.497905
H29   H     H_    0.122904 0.431436 0.925909 0.321036
S2    S     S_3+6 0.842929 0.170465 0.033692 0.015508
O24   O     O_2   0.788372 0.094495 0.025521 -0.307254
O25   O     O_2   0.848455 0.274938 0.980818 -0.327717
O26   O     O_3   0.885395 0.992400 0.043582 -0.494553
H30   H     H_    0.880518 0.933373 0.079547 0.318055
S3    S     S_3+6 0.366993 0.236338 0.718815 0.063780
O27   O     O_2   0.312908 0.315200 0.712764 -0.326891
O28   O     O_2   0.387095 0.188947 0.780451 -0.237736
O29   O     O_3   0.406162 0.397248 0.698447 -0.492298
H31   H     H_    0.441920 0.363822 0.718407 0.367111
S4    S     S_3+6 0.750365 0.548186 0.420944 0.144506
O30   O     O_2   0.787805 0.567114 0.381064 -0.225985
O31   O     O_2   0.741110 0.736552 0.444273 -0.297990
O32   O     O_3   0.777640 0.410528 0.475599 -0.418286
H32   H     H_    0.755867 0.427198 0.504779 0.337725
H33   H     H_    0.674788 0.718283 0.770141 0.239337
H34   H     H_    0.325448 0.217916 0.229883 0.238410
S5    S     S_3+6 0.650126 0.125486 0.771714 0.056163
O33   O     O_2   0.601064 0.094907 0.727887 -0.292844
O34   O     O_2   0.649414 0.000903 0.821985 -0.292450
O35   O     O_3   0.650960 0.348087 0.793330 -0.470523
H35   H     H_    0.679910 0.355911 0.826970 0.346487
S6    S     S_3+6 0.349549 0.631689 0.230255 0.022589
O36   O     O_2   0.354094 0.497462 0.183263 -0.294488
O37   O     O_2   0.344880 0.825336 0.206329 -0.313699
O38   O     O_3   0.403614 0.619437 0.281714 -0.511303
H36   H     H_    0.432741 0.650321 0.262418 0.374655
S7    S     S_3+6 0.850678 0.708916 0.724357 0.011678
O39   O     O_2   0.869049 0.727683 0.668886 -0.272834
O40   O     O_2   0.897362 0.711193 0.772558 -0.338459
O41   O     O_3   0.819180 0.505349 0.724333 -0.537730
H37   H     H_    0.845433 0.409308 0.720415 0.365943
S8    S     S_3+6 0.149083 0.209269 0.275168 0.002719
O42   O     O_2   0.130905 0.227361 0.330787 -0.292338
O43   O     O_2   0.102284 0.213309 0.227118 -0.334594
O44   O     O_3   0.180341 0.005134 0.274525 -0.538577
H38   H     H_    0.153989 0.909509 0.278190 0.363504
H39   H     H_    0.756487 0.755730 0.657769 0.228541
H40   H     H_    0.243475 0.253172 0.341651 0.224708
H41   H     H_    0.782669 0.624892 0.808012 0.203266
H42   H     H_    0.217688 0.124983 0.191635 0.211031
H43   H     H_    0.714783 0.595231 0.730421 0.180684
H44   H     H_    0.285408 0.095433 0.269288 0.183228
S9    S     S_3+6 0.368397 0.755070 0.810141 0.149776
O45   O     O_2   0.390132 0.868944 0.862164 -0.252299
O46   O     O_2   0.360575 0.559498 0.828623 -0.247051
O47   O     O_3   0.411565 0.753758 0.766510 -0.468120
H45   H     H_    0.443286 0.694091 0.788869 0.401263
S10   S     S_3+6 0.757475 0.043914 0.331924 0.090015
O48   O     O_2   0.793611 0.903035 0.314061 -0.284876
O49   O     O_2   0.778050 0.096259 0.393140 -0.233293
O50   O     O_3   0.697731 0.949475 0.325685 -0.523428
H46   H     H_    0.687633 0.969022 0.363069 0.368947
H47   H     H_    0.303036 0.616904 0.647443 0.179478
H48   H     H_    0.622547 0.239735 0.266697 0.165652

loop_
_geom_bond_atom_site_label_1
_geom_bond_atom_site_label_2
_ccdc_geom_bond_type
S5    O35   S    
C39   S3    S    
S2    O24   D    
C27   C29   A    
C9    H1    S    
C39   C41   A    
S9    O45   D    
S6    O38   S    
O4    C4    A    
S3    O29   S    
C60   S8    S    
O20   C68   A    
C33   H13   S    
V4    O17   S    
C21   H9    S    
C7    C17   A    
C31   C41   A    
C63   C65   T    
O7    V1    S    
C47   S5    S    
C40   C42   A    
C34   C36   A    
O41   H37   S    
S6    O37   D    
C45   C51   S    
O3    C3    A    
O19   C67   A    
C32   H48   S    
C18   C67   S    
C43   H17   S    
C43   H41   S    
S5    O33   D    
C2    O14   A    
O11   V2    S    
O9    C68   A    
C31   C33   A    
O12   V1    S    
C8    S2    S    
C11   C29   S    
C37   H15   S    
O5    C5    A    
S10   O48   D    
S1    O23   S    
C32   C34   A    
S8    O44   S    
C51   C63   S    
O5    V1    S    
C20   H8    S    
C54   C56   S    
C38   C40   A    
O10   V4    S    
O38   H36   S    
C11   C13   A    
O3    V1    S    
O6    V2    S    
S7    O40   D    
C19   C21   A    
C49   C61   T    
C19   C29   A    
V3    O18   S    
C47   H23   S    
C22   H10   S    
O2    V1    S    
C2    C65   S    
O16   V3    S    
C1    O17   A    
S8    O43   D    
S9    O46   D    
C32   C42   A    
S4    O32   S    
C45   H21   S    
C55   C57   S    
C24   C26   A    
O44   H38   S    
C26   C28   A    
C25   C27   A    
C3    O8    A    
C33   C35   A    
C44   H42   S    
C58   H28   S    
C48   C56   S    
C9    C11   A    
C10   C12   A    
S6    O36   D    
O13   V3    S    
O6    C6    A    
O10   C67   A    
C44   C54   S    
C45   C47   S    
C21   C23   A    
S2    O26   S    
S3    O28   D    
C43   C53   S    
C13   C15   A    
C28   C30   A    
C40   S4    S    
C23   C25   A    
C12   C14   A    
C59   S7    S    
C6    C35   S    
C57   H27   S    
O8    V2    S    
C54   H44   S    
C58   H40   S    
C4    C49   S    
V4    O20   S    
S7    O41   S    
C37   C39   A    
C19   H7    S    
S10   O50   S    
C2    O18   A    
S1    O21   D    
C55   C61   S    
C57   H39   S    
C46   C48   S    
C57   C59   S    
C58   C60   S    
C53   H33   S    
C56   C58   S    
C27   H11   S    
S8    O42   D    
S9    O47   S    
V3    O19   S    
C60   H26   S    
O1    C5    A    
C12   C30   S    
C51   C59   S    
S3    O27   D    
C45   H19   S    
O47   H45   S    
C8    C18   A    
S4    O31   D    
O35   H35   S    
S5    O34   D    
C52   C64   S    
O1    V2    S    
S2    O25   D    
O9    V3    S    
C14   C16   A    
C23   C41   S    
S4    O30   D    
C24   C42   S    
C53   H43   S    
C48   S6    S    
O32   H32   S    
C53   C55   S    
C31   H47   S    
O29   H31   S    
C44   C52   S    
C25   S9    S    
C7    C9    A    
C7    S1    S    
O14   V4    S    
C8    C10   A    
C48   H24   S    
C26   S10   S    
C10   H2    S    
O26   H30   S    
C15   H5    S    
O15   V4    S    
C16   H6    S    
C64   C66   T    
C20   C30   A    
C4    O7    A    
C56   C62   S    
C3    C50   S    
C43   C51   S    
C13   H3    S    
C28   H12   S    
C14   H4    S    
C17   C68   S    
C15   C17   A    
O2    C6    A    
S10   O49   D    
S1    O22   D    
C50   C62   T    
C54   H34   S    
O4    V2    S    
C16   C18   A    
C44   H18   S    
C46   H20   S    
C22   C24   A    
C1    O13   A    
C52   C60   S    
C46   H22   S    
O50   H46   S    
C36   C38   A    
C47   C55   S    
C46   C52   S    
C38   H16   S    
C35   C37   A    
S7    O39   D    
C59   H25   S    
C5    C36   S    
C20   C22   A    
C34   H14   S    
O23   H29   S    
C1    C66   S    
