data_mof_unit_18138.cif
_audit_creation_date              2013-03-05T15:50:46-0500
_audit_creation_method            fapswitch 2.2
_symmetry_space_group_name_H-M    P1
_symmetry_Int_Tables_number       1
_space_group_crystal_system       triclinic
_cell_length_a                    14.293533
_cell_length_b                    14.810719
_cell_length_c                    33.099465
_cell_angle_alpha                 97.556421
_cell_angle_beta                  90.711124
_cell_angle_gamma                 118.66954
_cell_volume                      6071.62120857

loop_
_atom_site_label
_atom_site_type_symbol
_atom_site_description
_atom_site_fract_x
_atom_site_fract_y
_atom_site_fract_z
_atom_type_partial_charge
O1    O     O_R   0.318160 0.824460 0.443680 -0.438631
O2    O     O_R   0.525040 0.857250 0.449830 -0.448656
C1    C     C_R   0.615687 0.912672 0.436310 0.616347
O3    O     O_R   0.684760 0.998800 0.456360 -0.434677
O4    O     O_R   0.647540 0.166310 0.470260 -0.440764
C2    C     C_R   0.593576 0.205311 0.456419 0.612040
O5    O     O_R   0.500960 0.181750 0.467450 -0.443833
O6    O     O_R   0.331100 0.981120 0.457080 -0.494094
C3    C     C_R   0.294148 0.891943 0.434347 0.559297
O7    O     O_R   0.315560 0.821140 0.532010 -0.494083
O8    O     O_R   0.522630 0.854180 0.531710 -0.468014
C4    C     C_R   0.614625 0.904867 0.551355 0.562887
O9    O     O_R   0.682160 0.995480 0.544690 -0.492087
O10   O     O_R   0.645130 0.163230 0.552140 -0.465746
C5    C     C_R   0.590572 0.200792 0.571105 0.576147
O11   O     O_R   0.498360 0.178430 0.555780 -0.442707
O12   O     O_R   0.328690 0.978040 0.538950 -0.490426
C6    C     C_R   0.289693 0.887251 0.548817 0.517920
Cr1   Cr    Cr6+3 0.424820 0.846020 0.489780 1.189165
Cr2   Cr    Cr6+3 0.657880 0.078580 0.505700 1.196300
Cr3   Cr    Cr6+3 0.417280 0.075360 0.504550 1.155735
O13   O     O_3   0.499990 0.999990 0.500010 -0.325871
C7    C     C_R   0.745575 0.455412 0.107578 0.039294
C8    C     C_R   0.652695 0.418075 0.129444 0.168026
C9    C     C_R   0.662270 0.414268 0.171315 -0.040606
C10   C     C_R   0.761471 0.443711 0.191541 0.019449
C11   C     C_R   0.851441 0.473298 0.169713 -0.042052
C12   C     C_R   0.844787 0.478059 0.127845 0.216061
C13   C     C_R   0.797363 0.367915 0.249138 0.195407
C14   C     C_R   0.789225 0.352647 0.290557 0.291126
C15   C     C_R   0.755262 0.410126 0.317630 0.016649
C16   C     C_R   0.736973 0.486909 0.304819 -0.093396
C17   C     C_R   0.745304 0.503638 0.264124 0.201897
C18   C     C_R   0.770187 0.439932 0.235652 -0.023522
C19   C     C_R   0.605863 0.310150 0.357149 0.242115
C20   C     C_R   0.565549 0.257669 0.390646 0.173565
C21   C     C_R   0.746540 0.342160 0.424798 0.200021
C22   C     C_R   0.787463 0.392660 0.390798 0.243602
C23   C     C_R   0.716588 0.374183 0.356636 0.013075
C24   C     C_R   0.635653 0.272059 0.424285 -0.070604
H1    H     H_    0.591794 0.387017 0.188230 0.189542
H2    H     H_    0.711676 0.530801 0.326425 0.189251
H3    H     H_    0.927526 0.494153 0.185597 0.172285
C25   C     C_R   0.232915 0.871666 0.394241 -0.061904
C26   C     C_R   0.202212 0.944156 0.384828 -0.092181
C27   C     C_R   0.164086 0.940411 0.344899 0.192707
C28   C     C_R   0.156181 0.861448 0.313811 -0.028512
C29   C     C_R   0.173222 0.780539 0.323784 0.167587
C30   C     C_R   0.212615 0.786027 0.363790 0.176179
C31   C     C_R   0.162166 0.787381 0.168498 0.184287
C32   C     C_R   0.151885 0.772663 0.125162 0.203409
C33   C     C_R   0.118462 0.919764 0.127354 0.183481
C34   C     C_R   0.129989 0.935307 0.170706 0.261020
C35   C     C_R   0.147050 0.866019 0.190767 0.038876
C36   C     C_1   0.146906 0.872240 0.234709 0.197110
C37   C     C_1   0.148337 0.870111 0.271013 0.156509
C38   C     C_R   0.115507 0.829785 0.104862 -0.015946
H4    H     H_    0.212265 0.006860 0.408431 0.211734
H5    H     H_    0.711597 0.027341 0.312119 0.173307
C39   C     C_R   0.630823 0.892124 0.392667 0.045466
C40   C     C_R   0.587848 0.789520 0.370822 0.167583
C41   C     C_R   0.587287 0.775365 0.327939 -0.054344
C42   C     C_R   0.631546 0.861261 0.307320 -0.027933
C43   C     C_R   0.677437 0.961685 0.328718 -0.078535
C44   C     C_R   0.676753 0.978645 0.371149 0.222909
C45   C     C_R   0.731957 0.929615 0.169952 0.190931
C46   C     C_R   0.758574 0.916957 0.129336 0.182836
C47   C     C_R   0.611655 0.739222 0.118504 -0.084458
C48   C     C_R   0.583048 0.750801 0.157873 0.229519
C49   C     C_R   0.647748 0.843999 0.184587 -0.017539
C50   C     C_1   0.637450 0.846487 0.227687 0.089513
C51   C     C_1   0.632191 0.849514 0.263889 0.083983
C52   C     C_R   0.703058 0.818493 0.104484 -0.085026
H6    H     H_    0.563608 0.664337 0.099447 0.204213
H7    H     H_    0.553225 0.697609 0.310651 0.215350
H8    H     H_    0.842904 0.383721 0.906039 0.156226
C53   C     C_R   0.623482 0.250687 0.615029 -0.052811
C54   C     C_R   0.549079 0.264593 0.639559 0.148507
C55   C     C_R   0.560237 0.270357 0.681942 -0.109855
C56   C     C_R   0.646773 0.268904 0.701016 -0.050429
C57   C     C_R   0.729759 0.270161 0.677791 0.250979
C58   C     C_R   0.718725 0.262804 0.634790 0.196696
C59   C     C_R   0.750840 0.316349 0.847627 0.231867
C60   C     C_R   0.765708 0.355862 0.889591 -0.115117
C61   C     C_R   0.584782 0.328945 0.887786 -0.093695
C62   C     C_R   0.567343 0.287625 0.845913 0.178887
C63   C     C_R   0.653902 0.288053 0.825404 0.064017
C64   C     C_1   0.650704 0.275601 0.781340 0.159540
C65   C     C_1   0.649609 0.271049 0.744708 0.075576
C66   C     C_R   0.685215 0.368146 0.909311 -0.053128
H9    H     H_    0.521237 0.335108 0.903196 0.201589
H10   H     H_    0.500687 0.276570 0.700331 0.211603
C67   C     C_R   0.081661 0.764703 0.911281 -0.007240
C68   C     C_R   0.136241 0.871435 0.907461 0.210935
C69   C     C_R   0.169823 0.900989 0.869149 0.165353
C70   C     C_R   0.145880 0.823448 0.835120 -0.081271
C71   C     C_R   0.102080 0.717884 0.839982 0.175233
C72   C     C_R   0.072930 0.688782 0.878671 0.107870
C73   C     C_R   0.259938 0.911745 0.781189 0.068864
C74   C     C_R   0.271819 0.928933 0.740697 0.342162
C75   C     C_R   0.179730 0.881221 0.712389 0.043437
C76   C     C_R   0.077808 0.826510 0.725817 -0.096053
C77   C     C_R   0.067031 0.812007 0.766444 -0.053113
C78   C     C_R   0.158204 0.850962 0.793780 0.035534
C79   C     C_R   0.165882 0.928641 0.644321 -0.083404
C80   C     C_R   0.185917 0.926579 0.603135 0.254309
C81   C     C_R   0.248669 0.802000 0.609976 -0.140909
C82   C     C_R   0.227219 0.803438 0.651044 0.251770
C83   C     C_R   0.189913 0.870464 0.668394 -0.014407
C84   C     C_R   0.234203 0.867347 0.586416 -0.020567
H11   H     H_    0.330288 0.943349 0.802569 0.172428
H12   H     H_    0.007199 0.789656 0.704319 0.147348
H13   H     H_    0.987932 0.766110 0.776212 0.173321
H14   H     H_    0.133940 0.977693 0.657850 0.182299
H15   H     H_    0.284341 0.755467 0.597442 0.154001
C85   C     C_R   0.658075 0.744932 0.912538 -0.013959
C86   C     C_R   0.570648 0.655286 0.890804 -0.090153
C87   C     C_R   0.535277 0.654662 0.850841 0.249077
C88   C     C_R   0.590879 0.745644 0.832731 0.035535
C89   C     C_R   0.671008 0.837325 0.856006 -0.133318
C90   C     C_R   0.704227 0.837132 0.895531 -0.105936
C91   C     C_R   0.539957 0.807509 0.775183 -0.044925
C92   C     C_R   0.540866 0.821912 0.734425 0.268915
C93   C     C_R   0.585343 0.775215 0.706452 -0.028583
C94   C     C_R   0.618221 0.707463 0.719111 -0.105683
C95   C     C_R   0.616990 0.692574 0.760068 0.242621
C96   C     C_R   0.579392 0.745334 0.788494 -0.003213
C97   C     C_R   0.564615 0.729361 0.630375 -0.092811
C98   C     C_R   0.576673 0.759107 0.591370 0.194308
C99   C     C_R   0.683900 0.940399 0.623364 -0.144306
C100  C     C_R   0.672215 0.909639 0.661701 -0.116211
C101  C     C_R   0.608201 0.804712 0.665486 -0.043045
C102  C     C_R   0.631825 0.866718 0.588126 0.009256
H16   H     H_    0.533074 0.584581 0.904265 0.169663
H17   H     H_    0.770620 0.907838 0.911823 0.164051
H18   H     H_    0.708487 0.968398 0.688669 0.174888
H19   H     H_    0.510083 0.846887 0.796906 0.160548
H20   H     H_    0.652049 0.671807 0.697586 0.167822
H21   H     H_    0.518743 0.647838 0.633518 0.185685
H22   H     H_    0.713164 0.907628 0.842480 0.139811
H23   H     H_    0.726166 0.022889 0.621706 0.191687
O14   O     O_R   0.828710 0.851830 0.052170 -0.433717
O15   O     O_R   0.005980 0.823990 0.047210 -0.489213
C103  C     C_R   0.053984 0.781922 0.063776 0.574677
O16   O     O_R   0.031900 0.688850 0.050170 -0.412527
O17   O     O_R   0.830940 0.518420 0.048680 -0.436667
C104  C     C_R   0.745142 0.487373 0.066702 0.591430
O18   O     O_R   0.668160 0.499860 0.053480 -0.462819
O19   O     O_R   0.689170 0.693840 0.050110 -0.517637
C105  C     C_R   0.741321 0.789221 0.066058 0.555860
O20   O     O_R   0.803860 0.812940 0.962540 -0.498962
O21   O     O_R   0.982950 0.787950 0.964120 -0.451950
C106  C     C_R   0.023300 0.733291 0.947829 0.598121
O22   O     O_R   0.007050 0.649970 0.960540 -0.491243
O23   O     O_R   0.807910 0.482370 0.965590 -0.497989
C107  C     C_R   0.711639 0.436349 0.949471 0.559506
O24   O     O_R   0.643310 0.460980 0.963840 -0.494940
O25   O     O_R   0.666140 0.657800 0.967020 -0.502579
C108  C     C_R   0.710155 0.739702 0.950183 0.544732
Cr4   Cr    Cr6+3 0.903360 0.812540 0.006510 1.133387
Cr5   Cr    Cr6+3 0.914630 0.587050 0.006280 1.134605
Cr6   Cr    Cr6+3 0.673560 0.582680 0.008540 1.091637
O26   O     O_3   0.830520 0.660760 0.007110 -0.296363
N1    N     N_R   0.548189 0.381891 0.109634 0.097604
O27   O     O_R   0.517848 0.318792 0.074983 -0.274658
O28   O     O_R   0.477513 0.397654 0.129116 -0.249882
N2    N     N_R   0.455230 0.180291 0.388093 0.074856
O29   O     O_R   0.386068 0.204773 0.403957 -0.245987
O30   O     O_R   0.422062 0.092158 0.363921 -0.345948
N3    N     N_R   0.818051 0.363187 0.460008 0.131762
O31   O     O_R   0.910352 0.367416 0.455640 -0.174347
O32   O     O_R   0.793212 0.383047 0.496560 -0.268968
O33   O     O_3   0.174804 0.702133 0.102022 -0.642768
H24   H     H_    0.230659 0.696114 0.117594 0.349381
O34   O     O_3   0.181607 0.723163 0.189958 -0.640584
H25   H     H_    0.154686 0.654241 0.172737 0.349554
N4    N     N_R   0.154518 0.694534 0.292728 0.118238
O35   O     O_R   0.226708 0.665438 0.287398 -0.208398
O36   O     O_R   0.065599 0.646142 0.269112 -0.310697
N5    N     N_R   0.233584 0.705139 0.372762 0.133557
O37   O     O_R   0.329483 0.716793 0.370642 -0.249669
O38   O     O_R   0.154193 0.614123 0.376089 -0.213659
O39   O     O_3   0.123668 0.016198 0.194326 -0.597795
H26   H     H_    0.107342 0.056368 0.176485 0.420204
O40   O     O_3   0.110436 0.993016 0.108006 -0.610592
H27   H     H_    0.139278 0.992403 0.080960 0.357888
O41   O     O_3   0.935271 0.507596 0.106730 -0.623505
H28   H     H_    0.996082 0.518299 0.125186 0.344785
N6    N     N_R   0.136988 0.018533 0.336294 0.111907
O42   O     O_R   0.169509 0.104371 0.361964 -0.215168
O43   O     O_R   0.070725 0.000169 0.305070 -0.256368
N7    N     N_R   0.837869 0.004745 0.113177 0.123974
O44   O     O_R   0.816212 0.076535 0.104912 -0.238547
O45   O     O_R   0.936140 0.022414 0.113795 -0.215157
N8    N     N_R   0.792564 0.027635 0.196648 0.130305
O46   O     O_R   0.895932 0.081421 0.196140 -0.182255
O47   O     O_R   0.744909 0.062229 0.222501 -0.305266
O48   O     O_3   0.715740 0.079039 0.391796 -0.640355
H29   H     H_    0.742501 0.129379 0.372169 0.354501
N9    N     N_R   0.546447 0.699972 0.391497 0.108544
O49   O     O_R   0.589085 0.706097 0.427408 -0.257334
O50   O     O_R   0.475757 0.608847 0.372374 -0.214935
O51   O     O_3   0.495338 0.666561 0.169466 -0.614957
H30   H     H_    0.474168 0.688372 0.195752 0.353967
O52   O     O_3   0.896402 0.459704 0.392299 -0.563545
H31   H     H_    0.913153 0.497482 0.368575 0.352792
O53   O     O_3   0.831838 0.310161 0.827229 -0.647174
H32   H     H_    0.892311 0.328079 0.847398 0.356547
O54   O     O_3   0.822791 0.279621 0.695628 -0.588664
H33   H     H_    0.822327 0.287426 0.725745 0.363520
N10   N     N_R   0.805985 0.270997 0.611449 0.126025
O55   O     O_R   0.859977 0.224780 0.619844 -0.242943
O56   O     O_R   0.837357 0.332031 0.583812 -0.231843
N11   N     N_R   0.461876 0.273426 0.622092 0.117361
O57   O     O_R   0.368884 0.230812 0.636798 -0.266969
O58   O     O_R   0.479944 0.337984 0.596283 -0.232396
N12   N     N_R   0.463402 0.249550 0.824655 0.119091
O59   O     O_R   0.433941 0.184396 0.790584 -0.290926
O60   O     O_R   0.392717 0.270092 0.841627 -0.197442
O61   O     O_3   0.152259 0.943981 0.941552 -0.648382
H34   H     H_    0.175492 0.013196 0.933588 0.380512
N13   N     N_R   0.029870 0.582382 0.885041 -0.173898
O62   O     O_R   0.068593 0.524075 0.868536 -0.000008
O63   O     O_R   0.068589 0.524073 0.868534 -0.000008
O64   O     O_3   0.246255 0.743715 0.675275 -0.616641
H35   H     H_    0.273831 0.702379 0.658580 0.343954
O65   O     O_3   0.805274 0.277218 0.305088 -0.650007
H36   H     H_    0.815180 0.233327 0.282264 0.397106
O66   O     O_3   0.374151 0.988714 0.729818 -0.620410
H37   H     H_    0.370544 0.005156 0.701997 0.326959
N14   N     N_R   0.223650 0.008908 0.864410 0.071082
O67   O     O_R   0.179487 0.044247 0.840838 -0.264282
O68   O     O_R   0.317259 0.072013 0.883692 -0.295878
O69   O     O_3   0.160100 0.985225 0.580869 -0.612036
H38   H     H_    0.151850 0.956891 0.551443 0.342515
N15   N     N_R   0.080584 0.639834 0.805037 0.109393
O70   O     O_R   0.984390 0.561693 0.795708 -0.252041
O71   O     O_R   0.155396 0.650029 0.781066 -0.249426
N16   N     N_R   0.828378 0.307468 0.220549 0.076665
O72   O     O_R   0.922806 0.315835 0.225517 -0.213951
O73   O     O_R   0.764110 0.247037 0.188730 -0.252618
O74   O     O_3   0.499833 0.883646 0.723569 -0.633674
H39   H     H_    0.485352 0.871279 0.693467 0.343273
N17   N     N_R   0.446354 0.561435 0.828893 0.105239
O75   O     O_R   0.413269 0.472640 0.841803 -0.248454
O76   O     O_R   0.390926 0.566017 0.798510 -0.257721
N18   N     N_R   0.659619 0.628875 0.772374 0.098666
O77   O     O_R   0.720973 0.657980 0.806181 -0.335417
O78   O     O_R   0.648965 0.548618 0.747180 -0.296217
N19   N     N_R   0.531402 0.680187 0.555683 0.096869
O79   O     O_R   0.451291 0.588858 0.558220 -0.253042
O80   O     O_R   0.577619 0.694927 0.521704 -0.240192
N20   N     N_R   0.726394 0.583884 0.252040 0.098467
O81   O     O_R   0.780461 0.637731 0.224317 -0.314240
O82   O     O_R   0.663844 0.611459 0.271900 -0.319087
O83   O     O_3   0.539977 0.296056 0.323140 -0.636323
H40   H     H_    0.464136 0.260873 0.329221 0.399605

loop_
_geom_bond_atom_site_label_1
_geom_bond_atom_site_label_2
_geom_bond_distance
_ccdc_geom_bond_type
C25   C30   1.418538 A    
C59   C63   1.404634 A    
C36   C37   1.206362 T    
O21   Cr4   1.923082 S    
C67   C68   1.412514 A    
C22   O52   1.383700 S    
C52   C105  1.484755 S    
C35   C36   1.445330 S    
O22   Cr5   2.035948 S    
C76   H12   1.083652 S    
C69   C70   1.406338 A    
O51   H30   0.989606 S    
C97   C98   1.404575 A    
C54   N11   1.436477 S    
C57   C58   1.414103 A    
C61   H9    1.082731 S    
O19   C105  1.270283 A    
O15   Cr4   1.909782 S    
N2    O30   1.300345 A    
O4    Cr2   1.914939 S    
C8    N1    1.436531 S    
O33   H24   0.990512 S    
O23   Cr5   1.917049 S    
C4    O9    1.273453 A    
N11   O57   1.301517 A    
O8    Cr1   1.908116 S    
C10   C11   1.390459 A    
C41   C42   1.396890 A    
O16   Cr5   2.032705 S    
C59   C60   1.405872 A    
O4    C2    1.275480 A    
N1    O27   1.301446 A    
C77   H13   1.083666 S    
C21   C22   1.409254 A    
C69   N14   1.435373 S    
Cr6   O26   1.974975 S    
C21   C24   1.416364 A    
C34   O39   1.383486 S    
N20   O81   1.301525 A    
N11   O58   1.301544 A    
C82   O64   1.382681 S    
C47   H6    1.083533 S    
O15   C103  1.284682 A    
C71   C72   1.409008 A    
C56   C65   1.441992 S    
C82   C83   1.401856 A    
C93   C101  1.471733 S    
N6    O43   1.301465 A    
C91   C96   1.399436 A    
C32   O33   1.381775 S    
O65   H36   0.987510 S    
C87   C88   1.415419 A    
C29   N4    1.439697 S    
C59   O53   1.381881 S    
C77   C78   1.400638 A    
C104  O18   1.281057 A    
C76   C77   1.388358 A    
C27   C28   1.411778 A    
C10   C18   1.474469 S    
N3    O31   1.301252 A    
N16   O72   1.301059 A    
N15   O71   1.301322 A    
C47   C48   1.384339 A    
N4    O36   1.301548 A    
C43   C44   1.394859 A    
N9    O49   1.301209 A    
C7    C8    1.420117 A    
O48   H29   0.992041 S    
C32   C38   1.414387 A    
N17   O75   1.300701 A    
C72   N13   1.437567 S    
O9    Cr2   2.029095 S    
C55   C56   1.392371 A    
C53   C54   1.421358 A    
C30   N5    1.431482 S    
C1    C39   1.476981 S    
C94   C95   1.400784 A    
C95   N18   1.440037 S    
C75   C83   1.460703 S    
C106  O22   1.271919 A    
Cr3   O13   1.973036 S    
C70   C71   1.411314 A    
N1    O28   1.301421 A    
H8    C60   1.083195 S    
C48   C49   1.405789 A    
C60   C66   1.403967 A    
C19   C20   1.406497 A    
C86   H16   1.082860 S    
C97   C101  1.399279 A    
C40   N9    1.439862 S    
O61   H34   0.988556 S    
Cr5   O26   1.972354 S    
C75   C76   1.398074 A    
C87   N17   1.441903 S    
O64   H35   0.991734 S    
O23   C107  1.276303 A    
N18   O78   1.301537 A    
C22   C23   1.415591 A    
O17   Cr5   1.919347 S    
C26   H4    1.082513 S    
O1    Cr1   2.025226 S    
C85   C90   1.401353 A    
C42   C43   1.385416 A    
O53   H32   0.991068 S    
C28   C29   1.409392 A    
O10   Cr2   1.920205 S    
C79   H14   1.083762 S    
C92   C93   1.416986 A    
Cr1   O13   1.976423 S    
C17   C18   1.414684 A    
C8    C9    1.402095 A    
C85   C108  1.473231 S    
O54   H33   0.988779 S    
C100  H18   1.083614 S    
C12   O41   1.382937 S    
C9    H1    1.083730 S    
C21   N3    1.438569 S    
N20   O82   1.300990 A    
C46   N7    1.430094 S    
O6    C3    1.284129 A    
C31   C32   1.417183 A    
C9    C10   1.398306 A    
C61   C62   1.406970 A    
C71   N15   1.437808 S    
C7    C104  1.491888 S    
C13   C18   1.416437 A    
C20   N2    1.429767 S    
O12   Cr3   1.921880 S    
C42   C51   1.425818 S    
N8    O46   1.301032 A    
C16   C17   1.397635 A    
C31   O34   1.383034 S    
C62   N12   1.444359 S    
N7    O45   1.298879 A    
O25   C108  1.277526 A    
C63   C64   1.443186 S    
C19   C23   1.403292 A    
O39   H26   0.989607 S    
Cr4   O26   1.975930 S    
C13   C14   1.415785 A    
N15   O70   1.301491 A    
C99   C100  1.389214 A    
N10   O55   1.301124 A    
O10   C5    1.283847 A    
C20   C24   1.412168 A    
O7    Cr1   2.041083 S    
C88   C89   1.399918 A    
C73   H11   1.083787 S    
O83   H40   0.989039 S    
C79   C83   1.397512 A    
C68   O61   1.385216 S    
O12   C6    1.275275 A    
H5    C43   1.085095 S    
O1    C3    1.272746 A    
C68   C69   1.410518 A    
N16   O73   1.301264 A    
C31   C35   1.402189 A    
C7    C12   1.426290 A    
O21   C106  1.272661 A    
N13   O63   1.300997 A    
C28   C37   1.446875 S    
C81   H15   1.083648 S    
C55   H10   1.084763 S    
C49   C50   1.433428 S    
N4    O35   1.301048 A    
C89   H22   1.083966 S    
C46   C52   1.411026 A    
O52   H31   0.989285 S    
C29   C30   1.409361 A    
N14   O67   1.301281 A    
Cr2   O13   1.973513 S    
C39   C44   1.422950 A    
C48   O51   1.382987 S    
C4    C102  1.472323 S    
N14   O68   1.301209 A    
C19   O83   1.385970 S    
C81   C84   1.405024 A    
C98   C102  1.419403 A    
C41   H7    1.082808 S    
C61   C66   1.404121 A    
C99   C102  1.403436 A    
O69   H38   0.990345 S    
C81   C82   1.396866 A    
C66   C107  1.482673 S    
C1    O3    1.262947 A    
N2    O29   1.300466 A    
C33   C34   1.417732 A    
O17   C104  1.272962 A    
C80   C84   1.419497 A    
N6    O42   1.301278 A    
N17   O76   1.301316 A    
C45   N8    1.440740 S    
C98   N19   1.439595 S    
C74   O66   1.381063 S    
C3    C25   1.494173 S    
C80   O69   1.379477 S    
C38   C103  1.497936 S    
N10   O56   1.301424 A    
O2    Cr1   1.924709 S    
C62   C63   1.416355 A    
C14   O65   1.384367 S    
C97   H21   1.083369 S    
C15   C16   1.396676 A    
C25   C26   1.406786 A    
C6    C84   1.470153 S    
C91   H19   1.084321 S    
O14   Cr4   2.041014 S    
C56   C57   1.415443 A    
C100  C101  1.399157 A    
O6    Cr3   1.913047 S    
C58   N10   1.438964 S    
C26   C27   1.407337 A    
O8    C4    1.272270 A    
O11   Cr3   2.030195 S    
C34   C35   1.403138 A    
C2    O5    1.268794 A    
C94   H20   1.083922 S    
N12   O60   1.301156 A    
C79   C80   1.395888 A    
C45   C49   1.415246 A    
O66   H37   0.989854 S    
C73   C74   1.394228 A    
C103  O16   1.272126 A    
O18   Cr6   2.028563 S    
O20   Cr4   2.024802 S    
O14   C105  1.283117 A    
C70   C78   1.467383 S    
O2    C1    1.281922 A    
C47   C52   1.409685 A    
O74   H39   0.989760 S    
O41   H28   0.991461 S    
O34   H25   0.989757 S    
O5    Cr3   2.039218 S    
C45   C46   1.414918 A    
N7    O44   1.300538 A    
N5    O38   1.300532 A    
C54   C55   1.396652 A    
C14   C15   1.403576 A    
O40   H27   0.990979 S    
C5    C53   1.499326 S    
N3    O32   1.301386 A    
C53   C58   1.423354 A    
O7    C6    1.270480 A    
C95   C96   1.416615 A    
C67   C72   1.409903 A    
N12   O59   1.300920 A    
C67   C106  1.475251 S    
C74   C75   1.418663 A    
C15   C23   1.473775 S    
C85   C86   1.405846 A    
C73   C78   1.398669 A    
C2    C24   1.480606 S    
C40   C41   1.406601 A    
N13   O62   1.300997 A    
N19   O79   1.301525 A    
C33   C38   1.419968 A    
O25   Cr6   1.910363 S    
C44   O48   1.384446 S    
O3    Cr2   2.038273 S    
C11   H3    1.084105 S    
C50   C51   1.197863 T    
C107  O24   1.273142 A    
C64   C65   1.204987 T    
C90   H17   1.083154 S    
C17   N20   1.440889 S    
N9    O50   1.301549 A    
C57   O54   1.384354 S    
C33   O40   1.378646 S    
C11   C12   1.401225 A    
C16   H2    1.083737 S    
C89   C90   1.387058 A    
C39   C40   1.419073 A    
O19   Cr6   1.922924 S    
C27   N6    1.443544 S    
N8    O47   1.301053 A    
C91   C92   1.392510 A    
C86   C87   1.407518 A    
N19   O80   1.301387 A    
O24   Cr6   2.039561 S    
C13   N16   1.435928 S    
C92   O74   1.380164 S    
N5    O37   1.300840 A    
C5    O11   1.274588 A    
N18   O77   1.301192 A    
O20   C108  1.270246 A    
C93   C94   1.400559 A    
C99   H23   1.082075 S    
C88   C96   1.470539 S    
