data_mof_unit_27135.cif
_audit_creation_date              2012-12-10T17:05:19-0500
_audit_creation_method            fapswitch 2.2
_symmetry_space_group_name_H-M    P1
_symmetry_Int_Tables_number       1
_space_group_crystal_system       triclinic
_cell_length_a                    10.226276
_cell_length_b                    10.736739
_cell_length_c                    15.306832
_cell_angle_alpha                 91.060413
_cell_angle_beta                  69.001721
_cell_angle_gamma                 90.555384
_cell_volume                      1568.75544332

loop_
_atom_site_label
_atom_site_type_symbol
_atom_type_description
_atom_site_fract_x
_atom_site_fract_y
_atom_site_fract_z
_atom_type_partial_charge
C1    C     C_R   0.500055 0.736364 0.500736 0.933439
C2    C     C_R   0.733267 0.512802 0.026755 -0.074811
C3    C     C_R   0.589516 0.503294 0.083279 0.007203
C4    C     C_R   0.411156 0.490160 0.675379 0.935892
C5    C     C_R   0.831467 0.518801 0.072818 0.628144
C6    C     C_R   0.784564 0.514152 0.170327 -0.298431
C7    C     C_R   0.547477 0.543462 0.176868 0.190187
C8    C     C_2   0.605521 0.063265 0.507864 -0.072001
C9    C     C_2   0.513011 0.131448 0.484025 0.327284
C10   C     C_2   0.613830 0.933249 0.482434 0.726936
C11   C     C_2   0.495895 0.867413 0.511569 -0.416154
C12   C     C_R   0.419675 0.448751 0.912474 -0.146552
C13   C     C_2   0.090486 0.409599 0.465325 0.273578
C14   C     C_2   0.950589 0.421776 0.453574 -0.071111
C15   C     C_R   0.500931 0.263065 0.499080 0.836588
C16   C     C_R   0.587824 0.508020 0.324768 0.907749
C17   C     C_R   0.355966 0.458808 0.775778 -0.291749
C18   C     C_R   0.641244 0.524231 0.223180 -0.203647
C19   C     C_R   0.213258 0.338640 0.911647 0.691279
C20   C     C_R   0.248288 0.368898 0.816330 -0.050926
C21   C     C_R   0.429924 0.505658 0.829521 0.544261
C22   C     C_3   0.136472 0.294157 0.121812 -0.275927
C23   C     C_R   0.297179 0.381630 0.962252 -0.151625
C24   C     C_3   0.156169 0.153318 0.120898 -0.740295
C25   C     C_3   0.691832 0.112413 0.564804 -0.421155
C26   C     C_3   0.751340 0.010746 0.608869 -0.833066
C27   C     C_3   0.161434 0.286194 0.432041 -0.340450
C28   C     C_3   0.120428 0.193320 0.511703 -0.827746
C29   C     C_3   0.879896 0.602348 0.555703 -0.128890
C30   C     C_3   0.760140 0.645735 0.641983 -0.729771
C31   C     C_3   0.420586 0.629412 0.219000 -0.297526
C32   C     C_3   0.419970 0.735019 0.153334 -0.863203
C33   C     C_3   0.913905 0.557509 0.863217 -0.357444
C34   C     C_R   0.527533 0.463766 0.948211 0.021597
C35   C     C_3   0.933479 0.695762 0.881522 -0.765699
C36   C     C_3   0.176071 0.294736 0.761049 -0.355000
C37   C     C_3   0.247840 0.169061 0.730063 -0.829198
C38   C     C_3   0.720402 0.378020 0.805347 -0.447990
C39   C     C_3   0.738155 0.247724 0.837814 -0.860107
C40   C     C_R   0.491506 0.460369 0.044849 -0.092171
C41   C     C_R   0.365111 0.400667 0.099200 0.540572
C42   C     C_R   0.268743 0.358006 0.058559 0.089316
C43   C     C_R   0.671573 0.467894 0.889505 0.216766
C44   C     C_R   0.772119 0.509123 0.927879 0.133067
F1    F     F_    0.971627 0.515457 0.025827 -0.698113
F2    F     F_    0.439168 0.079789 0.433845 -0.679956
F3    F     F_    0.740656 0.881772 0.432693 -0.652223
F4    F     F_    0.145327 0.607566 0.458594 -0.599494
F5    F     F_    0.106065 0.257689 0.950069 -0.688613
F6    F     F_    0.511852 0.608131 0.802182 -0.694411
F7    F     F_    0.344594 0.367562 0.188545 -0.703421
H1    H     H_    0.394932 0.910466 0.549299 0.150038
H2    H     H_    0.830527 0.954039 0.554278 0.305775
H3    H     H_    0.804606 0.054178 0.653272 0.234083
H4    H     H_    0.780653 0.168695 0.518913 0.241072
H5    H     H_    0.624801 0.172573 0.623304 0.205767
H6    H     H_    0.146726 0.230000 0.571360 0.262466
H7    H     H_    0.006050 0.175672 0.536699 0.231244
H8    H     H_    0.175092 0.103591 0.486916 0.314843
H9    H     H_    0.127783 0.245979 0.375987 0.194930
H10   H     H_    0.275456 0.297524 0.396420 0.290984
H11   H     H_    0.675369 0.693147 0.627957 0.304750
H12   H     H_    0.923010 0.350843 0.411687 0.116283
H13   H     H_    0.724057 0.566078 0.688833 0.286974
H14   H     H_    0.800176 0.716229 0.680509 0.208683
H15   H     H_    0.947830 0.573403 0.593144 0.172967
H16   H     H_    0.919373 0.684936 0.511041 0.258343
H17   H     H_    0.521852 0.785334 0.130425 0.268404
H18   H     H_    0.399867 0.698698 0.090972 0.268329
H19   H     H_    0.335486 0.802058 0.190606 0.274513
H20   H     H_    0.320327 0.577641 0.238438 0.270749
H21   H     H_    0.422924 0.676239 0.283697 0.237349
H22   H     H_    0.036390 0.727975 0.831911 0.247021
H23   H     H_    0.860496 0.504815 0.204193 0.194071
H24   H     H_    0.930853 0.713548 0.953669 0.286322
H25   H     H_    0.849662 0.751225 0.870512 0.247677
H26   H     H_    0.000221 0.501548 0.869240 0.262821
H27   H     H_    0.925252 0.551792 0.788713 0.176216
H28   H     H_    0.195248 0.115461 0.689287 0.244076
H29   H     H_    0.359407 0.183008 0.685882 0.222152
H30   H     H_    0.242226 0.113652 0.791877 0.287093
H31   H     H_    0.064674 0.278308 0.804882 0.241650
H32   H     H_    0.171001 0.343790 0.699943 0.215034
H33   H     H_    0.809675 0.249979 0.877916 0.278103
H34   H     H_    0.186589 0.114153 0.048779 0.285139
H35   H     H_    0.635032 0.209661 0.882762 0.268919
H36   H     H_    0.783690 0.185057 0.776317 0.248783
H37   H     H_    0.645384 0.370741 0.768401 0.221834
H38   H     H_    0.820636 0.405322 0.751127 0.187511
H39   H     H_    0.238963 0.130808 0.149226 0.266066
H40   H     H_    0.056720 0.108811 0.165398 0.249011
H41   H     H_    0.108219 0.328992 0.195107 0.205739
H42   H     H_    0.044378 0.317963 0.103603 0.269218
H43   H     H_    0.665973 0.949635 0.653218 0.258629
N1    N     N_2   0.148330 0.498670 0.499030 0.088082
N2    N     N_2   0.852680 0.498640 0.499000 -0.075394
O1    O     O_R   0.386950 0.680940 0.500010 -0.552843
O2    O     O_R   0.613110 0.680900 0.499990 -0.568089
O3    O     O_R   0.322330 0.500030 0.632270 -0.633176
O4    O     O_R   0.548480 0.499990 0.632240 -0.602004
O5    O     O_R   0.386890 0.319100 0.500010 -0.602862
O6    O     O_R   0.613050 0.319060 0.499990 -0.661585
O7    O     O_R   0.451520 0.500010 0.367760 -0.583743
O8    O     O_R   0.677670 0.499970 0.367730 -0.600018
Zn1   Zn    Zn3+2 0.349000 0.500030 0.500020 1.020798
Zn2   Zn    Zn3+2 0.651000 0.499970 0.499980 0.964220

loop_
_geom_bond_atom_site_label_1
_geom_bond_atom_site_label_2
_ccdc_geom_bond_type
C26   H43   S    
C26   H2    S    
F4    N1    S    
C30   H13   S    
C41   C42   A    
C19   C20   A    
C1    C11   S    
C25   H5    S    
C39   H36   S    
O8    Zn2   S    
C22   C42   S    
C28   H6    S    
C37   H28   S    
C38   H38   S    
C35   H24   S    
C23   C42   A    
C13   N1    D    
C34   C40   A    
C36   C37   S    
C39   H33   S    
C3    C7    A    
C27   H9    S    
C38   C39   S    
C33   H27   S    
C36   H32   S    
C17   C20   A    
C36   H31   S    
C11   H1    S    
N1    Zn1   S    
C29   H16   S    
C16   O8    A    
C35   H22   S    
C2    C44   A    
C8    C9    D    
C27   H10   S    
C24   H34   S    
C32   H17   S    
O1    Zn1   S    
C31   H20   S    
C9    F2    S    
C13   C14   S    
C8    C25   S    
C37   H30   S    
O3    Zn1   S    
C26   H3    S    
C14   N2    D    
C21   F6    S    
C6    H23   S    
O5    Zn1   S    
C6    C18   A    
C37   H29   S    
C35   H25   S    
C7    C31   S    
C1    O1    A    
C32   H19   S    
C25   C26   S    
C5    F1    S    
C12   C21   A    
C17   C21   A    
C38   H37   S    
C19   C23   A    
C43   C44   A    
C29   C30   S    
C19   F5    S    
C16   O7    A    
C31   C32   S    
C12   C23   A    
C7    C18   A    
O7    Zn1   S    
C15   O5    A    
C4    C17   S    
C16   C18   S    
C31   H21   S    
C3    C40   A    
C4    O4    A    
C22   H42   S    
C22   C24   S    
C2    C5    A    
C12   C34   A    
C24   H40   S    
C27   C28   S    
C28   H8    S    
N2    Zn2   S    
C40   C41   A    
C33   C44   S    
C34   C43   A    
C25   H4    S    
C24   H39   S    
C1    O2    A    
C29   N2    S    
C32   H18   S    
C28   H7    S    
O4    Zn2   S    
O2    Zn2   S    
C30   H11   S    
C2    C3    A    
C9    C15   S    
C38   C43   S    
C33   H26   S    
C5    C6    A    
C14   H12   S    
C33   C35   S    
O6    Zn2   S    
C15   O6    A    
C30   H14   S    
C10   C11   D    
C29   H15   S    
C20   C36   S    
C8    C10   S    
C4    O3    A    
C10   F3    S    
C22   H41   S    
C13   C27   S    
C39   H35   S    
C41   F7    S    
