data_mof_unit_58390.cif
_audit_creation_date              2012-12-11T18:13:13-0500
_audit_creation_method            fapswitch 2.2
_symmetry_space_group_name_H-M    P1
_symmetry_Int_Tables_number       1
_space_group_crystal_system       triclinic
_cell_length_a                    8.180376
_cell_length_b                    12.657066
_cell_length_c                    18.690961
_cell_angle_alpha                 99.462146
_cell_angle_beta                  91.062751
_cell_angle_gamma                 98.476527
_cell_volume                      1886.25516581

loop_
_atom_site_label
_atom_site_type_symbol
_atom_type_description
_atom_site_fract_x
_atom_site_fract_y
_atom_site_fract_z
_atom_type_partial_charge
Ba1   Ba    Ba6+2 0.852780 0.548340 0.465070 1.629807
Ba2   Ba    Ba6+2 0.337060 0.451750 0.534940 1.632665
C1    C     C_3   0.617027 0.918899 0.271140 -0.399359
C2    C     C_R   0.891581 0.394311 0.095448 0.032934
C3    C     C_R   0.728631 0.347934 0.072513 -0.084629
C4    C     C_3   0.118145 0.754264 0.263326 0.360847
C5    C     C_R   0.667138 0.353565 0.003167 -0.089915
C6    C     C_R   0.768198 0.404205 0.954881 0.032310
C7    C     C_R   0.931625 0.451761 0.977257 0.013853
C8    C     C_R   0.708664 0.406152 0.884361 -0.109702
C9    C     C_R   0.811434 0.452153 0.834107 -0.043188
C10   C     C_R   0.974479 0.503253 0.856997 -0.005360
C11   C     C_R   0.033516 0.503070 0.928947 -0.008555
C12   C     C_3   0.636733 0.819456 0.304390 0.337196
C13   C     C_R   0.757632 0.446390 0.761099 -0.005672
C14   C     C_R   0.866587 0.487281 0.711893 -0.297623
C15   C     C_R   0.023957 0.543901 0.733979 0.046007
C16   C     C_3   0.068284 0.766976 0.186076 -0.182093
C17   C     C_R   0.078899 0.553812 0.808114 -0.044817
C18   C     C_R   0.155780 0.495554 0.071042 -0.008938
C19   C     C_R   0.215251 0.494662 0.142816 -0.009267
C20   C     C_R   0.110515 0.444818 0.191849 -0.047896
C21   C     C_R   0.952806 0.389584 0.165421 -0.041324
C22   C     C_R   0.235837 0.610069 0.834829 -0.042635
C23   C     C_3   0.459757 0.275346 0.313691 0.309853
C24   C     C_R   0.297082 0.605345 0.904821 0.033837
C25   C     C_R   0.195990 0.551575 0.952098 0.006885
C26   C     C_R   0.257534 0.547057 0.022792 0.017651
C27   C     C_R   0.459876 0.651992 0.927857 -0.083829
C28   C     C_3   0.235511 0.787444 0.619591 0.278216
C29   C     C_R   0.521825 0.645541 0.996977 -0.091000
C30   C     C_R   0.421174 0.594171 0.045063 0.030043
C31   C     C_R   0.378910 0.544523 0.165468 -0.040236
C32   C     C_R   0.481466 0.590826 0.115237 -0.106813
C33   C     C_R   0.433513 0.548734 0.238242 0.007072
C34   C     C_3   0.431901 0.237306 0.232297 -0.402165
C35   C     C_R   0.325421 0.507357 0.287396 -0.303815
C36   C     C_R   0.166276 0.454064 0.265800 0.045640
C37   C     C_R   0.766114 0.182069 0.527492 -0.279002
C38   C     C_R   0.428694 0.807236 0.469842 -0.292002
C39   C     C_R   0.403069 0.984161 0.444225 -0.100383
C40   C     C_3   0.251304 0.910055 0.635710 -0.349508
C41   C     C_R   0.338251 0.875709 0.440301 -0.004942
C42   C     C_R   0.578134 0.848060 0.509046 0.065451
C43   C     C_R   0.643230 0.960074 0.516380 -0.060494
C44   C     C_R   0.554708 0.028157 0.482168 -0.065035
C45   C     C_3   0.061653 0.238625 0.735152 0.367339
C46   C     C_R   0.618449 0.139132 0.488068 0.042520
C47   C     C_R   0.857700 0.115906 0.558545 -0.011798
C48   C     C_R   0.794494 0.006217 0.555382 -0.093429
C49   C     C_3   0.960209 0.210627 0.379691 0.271891
C50   C     C_3   0.978259 0.091630 0.366608 -0.333365
C51   C     C_3   0.729204 0.707775 0.683031 0.315891
C52   C     C_3   0.751499 0.746483 0.764577 -0.407268
C53   C     C_3   0.200759 0.839330 0.152773 -0.445413
C54   C     C_3   0.081134 0.214858 0.811767 -0.367012
C55   C     C_3   0.558898 0.178549 0.701783 0.346509
C56   C     C_3   0.612782 0.099927 0.747568 -0.417698
C57   C     C_R   0.992992 0.447561 0.048030 0.004013
H1    H     H_    0.727735 0.843430 0.351217 0.086560
H2    H     H_    0.845966 0.683493 0.662202 0.013469
H3    H     H_    0.628472 0.637377 0.672571 0.065793
H4    H     H_    0.605633 0.988269 0.314569 0.098405
H5    H     H_    0.858338 0.812813 0.776667 0.127645
H6    H     H_    0.774198 0.679111 0.792677 0.057804
H7    H     H_    0.638091 0.777012 0.785586 0.117864
H8    H     H_    0.514248 0.788613 0.323883 -0.048690
H9    H     H_    0.504249 0.902158 0.235158 0.112725
H10   H     H_    0.343676 0.299728 0.335916 0.023122
H11   H     H_    0.560225 0.346056 0.323091 0.058242
H12   H     H_    0.339642 0.942055 0.682499 0.113989
H13   H     H_    0.326809 0.169603 0.221313 0.127909
H14   H     H_    0.403276 0.304756 0.205469 0.057166
H15   H     H_    0.545018 0.208953 0.209181 0.117588
H16   H     H_    0.724477 0.940370 0.238185 0.130199
H17   H     H_    0.143124 0.315653 0.731475 0.094852
H18   H     H_    0.931122 0.248299 0.725231 -0.074436
H19   H     H_    0.212659 0.210528 0.824823 0.149888
H20   H     H_    0.040263 0.279957 0.851426 0.071056
H21   H     H_    0.004885 0.136389 0.816620 0.110893
H22   H     H_    0.669579 0.213258 0.675056 -0.053143
H23   H     H_    0.296999 0.945306 0.588149 0.083128
H24   H     H_    0.468292 0.133409 0.658460 0.078944
H25   H     H_    0.706341 0.143977 0.789973 0.113808
H26   H     H_    0.667465 0.035469 0.712712 0.095850
H27   H     H_    0.039645 0.680544 0.275098 0.085891
H28   H     H_    0.505242 0.062294 0.774771 0.129597
H29   H     H_    0.648043 0.307923 0.108441 0.060977
H30   H     H_    0.540723 0.317236 0.987026 0.070693
H31   H     H_    0.825117 0.479251 0.655695 0.070192
H32   H     H_    0.582497 0.369413 0.869028 0.107872
H33   H     H_    0.873648 0.344749 0.199237 0.096698
H34   H     H_    0.128962 0.934307 0.648982 0.142851
H35   H     H_    0.314723 0.655221 0.801085 0.096317
H36   H     H_    0.540156 0.692596 0.892115 0.061689
H37   H     H_    0.648299 0.681765 0.013094 0.069887
H38   H     H_    0.608272 0.626379 0.130221 0.109576
H39   H     H_    0.249693 0.742147 0.266188 -0.057572
H40   H     H_    0.367904 0.513918 0.343348 0.073181
H41   H     H_    0.331133 0.033278 0.418743 0.098888
H42   H     H_    0.866635 0.958640 0.582436 0.103620
H43   H     H_    0.814893 0.267040 0.530573 0.063462
H44   H     H_    0.377667 0.722485 0.465793 0.072871
H45   H     H_    0.829918 0.218667 0.388458 0.002693
H46   H     H_    0.045628 0.685973 0.151028 0.078789
H47   H     H_    0.951412 0.801731 0.186339 0.159386
H48   H     H_    0.356865 0.764148 0.605399 0.009178
H49   H     H_    0.144574 0.757439 0.573304 0.076901
H50   H     H_    0.229836 0.920238 0.187696 0.152427
H51   H     H_    0.314142 0.800789 0.145618 0.131151
H52   H     H_    0.155158 0.850091 0.098507 0.126813
H53   H     H_    0.038068 0.250236 0.428771 0.076159
H54   H     H_    0.917345 0.051316 0.313955 0.124603
H55   H     H_    0.921381 0.051747 0.410445 0.088549
H56   H     H_    0.110943 0.083232 0.364545 0.129215
O1    O     O_2   0.873090 0.425890 0.325140 -0.469697
O2    O     O_2   0.198357 0.121366 0.552408 -0.481808
O3    O     O_3   0.106420 0.152793 0.685526 -0.599147
O4    O     O_3   0.122420 0.434370 0.414380 -0.492912
O5    O     O_3   0.578370 0.633800 0.536380 -0.488014
O6    O     O_2   0.341510 0.231850 0.465510 -0.465833
O7    O     O_3   0.503793 0.190042 0.345374 -0.651191
O8    O     O_2   0.416293 0.453005 0.757030 -0.497134
O9    O     O_3   0.482130 0.256007 0.746432 -0.596892
O10   O     O_3   0.659500 0.627100 0.368810 -0.477104
O11   O     O_2   0.776454 0.549356 0.242594 -0.503073
O12   O     O_3   0.689628 0.793154 0.650563 -0.642396
O13   O     O_3   0.006283 0.253189 0.317449 -0.640691
O14   O     O_3   0.695344 0.742673 0.252019 -0.615003
O15   O     O_2   0.848200 0.768190 0.534530 -0.474065
O16   O     O_3   0.081160 0.685950 0.404810 -0.489994
O17   O     O_2   0.000417 0.879438 0.447356 -0.489531
O18   O     O_3   0.091549 0.845980 0.312943 -0.610719
O19   O     O_2   0.316610 0.574140 0.674900 -0.469319
O20   O     O_3   0.067290 0.565720 0.585630 -0.495571
O21   O     O_3   0.530210 0.372990 0.631200 -0.465008
O22   O     O_3   0.185178 0.746975 0.682091 -0.639609
O23   O     O_3   0.611340 0.366290 0.463630 -0.476735
O24   O     O_3   0.108550 0.314140 0.595200 -0.484315
P1    P     P_3+3 0.041040 0.394770 0.336330 0.971812
P2    P     P_3+3 0.672880 0.754030 0.556100 0.968681
P3    P     P_3+3 0.128560 0.823383 0.401614 0.937122
P4    P     P_3+3 0.148670 0.605320 0.663680 0.971788
P5    P     P_3+3 0.066644 0.174963 0.597272 0.951612
P6    P     P_3+3 0.641386 0.613909 0.274775 0.936277
P7    P     P_3+3 0.522185 0.230269 0.439662 0.932854
P8    P     P_3+3 0.547165 0.384645 0.725074 0.950185

loop_
_geom_bond_atom_site_label_1
_geom_bond_atom_site_label_2
_ccdc_geom_bond_type
C14   H31   S    
C49   H53   S    
C28   H48   S    
C40   H34   S    
C1    H9    S    
C40   H23   S    
C56   H28   S    
C5    C6    A    
C52   H6    S    
C51   C52   S    
O18   P3    S    
Ba2   O19   S    
C54   H20   S    
O4    P1    S    
C4    H39   S    
C33   C35   A    
Ba1   O10   S    
C45   H17   S    
C4    O18   S    
O3    P5    S    
C33   P6    S    
C50   H56   S    
C19   C31   A    
C29   H37   S    
C20   C36   A    
C47   P5    S    
C32   H38   S    
C54   H19   S    
C10   C17   A    
Ba1   Ba2   S    
O12   P2    S    
O15   P2    D    
C7    C11   A    
C51   O12   S    
C31   C33   A    
O19   P4    D    
C3    H29   S    
C51   H2    S    
C38   C41   A    
Ba2   O24   S    
Ba2   O4    S    
C6    C7    A    
C46   P7    S    
C39   C44   A    
C55   H24   S    
Ba1   O1    S    
C1    H16   S    
C23   O7    S    
O14   P6    S    
C53   H52   S    
O20   P4    S    
O22   P4    S    
C28   O22   S    
C19   C20   A    
C53   H50   S    
Ba2   P4    S    
C39   C41   A    
C9    C13   A    
O11   P6    D    
C45   O3    S    
O17   P3    D    
C4    C16   S    
O9    P8    S    
C44   C46   A    
C49   C50   S    
Ba2   O23   S    
C26   C30   A    
O2    P5    D    
Ba1   O15   S    
C8    C9    A    
C3    C5    A    
C2    C21   A    
Ba2   O5    S    
C42   P2    S    
C18   C26   A    
C49   H45   S    
C43   C44   A    
Ba2   O21   S    
C7    C57   A    
Ba1   O5    S    
C30   C32   A    
C16   H47   S    
Ba1   O4    S    
C35   C36   A    
C22   H35   S    
O24   P5    S    
C29   C30   A    
C12   H8    S    
C31   C32   A    
C24   C25   A    
C39   H41   S    
C10   C11   A    
C18   C57   A    
Ba1   P1    S    
C1    C12   S    
C34   H15   S    
C16   C53   S    
C24   C27   A    
O16   P3    S    
C37   C47   A    
C45   C54   S    
O8    P8    D    
C8    H32   S    
C50   H55   S    
C53   H51   S    
C55   H22   S    
C23   H10   S    
C49   O13   S    
C56   H26   S    
C35   H40   S    
C42   C43   A    
C37   H43   S    
C27   H36   S    
Ba2   O6    S    
C36   P1    S    
C28   H49   S    
C20   C21   A    
C28   C40   S    
O5    P2    S    
C22   C24   A    
C2    C3    A    
Ba1   O16   S    
C54   H21   S    
C9    C10   A    
C52   H7    S    
C1    H4    S    
C12   H1    S    
Ba2   O20   S    
C4    H27   S    
C48   H42   S    
C15   P4    S    
C17   C22   A    
O13   P1    S    
C16   H46   S    
C27   C29   A    
O10   P6    S    
C55   O9    S    
C13   P8    S    
C55   C56   S    
C14   C15   A    
C52   H5    S    
C43   C48   A    
O23   P7    S    
C50   H54   S    
C2    C57   A    
C40   H12   S    
C15   C17   A    
O7    P7    S    
C56   H25   S    
O21   P8    S    
Ba1   P2    S    
C34   H14   S    
C23   C34   S    
O6    P7    D    
C34   H13   S    
C38   C42   A    
C18   C19   A    
C51   H3    S    
C6    C8    A    
C47   C48   A    
C25   C26   A    
C45   H18   S    
C21   H33   S    
C11   C25   A    
C41   P3    S    
C23   H11   S    
O1    P1    D    
Ba1   O20   S    
Ba1   O23   S    
C13   C14   A    
C37   C46   A    
C38   H44   S    
C12   O14   S    
C5    H30   S    
