data_mof_unit_13165.cif
_audit_creation_date              2012-12-10T18:59:15-0500
_audit_creation_method            fapswitch 2.2
_symmetry_space_group_name_H-M    P1
_symmetry_Int_Tables_number       1
_space_group_crystal_system       triclinic
_cell_length_a                    10.843682
_cell_length_b                    10.811439
_cell_length_c                    9.548516
_cell_angle_alpha                 89.561189
_cell_angle_beta                  88.761724
_cell_angle_gamma                 90.150797
_cell_volume                      1119.12935013

loop_
_atom_site_label
_atom_site_type_symbol
_atom_type_description
_atom_site_fract_x
_atom_site_fract_y
_atom_site_fract_z
_atom_type_partial_charge
C1    C     C_R   0.497839 0.262483 0.500420 0.758064
C2    C     C_R   0.064541 0.402016 0.606955 0.084022
C3    C     C_R   0.128499 0.472925 0.502691 -0.171059
C4    C     C_R   0.065875 0.515582 0.386307 -0.312780
C5    C     C_R   0.939962 0.499731 0.376661 0.475833
C6    C     C_R   0.870870 0.457971 0.494518 -0.220391
C7    C     C_R   0.470553 0.062874 0.621793 0.147066
C8    C     C_R   0.505065 0.129452 0.501622 -0.074425
C9    C     C_R   0.552828 0.066173 0.384762 -0.217650
C10   C     C_R   0.552799 0.937384 0.384312 -0.222354
C11   C     C_R   0.505136 0.871169 0.500417 -0.099170
C12   C     C_R   0.262318 0.492060 0.501467 0.816708
C13   C     C_R   0.470095 0.935490 0.620970 0.081580
C14   C     C_3   0.352459 0.927950 0.704910 -0.459231
C15   C     C_3   0.352690 0.068226 0.705345 -0.491887
C16   C     C_R   0.587182 0.565796 0.070808 0.176492
C17   C     C_R   0.423384 0.424641 0.077139 -0.081105
C18   C     C_R   0.423912 0.424204 0.928407 -0.091983
C19   C     C_R   0.586976 0.565561 0.923388 0.209651
C20   C     C_3   0.612157 0.700664 0.910995 0.241449
C21   C     C_3   0.608376 0.703028 0.071257 -0.192030
C22   C     C_R   0.499791 0.737680 0.499702 0.812651
C23   C     C_R   0.737109 0.485110 0.498805 0.837601
C24   C     C_R   0.129093 0.333205 0.708155 -0.176596
C25   C     C_R   0.067809 0.261440 0.808140 -0.231379
C26   C     C_R   0.941588 0.247295 0.802504 -0.124256
C27   C     C_R   0.874139 0.306466 0.698926 0.179519
C28   C     C_R   0.933330 0.391966 0.602967 0.009447
Cu1   Cu    Cu3+1 0.499990 0.499980 0.640670 0.939161
Cu2   Cu    Cu3+1 0.500010 0.500020 0.359330 0.937927
H1    H     H_    0.114880 0.560531 0.299711 0.175924
H2    H     H_    0.365518 0.886967 0.810565 0.186250
H3    H     H_    0.275869 0.108870 0.645210 0.197921
H4    H     H_    0.365840 0.108020 0.811007 0.188897
H5    H     H_    0.359536 0.365443 0.135017 0.142544
H6    H     H_    0.361501 0.363676 0.875516 0.131463
H7    H     H_    0.535520 0.752290 0.861936 0.072221
H8    H     H_    0.528462 0.755501 0.114613 0.145000
H9    H     H_    0.227719 0.326314 0.706621 0.153917
H10   H     H_    0.119505 0.209425 0.884331 0.142197
H11   H     H_    0.896600 0.181264 0.872541 0.137380
H12   H     H_    0.586827 0.115789 0.292707 0.163401
H13   H     H_    0.586893 0.890551 0.292230 0.172300
H14   H     H_    0.275369 0.887502 0.645225 0.201197
N1    N     N_R   0.500790 0.500930 0.147930 -0.198451
N2    N     N_R   0.500790 0.500890 0.852020 -0.220399
O1    O     O_R   0.500000 0.319640 0.618810 -0.603604
O2    O     O_R   0.500010 0.319680 0.381230 -0.594271
O3    O     O_R   0.319640 0.499980 0.618820 -0.586937
O4    O     O_R   0.319650 0.500020 0.381230 -0.584155
O5    O     O_R   0.499990 0.680320 0.618770 -0.576634
O6    O     O_R   0.500000 0.680360 0.381190 -0.587503
O7    O     O_R   0.680350 0.499980 0.618770 -0.566183
O8    O     O_R   0.680360 0.500020 0.381180 -0.535560
O9    O     O_3   0.730672 0.720130 0.849839 -0.552889
C29   C     C_3   0.746624 0.846407 0.815795 0.105900
H15   H     H_    0.722404 0.907015 0.906159 0.152159
H16   H     H_    0.689101 0.871314 0.725277 0.149432
C30   C     C_3   0.880880 0.869623 0.774103 -0.783831
H17   H     H_    0.907675 0.810401 0.683930 0.250795
H18   H     H_    0.893944 0.968116 0.743365 0.208584
H19   H     H_    0.941153 0.848112 0.863614 0.246203
N3    N     N_3   0.725557 0.738642 0.133258 -0.558490
H20   H     H_    0.720410 0.717726 0.240214 0.268677
H21   H     H_    0.797840 0.686693 0.090266 0.297394
N4    N     N_3   0.753694 0.257356 0.679686 -0.613691
H22   H     H_    0.691242 0.307074 0.741590 0.269376
H23   H     H_    0.732901 0.255451 0.573655 0.205028
O10   O     O_3   0.883828 0.530894 0.252624 -0.603199
C31   C     C_3   0.907098 0.437685 0.151565 0.071752
H24   H     H_    0.888101 0.477121 0.046510 0.176253
H25   H     H_    0.005343 0.407567 0.147628 0.133737
C32   C     C_3   0.822437 0.325549 0.174714 -0.809517
H26   H     H_    0.724419 0.353191 0.167104 0.266395
H27   H     H_    0.842338 0.255245 0.093730 0.194544
H28   H     H_    0.837607 0.282400 0.278725 0.227600

loop_
_geom_bond_atom_site_label_1
_geom_bond_atom_site_label_2
_ccdc_geom_bond_type
N4    H23   S    
O9    C29   S    
N3    H21   S    
C16   C21   S    
C1    C8    S    
C32   H26   S    
Cu2   N1    S    
C19   C20   S    
C12   O3    A    
C19   N2    A    
C7    C8    A    
Cu1   O3    S    
Cu2   O8    S    
C9    H12   S    
Cu1   O1    S    
Cu2   O2    S    
C17   N1    A    
C25   H10   S    
C5    C6    A    
C24   H9    S    
C29   H15   S    
C5    O10   S    
C3    C12   S    
C6    C28   A    
C21   H8    S    
C8    C9    A    
C31   H24   S    
C9    C10   A    
C15   H4    S    
C7    C15   S    
N4    H22   S    
Cu2   O4    S    
C30   H17   S    
C13   C14   S    
C32   H27   S    
C20   O9    S    
C18   N2    A    
C23   O7    A    
C30   H18   S    
C31   H25   S    
C24   C25   A    
C1    O1    A    
C25   C26   A    
Cu1   Cu2   S    
C31   C32   S    
C17   C18   A    
C26   C27   A    
C2    C24   A    
C32   H28   S    
C3    C4    A    
C23   O8    A    
C14   H14   S    
Cu1   O5    S    
Cu2   O6    S    
C30   H19   S    
C10   H13   S    
C14   H2    S    
C4    C5    A    
C16   N1    A    
C12   O4    A    
C1    O2    A    
C11   C22   S    
C29   C30   S    
Cu1   N2    S    
C2    C3    A    
C27   N4    S    
C20   H7    S    
C11   C13   A    
Cu1   O7    S    
C16   C19   A    
C6    C23   S    
C29   H16   S    
C22   O6    A    
O10   C31   S    
C21   N3    S    
C4    H1    S    
C10   C11   A    
N3    H20   S    
C7    C13   A    
C20   C21   S    
C27   C28   A    
C14   C15   S    
C2    C28   A    
C17   H5    S    
C18   H6    S    
C15   H3    S    
C26   H11   S    
C22   O5    A    
