data_mof_unit_25845.cif
_audit_creation_date              2013-03-05T15:45:45-0500
_audit_creation_method            fapswitch 2.2
_symmetry_space_group_name_H-M    P1
_symmetry_Int_Tables_number       1
_space_group_crystal_system       triclinic
_cell_length_a                    19.201544
_cell_length_b                    11.308149
_cell_length_c                    18.817202
_cell_angle_alpha                 89.900899
_cell_angle_beta                  90.966064
_cell_angle_gamma                 90.287859
_cell_volume                      4085.21498063

loop_
_atom_site_label
_atom_site_type_symbol
_atom_site_description
_atom_site_fract_x
_atom_site_fract_y
_atom_site_fract_z
_atom_type_partial_charge
O1    O     O_R   0.214270 0.709000 0.827470 -0.441516
O2    O     O_R   0.785730 0.709000 0.172530 -0.451738
O3    O     O_R   0.714270 0.209000 0.827470 -0.457162
O4    O     O_R   0.285730 0.209000 0.172530 -0.455634
O5    O     O_R   0.236160 0.958490 0.823130 -0.465103
O6    O     O_R   0.763840 0.958490 0.176870 -0.445068
O7    O     O_R   0.736160 0.458490 0.823130 -0.478198
O8    O     O_R   0.263840 0.458490 0.176870 -0.433299
C1    C     C_R   0.274958 0.040389 0.854644 0.575834
C2    C     C_R   0.720978 0.030040 0.141771 0.595402
C3    C     C_R   0.775171 0.540046 0.854665 0.583780
C4    C     C_R   0.213368 0.510273 0.138630 0.554142
O9    O     O_R   0.332080 0.075470 0.831280 -0.524640
O10   O     O_R   0.667920 0.075470 0.168720 -0.525746
O11   O     O_R   0.832080 0.575470 0.831280 -0.515981
O12   O     O_R   0.167920 0.575470 0.168720 -0.513409
O13   O     O_R   0.446300 0.918110 0.826620 -0.457461
O14   O     O_R   0.553700 0.918110 0.173380 -0.465750
O15   O     O_R   0.946300 0.418110 0.826620 -0.457364
O16   O     O_R   0.053700 0.418110 0.173380 -0.460474
C5    C     C_R   0.437974 0.814622 0.861472 0.544900
C6    C     C_R   0.527087 0.818965 0.147379 0.600206
C7    C     C_R   0.936696 0.315111 0.861269 0.547634
C8    C     C_R   0.027388 0.319029 0.147067 0.594041
O17   O     O_R   0.457110 0.716200 0.831760 -0.423845
O18   O     O_R   0.542890 0.716200 0.168240 -0.466002
O19   O     O_R   0.957110 0.216200 0.831760 -0.415715
O20   O     O_R   0.042890 0.216200 0.168240 -0.464083
O21   O     O_R   0.320980 0.624310 0.823030 -0.474381
O22   O     O_R   0.679020 0.624310 0.176970 -0.443348
O23   O     O_R   0.820980 0.124310 0.823030 -0.466578
O24   O     O_R   0.179020 0.124310 0.176970 -0.440969
C9    C     C_R   0.257967 0.634109 0.848851 0.569409
C10   C     C_R   0.739828 0.643393 0.147501 0.593910
C11   C     C_R   0.758222 0.136053 0.849555 0.573171
C12   C     C_R   0.239686 0.142010 0.147895 0.582289
O25   O     O_R   0.213890 0.710430 0.665540 -0.472363
O26   O     O_R   0.786110 0.710430 0.334460 -0.487242
O27   O     O_R   0.713890 0.210430 0.665540 -0.498919
O28   O     O_R   0.286110 0.210430 0.334460 -0.480838
O29   O     O_R   0.235810 0.959820 0.673020 -0.517819
O30   O     O_R   0.764190 0.959820 0.326980 -0.499272
O31   O     O_R   0.735810 0.459820 0.673020 -0.508115
O32   O     O_R   0.264190 0.459820 0.326980 -0.521524
C13   C     C_R   0.273089 0.038972 0.642668 0.551478
C14   C     C_R   0.711105 0.003668 0.362829 0.537537
C15   C     C_R   0.787668 0.505701 0.636504 0.550794
C16   C     C_R   0.226150 0.540310 0.356394 0.579949
O33   O     O_R   0.331700 0.076900 0.669350 -0.501149
O34   O     O_R   0.668300 0.076900 0.330650 -0.464308
O35   O     O_R   0.831700 0.576900 0.669350 -0.479783
O36   O     O_R   0.168300 0.576900 0.330650 -0.494885
O37   O     O_R   0.445950 0.919440 0.676520 -0.477020
O38   O     O_R   0.554050 0.919440 0.323480 -0.511363
O39   O     O_R   0.945950 0.419440 0.676520 -0.502788
O40   O     O_R   0.054050 0.419440 0.323480 -0.490062
C17   C     C_R   0.468307 0.824082 0.647305 0.555888
C18   C     C_R   0.557675 0.819834 0.360319 0.516331
C19   C     C_R   0.970508 0.322412 0.647464 0.575852
C20   C     C_R   0.029523 0.322081 0.352657 0.568574
O41   O     O_R   0.456730 0.717630 0.669840 -0.442466
O42   O     O_R   0.543270 0.717630 0.330160 -0.450286
O43   O     O_R   0.956730 0.217630 0.669840 -0.500912
O44   O     O_R   0.043270 0.217630 0.330160 -0.508013
O45   O     O_R   0.320620 0.625640 0.672920 -0.454022
O46   O     O_R   0.679380 0.625640 0.327080 -0.467912
O47   O     O_R   0.820620 0.125640 0.672920 -0.442466
O48   O     O_R   0.179380 0.125640 0.327080 -0.447678
C21   C     C_R   0.260897 0.635523 0.645099 0.580183
C22   C     C_R   0.743804 0.625433 0.348740 0.568158
C23   C     C_R   0.756932 0.130641 0.648557 0.585208
C24   C     C_R   0.242579 0.132472 0.353068 0.592663
Cr1   Cr    Cr6+3 0.229630 0.835900 0.747350 1.132126
Cr2   Cr    Cr6+3 0.770370 0.835900 0.252650 1.146493
Cr3   Cr    Cr6+3 0.729630 0.335900 0.747350 1.132195
Cr4   Cr    Cr6+3 0.270370 0.335900 0.252650 1.146686
Cr5   Cr    Cr6+3 0.387410 0.989850 0.750850 1.122587
Cr6   Cr    Cr6+3 0.612590 0.989850 0.249150 1.116257
Cr7   Cr    Cr6+3 0.887410 0.489850 0.750850 1.112035
Cr8   Cr    Cr6+3 0.112590 0.489850 0.249150 1.133021
Cr9   Cr    Cr6+3 0.385800 0.677120 0.749340 1.187840
Cr10  Cr    Cr6+3 0.614200 0.677120 0.250660 1.179954
Cr11  Cr    Cr6+3 0.885800 0.177120 0.749340 1.176718
Cr12  Cr    Cr6+3 0.114200 0.177120 0.250660 1.176471
O49   O     O_3   0.334280 0.834290 0.749180 -0.367114
O50   O     O_3   0.665720 0.834290 0.250820 -0.385846
O51   O     O_3   0.834280 0.334290 0.749180 -0.376156
O52   O     O_3   0.165720 0.334290 0.250820 -0.364233
C25   C     C_3   0.453174 0.907440 0.038197 0.152710
C26   C     C_3   0.503066 0.897878 0.975305 0.155299
C27   C     C_3   0.953415 0.410903 0.039593 0.155191
C28   C     C_3   0.001252 0.399278 0.975479 0.160191
C29   C     C_3   0.404498 0.814614 0.003753 -0.123229
C30   C     C_3   0.543676 0.800082 0.012094 -0.074899
C31   C     C_3   0.902039 0.321085 0.005840 -0.132381
C32   C     C_3   0.040970 0.298782 0.010814 -0.065659
C33   C     C_3   0.454720 0.808282 0.939258 -0.064567
C34   C     C_3   0.494728 0.812130 0.075836 0.002832
C35   C     C_3   0.950660 0.312055 0.939916 -0.082238
C36   C     C_3   0.994009 0.313327 0.075816 0.008548
C37   C     C_3   0.495187 0.707685 0.978127 0.199721
C38   C     C_3   0.446714 0.716617 0.042186 0.192102
C39   C     C_3   0.989824 0.209562 0.977884 0.200943
C40   C     C_3   0.943280 0.221036 0.043223 0.192023
C41   C     C_R   0.269117 0.486658 0.947470 0.192378
C42   C     C_R   0.707464 0.543278 0.037054 0.115806
C43   C     C_R   0.770062 0.996222 0.950469 0.190563
C44   C     C_R   0.202242 0.049110 0.035662 0.105642
C45   C     C_R   0.258613 0.463297 0.019497 -0.101404
C46   C     C_R   0.707592 0.545594 0.963563 -0.141034
C47   C     C_R   0.763398 0.979845 0.023346 -0.110406
C48   C     C_R   0.204915 0.053665 0.962099 -0.128191
H1    H     H_    0.269558 0.378774 0.041257 0.152265
H2    H     H_    0.665137 0.511626 0.933191 0.262019
H3    H     H_    0.776868 0.897719 0.047130 0.171042
H4    H     H_    0.160653 0.030772 0.930300 0.265678
C49   C     C_R   0.223006 0.541433 0.062619 -0.032804
C50   C     C_R   0.766479 0.580371 0.928248 -0.020371
C51   C     C_R   0.727175 0.058931 0.065235 -0.042654
C52   C     C_R   0.265692 0.081347 0.928235 -0.025472
C53   C     C_R   0.182393 0.630705 0.028584 -0.068080
C54   C     C_R   0.823112 0.634534 0.967582 -0.020208
C55   C     C_R   0.680188 0.139464 0.029918 -0.062438
C56   C     C_R   0.322067 0.133575 0.968312 -0.032885
C57   C     C_R   0.183472 0.643043 0.954976 0.215259
C58   C     C_R   0.814358 0.665023 0.038502 0.164370
C59   C     C_R   0.683373 0.152817 0.956064 0.197242
C60   C     C_R   0.313525 0.162158 0.039497 0.168293
C61   C     C_R   0.235690 0.582817 0.916361 0.003373
C62   C     C_R   0.756452 0.610923 0.074890 -0.012772
C63   C     C_R   0.736516 0.091068 0.918539 0.001847
C64   C     C_R   0.254427 0.109324 0.075198 -0.016278
C65   C     C_R   0.565872 0.804198 0.562337 0.028490
C66   C     C_R   0.586683 0.802222 0.490670 -0.010741
C67   C     C_R   0.007281 0.218269 0.537209 0.019879
C68   C     C_R   0.994181 0.217515 0.463662 0.007524
C69   C     C_R   0.538186 0.828832 0.435280 0.027708
C70   C     C_R   0.497314 0.837437 0.577071 0.101976
C71   C     C_R   0.000107 0.324163 0.425090 0.043297
C72   C     C_R   0.999653 0.324929 0.575096 0.058281
C73   C     C_R   0.470984 0.864490 0.451787 -0.099153
C74   C     C_R   0.451112 0.870927 0.522194 -0.090078
C75   C     C_R   0.998529 0.429294 0.463035 -0.153371
C76   C     C_R   0.999294 0.429644 0.536709 -0.139173
H5    H     H_    0.433392 0.884234 0.410010 0.185324
H6    H     H_    0.397945 0.895234 0.533791 0.117784
H7    H     H_    0.995095 0.511382 0.435802 0.182719
H8    H     H_    0.002739 0.511697 0.563998 0.183968
C77   C     C_R   0.187690 0.576974 0.548013 0.162635
C78   C     C_R   0.828728 0.570765 0.441210 0.168683
C79   C     C_R   0.670049 0.077786 0.556049 0.142337
C80   C     C_R   0.317429 0.117852 0.459430 0.152396
C81   C     C_R   0.181113 0.594712 0.475444 -0.071394
C82   C     C_R   0.833616 0.572562 0.516003 -0.082442
C83   C     C_R   0.662044 0.066505 0.482112 -0.074974
C84   C     C_R   0.305693 0.137097 0.531307 -0.073508
C85   C     C_R   0.239389 0.568211 0.431263 -0.002217
C86   C     C_R   0.778357 0.521059 0.556910 -0.034898
C87   C     C_R   0.719128 0.020190 0.441594 -0.019683
C88   C     C_R   0.257436 0.064062 0.566626 -0.034491
C89   C     C_R   0.305790 0.543782 0.462129 -0.074191
C90   C     C_R   0.719010 0.471913 0.519032 -0.104989
C91   C     C_R   0.779366 0.975964 0.479866 -0.093747
C92   C     C_R   0.210133 0.992093 0.524745 -0.089589
C93   C     C_R   0.313645 0.553074 0.535862 0.140785
C94   C     C_R   0.714779 0.480654 0.444194 0.158977
C95   C     C_R   0.785142 0.993108 0.553517 0.162825
C96   C     C_R   0.212275 0.999554 0.450179 0.173656
C97   C     C_R   0.253820 0.576011 0.577580 -0.007767
C98   C     C_R   0.764315 0.548331 0.408919 0.026083
C99   C     C_R   0.735757 0.059844 0.587279 0.011730
C100  C     C_R   0.261641 0.071547 0.418854 0.018830
C101  C     C_3   0.325996 0.816027 0.998089 -0.342569
H9    H     H_    0.309179 0.859440 0.948170 0.110025
H10   H     H_    0.308467 0.723653 0.997049 0.149467
H11   H     H_    0.302992 0.859863 0.044621 0.206517
C102  C     C_3   0.621962 0.798141 0.018122 -0.338608
H12   H     H_    0.639345 0.884894 0.038082 0.113992
H13   H     H_    0.636644 0.731017 0.057666 0.133900
H14   H     H_    0.645395 0.779529 0.965920 0.215706
C103  C     C_3   0.823802 0.323370 0.003259 -0.344046
H15   H     H_    0.805328 0.362289 0.952672 0.098560
H16   H     H_    0.805896 0.231461 0.005465 0.152854
H17   H     H_    0.803577 0.370523 0.049880 0.221305
C104  C     C_3   0.118899 0.296130 0.014119 -0.341718
H18   H     H_    0.135321 0.385832 0.027845 0.128373
H19   H     H_    0.135550 0.237617 0.057654 0.127963
H20   H     H_    0.140565 0.270408 0.962207 0.201285
N1    N     N_R   0.128572 0.566479 0.593842 0.062040
O53   O     O_R   0.091018 0.658738 0.608195 -0.360066
O54   O     O_R   0.125975 0.476414 0.636882 -0.322013
N2    N     N_R   0.886925 0.594602 0.395661 0.061009
O55   O     O_R   0.917793 0.697273 0.395517 -0.368025
O56   O     O_R   0.896490 0.524985 0.341680 -0.287426
N3    N     N_R   0.611421 0.102327 0.601124 0.077819
O57   O     O_R   0.571120 0.192653 0.589289 -0.338588
O58   O     O_R   0.604145 0.043311 0.659995 -0.297709
N4    N     N_R   0.383353 0.146706 0.426739 0.079161
O59   O     O_R   0.431217 0.207897 0.460007 -0.357199
O60   O     O_R   0.400230 0.095088 0.367717 -0.300823
C105  C     C_3   0.113267 0.644673 0.447137 -0.319570
H21   H     H_    0.088044 0.580162 0.412694 0.172757
H22   H     H_    0.074956 0.670390 0.487013 0.162764
H23   H     H_    0.123382 0.723701 0.415204 0.237983
C106  C     C_3   0.891229 0.645825 0.550096 -0.334448
H24   H     H_    0.917222 0.600821 0.594381 0.179656
H25   H     H_    0.933732 0.671849 0.514818 0.167061
H26   H     H_    0.868094 0.726661 0.571129 0.217915
C107  C     C_3   0.591868 0.106020 0.451842 -0.258933
H27   H     H_    0.576969 0.075995 0.399018 0.194465
H28   H     H_    0.549043 0.070178 0.484300 0.189543
H29   H     H_    0.589419 0.203989 0.452041 0.217261
C108  C     C_3   0.338420 0.242645 0.567264 -0.253225
H30   H     H_    0.391788 0.221723 0.586995 0.239948
H31   H     H_    0.340604 0.316526 0.528729 0.170235
H32   H     H_    0.306093 0.273814 0.611871 0.166251
C109  C     C_3   0.367698 0.508001 0.416971 -0.286235
H33   H     H_    0.418713 0.505326 0.444391 0.221079
H34   H     H_    0.360685 0.415845 0.398056 0.190164
H35   H     H_    0.373317 0.570028 0.371567 0.165559
C110  C     C_3   0.657475 0.418739 0.556646 -0.292861
H36   H     H_    0.613426 0.392072 0.521862 0.210368
H37   H     H_    0.674346 0.337362 0.582232 0.202028
H38   H     H_    0.635718 0.481534 0.595361 0.168464
C111  C     C_3   0.833162 0.898857 0.446168 -0.313621
H39   H     H_    0.877030 0.873424 0.481107 0.180056
H40   H     H_    0.807013 0.815697 0.433381 0.175163
H41   H     H_    0.858288 0.941427 0.400313 0.184840
C112  C     C_3   0.162884 0.899750 0.556264 -0.311864
H42   H     H_    0.119745 0.871600 0.520743 0.173960
H43   H     H_    0.194788 0.821026 0.565245 0.177054
H44   H     H_    0.136810 0.930774 0.604763 0.172760
N5    N     N_R   0.382194 0.540991 0.567602 0.086979
O61   O     O_R   0.394354 0.463363 0.617335 -0.312788
O62   O     O_R   0.432833 0.608969 0.547300 -0.350424
N6    N     N_R   0.657629 0.429999 0.404083 0.067132
O63   O     O_R   0.670683 0.356439 0.352991 -0.272969
O64   O     O_R   0.595712 0.475869 0.407599 -0.322356
N7    N     N_R   0.836893 0.934477 0.596702 0.052016
O65   O     O_R   0.817389 0.875391 0.652477 -0.305898
O66   O     O_R   0.902156 0.962880 0.591139 -0.384790
N8    N     N_R   0.169157 0.927368 0.404639 0.053689
O67   O     O_R   0.197624 0.870189 0.352684 -0.311516
O68   O     O_R   0.102152 0.942492 0.403158 -0.383718
N9    N     N_R   0.430518 0.002851 0.082430 0.075256
O69   O     O_R   0.477287 0.079484 0.100925 -0.294209
O70   O     O_R   0.381377 0.980167 0.127285 -0.306073
N10   N     N_R   0.538701 0.988331 0.937672 0.084606
O71   O     O_R   0.534431 0.094067 0.961595 -0.373704
O72   O     O_R   0.582458 0.961608 0.888216 -0.260435
N11   N     N_R   0.935928 0.509526 0.084119 0.079594
O73   O     O_R   0.985669 0.583269 0.099733 -0.266772
O74   O     O_R   0.888032 0.491998 0.131134 -0.287068
N12   N     N_R   0.037347 0.492679 0.940755 0.079763
O75   O     O_R   0.042347 0.591558 0.974523 -0.348528
O76   O     O_R   0.079398 0.467950 0.889413 -0.270228
N13   N     N_R   0.519092 0.600125 0.943955 0.134968
O77   O     O_R   0.490700 0.498727 0.958656 -0.157315
O78   O     O_R   0.562621 0.607496 0.891966 -0.304111
N14   N     N_R   0.416714 0.621215 0.084073 0.117550
O79   O     O_R   0.454959 0.530539 0.100746 -0.170748
O80   O     O_R   0.363000 0.644005 0.122771 -0.316391
N15   N     N_R   0.007329 0.100014 0.942057 0.150178
O81   O     O_R   0.969662 0.005867 0.951562 -0.168657
O82   O     O_R   0.053682 0.100441 0.892554 -0.302435
N16   N     N_R   0.913380 0.127511 0.086604 0.105403
O83   O     O_R   0.949265 0.032200 0.098462 -0.166084
O84   O     O_R   0.865469 0.155615 0.131443 -0.314904
N17   N     N_R   0.306285 0.406063 0.904246 0.079695
O85   O     O_R   0.371349 0.427794 0.891317 -0.246379
O86   O     O_R   0.271199 0.337439 0.861187 -0.333081
N18   N     N_R   0.659389 0.469857 0.073994 0.080314
O87   O     O_R   0.593209 0.474695 0.059290 -0.234577
O88   O     O_R   0.680804 0.414623 0.130952 -0.326194
N19   N     N_R   0.798395 0.905584 0.907085 0.086802
O89   O     O_R   0.860498 0.919055 0.882005 -0.242600
O90   O     O_R   0.755525 0.833504 0.874753 -0.326805
N20   N     N_R   0.142321 0.996269 0.068665 0.073489
O91   O     O_R   0.082814 0.993137 0.035645 -0.240586
O92   O     O_R   0.147528 0.940555 0.128923 -0.318808
C113  C     C_3   0.139064 0.715684 0.069648 -0.209080
H45   H     H_    0.094970 0.671100 0.094710 0.238611
H46   H     H_    0.174998 0.754451 0.109550 0.207393
H47   H     H_    0.113347 0.785100 0.038931 0.252329
C114  C     C_3   0.896042 0.650224 0.938579 -0.193043
H48   H     H_    0.914721 0.563945 0.920440 0.149103
H49   H     H_    0.897718 0.715940 0.895119 0.241805
H50   H     H_    0.935145 0.677849 0.978158 0.248557
C115  C     C_3   0.617461 0.190001 0.066974 -0.180840
H51   H     H_    0.587781 0.111971 0.081960 0.208036
H52   H     H_    0.630652 0.239589 0.115006 0.230092
H53   H     H_    0.580364 0.245730 0.037523 0.260014
C116  C     C_3   0.394327 0.151394 0.939143 -0.189529
H54   H     H_    0.413675 0.065004 0.921598 0.160372
H55   H     H_    0.395210 0.216455 0.895294 0.243118
H56   H     H_    0.432584 0.182189 0.978574 0.249193
N21   N     N_R   0.135572 0.725585 0.921235 0.145877
O93   O     O_R   0.093642 0.693193 0.869534 -0.177898
O94   O     O_R   0.148991 0.836780 0.926917 -0.358056
N22   N     N_R   0.864020 0.751259 0.069789 0.082966
O95   O     O_R   0.897806 0.732865 0.129208 -0.158050
O96   O     O_R   0.886987 0.838401 0.031252 -0.274776
N23   N     N_R   0.631884 0.226738 0.919412 0.141530
O97   O     O_R   0.596731 0.189690 0.863681 -0.169837
O98   O     O_R   0.620841 0.333553 0.940113 -0.322012
N24   N     N_R   0.362997 0.249501 0.071031 0.087338
O99   O     O_R   0.396960 0.232469 0.130507 -0.162075
O100  O     O_R   0.384230 0.339164 0.033517 -0.277264
C117  C     C_3   0.616564 0.771207 0.621938 -0.313711
H57   H     H_    0.593359 0.773178 0.675410 0.182880
H58   H     H_    0.636731 0.680969 0.613387 0.138078
H59   H     H_    0.660999 0.834183 0.623289 0.173475
C118  C     C_3   0.657991 0.760057 0.473546 -0.388768
H60   H     H_    0.654529 0.663852 0.474622 0.177039
H61   H     H_    0.674952 0.790612 0.420909 0.098396
H62   H     H_    0.697986 0.789159 0.512785 0.125031
C119  C     C_3   0.043182 0.113297 0.570834 -0.343229
H63   H     H_    0.091583 0.143409 0.598594 0.140568
H64   H     H_    0.010667 0.065118 0.608953 0.225366
H65   H     H_    0.058300 0.049587 0.529447 0.151728
C120  C     C_3   0.962315 0.108709 0.430009 -0.344792
H66   H     H_    0.916667 0.134285 0.396462 0.151632
H67   H     H_    0.999463 0.059869 0.397434 0.228246
H68   H     H_    0.943705 0.047525 0.471449 0.161586

loop_
_geom_bond_atom_site_label_1
_geom_bond_atom_site_label_2
_geom_bond_distance
_ccdc_geom_bond_type
C35   C39   1.551455 S    
O4    C12   1.245411 A    
C93   N5    1.443223 S    
O39   C19   1.319516 A    
C105  H22   1.100127 S    
C74   H6    1.084404 S    
C46   C50   1.376496 A    
Cr7   O51   2.029101 S    
N23   O98   1.289443 A    
C113  H47   1.089410 S    
C24   C100  1.457857 S    
C82   C86   1.441322 A    
O25   C21   1.304107 A    
C31   C35   1.568853 S    
C108  H32   1.111245 S    
C75   C76   1.386187 A    
O21   C9    1.316691 A    
C36   C40   1.544673 S    
C111  H41   1.104214 S    
C42   C62   1.396033 A    
C1    O9    1.250989 A    
O44   Cr12  2.092860 S    
N12   O76   1.301185 A    
C3    O11   1.248756 A    
C96   N8    1.434517 S    
C80   C84   1.392574 A    
N18   O87   1.297353 A    
C37   N13   1.456643 S    
N8    O68   1.298608 A    
C79   C83   1.403137 A    
C27   C36   1.509223 S    
C43   N19   1.427040 S    
C73   H5    1.082016 S    
O2    C10   1.236808 A    
C101  H10   1.095968 S    
N9    O69   1.288880 A    
O17   Cr9   2.097664 S    
C13   C88   1.484339 S    
N10   O72   1.301226 A    
C81   C105  1.510966 S    
C108  H31   1.106403 S    
C93   C97   1.427311 A    
C60   N24   1.484459 S    
C89   C109  1.529353 S    
O16   Cr8   1.977385 S    
N11   O73   1.295122 A    
C48   C52   1.373578 A    
C95   C99   1.378951 A    
C103  H15   1.101982 S    
O13   C5    1.350615 A    
O28   Cr4   2.110773 S    
O12   Cr8   2.096556 S    
O22   Cr10  1.974099 S    
C119  H65   1.105202 S    
O15   C7    1.347207 A    
C112  H42   1.101668 S    
O46   Cr10  1.979113 S    
C5    C33   1.494994 S    
N23   O97   1.306032 A    
O48   C24   1.302656 A    
N24   O99   1.300326 A    
C117  H57   1.107593 S    
N14   O80   1.299647 A    
N17   O86   1.300417 A    
N22   O95   1.300148 A    
N15   O82   1.299160 A    
C8    C36   1.477658 S    
C77   N1    1.441391 S    
C32   C104  1.497038 S    
Cr12  O52   2.029706 S    
C104  H20   1.108047 S    
O7    Cr3   1.992460 S    
C17   O41   1.294999 A    
C51   C55   1.439075 A    
C116  H56   1.091515 S    
C19   O43   1.284579 A    
C20   O44   1.285543 A    
Cr8   O52   2.037873 S    
C78   C98   1.391178 A    
C19   C72   1.481143 S    
C29   C101  1.509487 S    
C25   N9    1.437411 S    
C59   C63   1.435480 A    
N3    O57   1.301188 A    
N21   O93   1.304115 A    
C57   C61   1.424883 A    
C16   O36   1.274969 A    
C114  H49   1.104805 S    
C120  H66   1.110696 S    
C58   C62   1.448026 A    
N4    O60   1.302110 A    
C91   C111  1.504138 S    
O31   C15   1.322690 A    
C89   C93   1.397174 A    
O32   C16   1.300146 A    
O47   Cr11  1.976879 S    
C6    C34   1.475153 S    
C107  H29   1.109104 S    
C104  H18   1.090881 S    
O46   C22   1.295923 A    
O5    C1    1.320773 A    
C110  H36   1.101918 S    
C77   C97   1.377814 A    
O24   C12   1.309628 A    
C112  H44   1.106740 S    
C12   C64   1.450492 S    
C80   C100  1.404575 A    
C104  H19   1.096627 S    
O8    Cr4   1.989903 S    
C79   C99   1.398405 A    
N6    O63   1.300793 A    
C47   C51   1.389994 A    
N13   O77   1.298537 A    
C50   C54   1.439870 A    
N1    O54   1.301424 A    
C77   C81   1.383612 A    
C2    C51   1.482823 S    
C71   C75   1.388562 A    
O11   Cr7   2.103892 S    
C38   N14   1.457081 S    
C102  H13   1.096563 S    
O27   Cr3   2.112309 S    
O3    Cr3   2.102960 S    
N5    O61   1.301058 A    
C46   H2    1.058605 S    
C95   N7    1.436967 S    
Cr5   O49   2.029101 S    
C101  H9    1.103357 S    
N21   O94   1.286537 A    
C53   C113  1.498332 S    
C107  H27   1.084309 S    
C117  H58   1.106233 S    
C94   N6    1.438496 S    
O22   C10   1.317674 A    
C83   C87   1.446505 A    
C4    O12   1.284625 A    
C84   C88   1.411939 A    
C2    O10   1.258021 A    
C27   C28   1.534812 S    
C31   C103  1.502592 S    
C109  H33   1.099952 S    
C4    C49   1.486845 S    
N2    O56   1.302220 A    
C53   C57   1.392349 A    
C116  H54   1.100129 S    
C55   C59   1.399972 A    
C90   C110  1.509368 S    
O3    C11   1.248753 A    
O8    C4    1.334408 A    
C120  H68   1.104299 S    
C115  H51   1.087381 S    
C68   C120  1.507110 S    
N7    O66   1.297989 A    
C21   C97   1.442835 S    
Cr1   O49   2.009329 S    
N16   O84   1.299726 A    
Cr3   O51   2.009329 S    
C94   C98   1.393992 A    
C23   C99   1.456015 S    
C29   C33   1.564731 S    
C48   H4    1.062344 S    
O26   Cr2   2.110773 S    
C5    O17   1.303652 A    
O27   C23   1.271476 A    
O28   C24   1.264836 A    
O14   C6    1.321063 A    
C43   C47   1.391407 A    
C8    O20   1.263857 A    
N14   O79   1.299158 A    
C113  H46   1.101216 S    
O40   Cr8   1.973306 S    
C25   C34   1.512229 S    
C11   C63   1.459922 S    
O41   Cr9   2.088726 S    
C32   C36   1.541312 S    
C111  H40   1.089174 S    
O33   Cr5   2.101254 S    
C87   C91   1.443316 A    
O5    Cr1   1.992460 S    
O35   Cr7   2.101254 S    
C44   C64   1.410998 A    
C82   C106  1.513401 S    
O29   Cr1   1.982726 S    
N18   O88   1.301277 A    
C84   C108  1.502732 S    
C1    C52   1.474829 S    
N20   O91   1.291756 A    
C106  H26   1.095831 S    
C3    C50   1.470959 S    
Cr9   O49   2.038384 S    
C28   C35   1.528110 S    
N3    O58   1.301467 A    
C28   N12   1.424212 S    
C18   O42   1.314564 A    
Cr11  O51   2.038384 S    
O26   C22   1.286293 A    
C37   C38   1.539073 S    
O20   Cr12  2.099432 S    
N7    O65   1.302500 A    
C66   C69   1.418825 A    
C45   C49   1.390632 A    
C67   C68   1.402472 A    
C27   N11   1.440481 S    
C108  H30   1.110509 S    
C109  H35   1.110793 S    
C88   C92   1.441894 A    
C54   C114  1.520965 S    
C110  H38   1.106567 S    
O38   C18   1.323078 A    
C101  H11   1.106472 S    
C30   C34   1.542878 S    
C115  H53   1.096191 S    
O30   C14   1.330159 A    
C79   N3    1.449095 S    
C119  H64   1.100668 S    
C41   C45   1.398168 A    
C90   C94   1.412531 A    
C26   N10   1.422218 S    
N24   O100  1.302163 A    
O6    Cr2   1.989903 S    
C26   C33   1.523175 S    
C56   C60   1.391067 A    
C103  H16   1.094006 S    
O42   Cr10  2.092860 S    
C65   C70   1.403109 A    
O18   Cr10  2.099432 S    
N17   O85   1.298968 A    
O31   Cr3   1.982726 S    
C68   C71   1.411578 A    
O34   Cr6   2.098702 S    
C65   C117  1.519809 S    
N22   O96   1.302035 A    
C26   C30   1.515944 S    
C41   N17   1.424857 S    
C67   C72   1.411633 A    
O24   Cr12  1.974099 S    
O30   Cr2   1.986984 S    
O1    C9    1.256051 A    
O48   Cr12  1.979113 S    
C70   C74   1.402822 A    
O37   C17   1.289947 A    
C67   C119  1.508495 S    
C15   O35   1.312383 A    
Cr10  O50   2.029706 S    
C44   C48   1.386925 A    
O43   Cr11  2.088726 S    
C92   C112  1.507239 S    
C30   C102  1.505840 S    
O7    C3    1.320506 A    
O21   Cr9   1.968859 S    
C114  H48   1.098106 S    
O39   Cr7   1.979805 S    
O45   Cr9   1.976879 S    
C92   C96   1.406786 A    
O13   Cr5   1.980020 S    
N8    O67   1.302458 A    
O29   C13   1.282697 A    
O15   Cr7   1.980020 S    
C66   C118  1.492607 S    
N9    O70   1.300870 A    
C65   C66   1.413232 A    
O23   C11   1.319480 A    
C85   C89   1.420304 A    
N10   O71   1.281836 A    
C103  H17   1.104502 S    
C9    C61   1.465081 S    
C69   C73   1.394028 A    
C72   C76   1.385982 A    
C29   C38   1.547456 S    
O6    C2    1.324658 A    
C16   C85   1.462066 S    
O1    Cr1   2.102960 S    
O19   Cr11  2.097664 S    
C22   C98   1.477371 S    
C112  H43   1.094442 S    
C34   C38   1.546021 S    
C118  H60   1.089766 S    
O45   C21   1.257962 A    
C14   C87   1.499440 S    
C83   C107  1.522874 S    
N6    O64   1.302261 A    
O47   C23   1.300220 A    
C81   C85   1.438307 A    
N1    O53   1.302487 A    
C55   C115  1.516622 S    
C118  H61   1.102310 S    
O40   C20   1.317856 A    
C96   C100  1.384980 A    
C116  H55   1.104816 S    
C102  H12   1.099367 S    
C6    O18   1.262754 A    
C32   C39   1.529077 S    
C39   C40   1.538188 S    
C25   C26   1.539389 S    
O36   Cr8   2.098702 S    
O38   Cr6   1.973306 S    
C7    C35   1.499924 S    
C42   N18   1.427104 S    
C105  H21   1.083654 S    
O37   Cr5   1.979805 S    
C28   C32   1.517959 S    
C76   H8    1.062490 S    
O23   Cr11  1.968859 S    
C106  H24   1.090677 S    
C75   H7    1.061346 S    
N12   O75   1.289390 A    
N19   O90   1.300084 A    
C40   N16   1.456437 S    
C114  H50   1.093452 S    
C59   N23   1.461231 S    
N11   O74   1.301062 A    
C58   N22   1.476691 S    
C57   N21   1.451616 S    
O32   Cr4   1.986984 S    
C49   C53   1.423466 A    
C107  H28   1.107352 S    
O16   C8    1.320436 A    
C30   C37   1.529569 S    
C120  H67   1.099736 S    
N4    O59   1.300419 A    
C13   O33   1.295927 A    
Cr4   O52   2.009148 S    
O2    Cr2   2.108534 S    
C45   H1    1.059784 S    
Cr6   O50   2.037873 S    
C25   C29   1.538688 S    
C44   N20   1.443075 S    
C60   C64   1.453778 A    
O9    Cr5   2.103892 S    
C43   C63   1.384881 A    
C118  H62   1.105655 S    
C41   C61   1.388947 A    
C113  H45   1.096257 S    
C27   C31   1.542472 S    
N13   O78   1.299694 A    
C54   C58   1.392050 A    
C91   C95   1.402189 A    
C102  H14   1.108261 S    
C111  H39   1.098914 S    
C80   N4    1.452126 S    
Cr2   O50   2.009148 S    
N5    O62   1.298586 A    
C18   C69   1.469272 S    
O14   Cr6   1.977385 S    
N19   O89   1.297999 A    
C7    O19   1.314133 A    
C105  H23   1.094414 S    
N20   O92   1.298817 A    
C56   C116  1.513112 S    
C31   C40   1.545759 S    
C42   C46   1.383130 A    
C117  H59   1.108609 S    
O25   Cr1   2.112309 S    
C109  H34   1.108634 S    
C14   O34   1.310083 A    
N2    O55   1.300925 A    
N15   O81   1.297879 A    
C110  H37   1.086167 S    
C73   C74   1.387014 A    
C115  H52   1.090003 S    
C17   C70   1.450159 S    
O10   Cr6   2.096556 S    
C119  H63   1.110683 S    
O4    Cr4   2.108534 S    
N16   O83   1.299098 A    
C86   C90   1.443290 A    
C20   C71   1.484431 S    
C78   N2    1.443784 S    
C10   C62   1.456440 S    
C78   C82   1.409107 A    
C39   N15   1.454918 S    
C47   H3    1.061484 S    
C106  H25   1.099331 S    
C33   C37   1.555515 S    
C52   C56   1.434184 A    
C15   C86   1.515151 S    
