data_mof_unit_7184.cif
_audit_creation_date              2013-03-05T15:47:14-0500
_audit_creation_method            fapswitch 2.2
_symmetry_space_group_name_H-M    P1
_symmetry_Int_Tables_number       1
_space_group_crystal_system       triclinic
_cell_length_a                    27.784404
_cell_length_b                    11.026592
_cell_length_c                    9.944245
_cell_angle_alpha                 111.251955
_cell_angle_beta                  97.873488
_cell_angle_gamma                 93.104804
_cell_volume                      2794.80235635

loop_
_atom_site_label
_atom_site_type_symbol
_atom_site_description
_atom_site_fract_x
_atom_site_fract_y
_atom_site_fract_z
_atom_type_partial_charge
O1    O     O_R   0.504520 0.332330 0.577400 -0.571823
O2    O     O_R   0.495480 0.667670 0.422600 -0.572203
O3    O     O_R   0.490210 0.295500 0.332650 -0.569346
O4    O     O_R   0.509790 0.704500 0.667350 -0.544527
C1    C     C_R   0.496751 0.254103 0.439850 0.819368
C2    C     C_R   0.504370 0.746027 0.559857 0.817779
O5    O     O_R   0.437420 0.518430 0.622370 -0.553999
O6    O     O_R   0.562580 0.481570 0.377630 -0.535068
O7    O     O_R   0.423110 0.481600 0.377610 -0.525898
O8    O     O_R   0.576890 0.518400 0.622390 -0.553650
C3    C     C_R   0.407796 0.499710 0.500566 0.914890
C4    C     C_R   0.592338 0.501209 0.499147 0.885423
Cu1   Cu    Cu3+1 0.508480 0.521810 0.644910 1.142073
Cu2   Cu    Cu3+1 0.491520 0.478190 0.355090 1.131631
C5    C     C_R   0.171608 0.404917 0.420182 0.610954
C6    C     C_R   0.826118 0.622590 0.520147 0.616392
O9    O     O_2   0.190004 0.300076 0.331872 -0.459653
O10   O     O_2   0.803118 0.728121 0.523900 -0.452726
N1    N     N_R   0.202364 0.516805 0.501856 -0.447105
N2    N     N_R   0.799006 0.509014 0.503944 -0.448850
C7    C     C_R   0.184858 0.627386 0.587447 0.639435
C8    C     C_R   0.820669 0.398668 0.496050 0.632239
C9    C     C_R   0.280742 0.602629 0.456282 0.365784
C10   C     C_R   0.714119 0.419671 0.375516 0.360164
C11   C     C_R   0.331704 0.598927 0.460271 -0.023031
C12   C     C_R   0.663277 0.415857 0.377360 0.002321
C13   C     C_R   0.327558 0.411822 0.536673 0.272203
C14   C     C_R   0.678642 0.595296 0.617194 0.263959
C15   C     C_R   0.278161 0.423505 0.544121 -0.190401
C16   C     C_R   0.728787 0.591495 0.618328 -0.194063
C17   C     C_R   0.254240 0.515588 0.501676 0.144621
C18   C     C_R   0.746843 0.506686 0.498475 0.149390
C19   C     C_R   0.102621 0.514509 0.511432 -0.094617
C20   C     C_R   0.899833 0.513571 0.516361 -0.095193
C21   C     C_R   0.121210 0.399152 0.427927 -0.020584
C22   C     C_R   0.877551 0.629093 0.531942 -0.022096
C23   C     C_R   0.088762 0.283129 0.354203 0.162686
C24   C     C_R   0.907305 0.745678 0.555862 0.164862
C25   C     C_R   0.134529 0.629984 0.588651 -0.050476
C26   C     C_R   0.871038 0.397347 0.495998 -0.045523
C27   C     C_R   0.355055 0.503903 0.501068 -0.163661
C28   C     C_R   0.645423 0.504946 0.497447 -0.165591
H1    H     H_    0.257138 0.355282 0.575232 0.213991
H2    H     H_    0.754295 0.658682 0.711368 0.210340
C29   C     C_R   0.971982 0.394027 0.483143 0.064134
C30   C     C_R   0.032534 0.634421 0.582980 0.062538
C31   C     C_R   0.980877 0.633620 0.561402 0.045140
C32   C     C_R   0.021161 0.395023 0.459047 0.044940
C33   C     C_R   0.950979 0.513799 0.520683 0.016250
C34   C     C_R   0.052051 0.514661 0.518007 0.017185
C35   C     C_R   0.943009 0.279677 0.472624 0.132883
C36   C     C_R   0.065500 0.748380 0.667108 0.129110
C37   C     C_R   0.893147 0.282874 0.479291 -0.164636
C38   C     C_R   0.115824 0.744576 0.669061 -0.156900
O11   O     O_2   0.793461 0.290423 0.488377 -0.483712
O12   O     O_2   0.216128 0.734327 0.671874 -0.479253
C39   C     C_R   0.039690 0.282111 0.371593 -0.209025
C40   C     C_R   0.958138 0.746825 0.571356 -0.212841
H3    H     H_    0.871801 0.194328 0.470655 0.198347
H4    H     H_    0.140205 0.832661 0.734312 0.201958
H5    H     H_    0.015870 0.193013 0.308412 0.173659
H6    H     H_    0.979123 0.836302 0.582580 0.171658
H7    H     H_    0.493341 0.861136 0.371727 0.223632
H8    H     H_    0.526018 0.137450 0.617377 0.215693
C41   C     C_2   0.494130 0.113106 0.403757 -0.021353
C42   C     C_2   0.509795 0.887004 0.594202 -0.024051
C43   C     C_2   0.509451 0.069075 0.509236 -0.041823
C44   C     C_2   0.503681 0.930136 0.483956 -0.041942
N3    N     N_2   0.478780 0.445430 0.137360 -0.122831
N4    N     N_2   0.521220 0.554570 0.862640 -0.115409
C45   C     C_2   0.508810 0.501030 0.079023 0.381207
C46   C     C_2   0.501092 0.475774 0.917578 0.377598
N5    N     N_R   0.347833 0.299621 0.552537 0.177712
O13   O     O_R   0.330660 0.245270 0.635135 -0.244058
O14   O     O_R   0.376881 0.237728 0.465139 -0.335200
N6    N     N_R   0.662196 0.695680 0.734913 0.170280
O15   O     O_R   0.686203 0.732915 0.867751 -0.260741
O16   O     O_R   0.628802 0.765267 0.706255 -0.322686
N7    N     N_3   0.522199 0.976606 0.743734 -0.503802
H9    H     H_    0.555280 0.955056 0.789120 0.285707
H10   H     H_    0.495234 0.959644 0.800555 0.269665
N8    N     N_3   0.474100 0.024194 0.257791 -0.514559
H11   H     H_    0.438752 0.046086 0.231317 0.276809
H12   H     H_    0.495290 0.041500 0.186080 0.268475
N9    N     N_R   0.477298 0.349428 0.822950 0.111650
O17   O     O_R   0.490353 0.246741 0.847329 -0.365736
O18   O     O_R   0.434674 0.340834 0.746417 -0.238620
N10   N     N_R   0.555809 0.564944 0.161011 0.128989
O19   O     O_R   0.594933 0.521999 0.110396 -0.334469
O20   O     O_R   0.559446 0.682404 0.259734 -0.301563
N11   N     N_R   0.534301 0.684840 0.955604 0.244229
O21   O     O_R   0.573128 0.748212 0.942799 -0.223602
O22   O     O_R   0.502836 0.750773 0.030003 -0.352231
N12   N     N_R   0.430183 0.411121 0.068273 0.256951
O23   O     O_R   0.405690 0.309996 0.074524 -0.246769
O24   O     O_R   0.406419 0.493920 0.027288 -0.313680
N13   N     N_3   0.105109 0.164711 0.262669 -0.490417
H13   H     H_    0.084619 0.135893 0.157587 0.218338
H14   H     H_    0.097814 0.091829 0.303530 0.233323
N14   N     N_3   0.886594 0.864320 0.565766 -0.489723
H15   H     H_    0.901279 0.936619 0.667585 0.225560
H16   H     H_    0.897369 0.894116 0.484758 0.217706
N15   N     N_3   0.629421 0.321705 0.258412 -0.513915
H17   H     H_    0.635022 0.228124 0.256240 0.266582
H18   H     H_    0.636122 0.327872 0.160082 0.300041
N16   N     N_3   0.360070 0.687798 0.418128 -0.538711
H19   H     H_    0.344255 0.681051 0.313668 0.290211
H20   H     H_    0.359763 0.783067 0.492668 0.276714
N17   N     N_R   0.732500 0.339116 0.247936 0.143600
O25   O     O_R   0.718694 0.213892 0.188009 -0.291248
O26   O     O_R   0.765035 0.389904 0.195236 -0.312328
N18   N     N_R   0.255621 0.689253 0.399804 0.143939
O27   O     O_R   0.271528 0.813051 0.447094 -0.286126
O28   O     O_R   0.215559 0.645374 0.304354 -0.325442
N19   N     N_3   0.964504 0.163762 0.470282 -0.608037
H21   H     H_    0.958342 0.146046 0.563301 0.225701
H22   H     H_    0.946423 0.084899 0.378433 0.219995
N20   N     N_3   0.049023 0.864404 0.763062 -0.605329
H23   H     H_    0.065540 0.881709 0.870334 0.238463
H24   H     H_    0.061098 0.943269 0.736808 0.225774

loop_
_geom_bond_atom_site_label_1
_geom_bond_atom_site_label_2
_geom_bond_distance
_ccdc_geom_bond_type
C40   H6    1.079755 S    
O5    Cu1   1.953063 S    
C42   C44   1.338899 D    
C13   C15   1.394917 A    
N5    O13   1.301823 A    
N4    N11   1.392406 S    
N1    C17   1.442361 S    
C23   N13   1.433765 S    
N13   H13   1.045818 S    
C37   H3    1.083955 S    
C32   C39   1.406638 A    
C31   C33   1.414477 A    
C38   H4    1.083847 S    
N9    O17   1.300694 A    
C5    N1    1.371585 A    
C42   N7    1.436568 S    
C19   C25   1.406865 A    
O1    C1    1.305832 A    
N6    O16   1.301563 A    
N1    C7    1.368601 A    
C10   C12   1.413799 A    
N17   O26   1.301217 A    
C25   C38   1.399495 A    
N16   H19   1.045503 S    
C29   C35   1.421331 A    
N19   H21   1.045871 S    
C30   C36   1.421661 A    
C5    C21   1.412163 A    
O4    Cu1   1.942441 S    
N3    C45   1.320452 D    
N20   H23   1.045830 S    
C4    C28   1.475868 S    
C24   C40   1.398465 A    
C41   C43   1.336550 D    
O6    C4    1.306869 A    
C32   C34   1.414009 A    
Cu1   Cu2   2.712565 S    
C15   H1    1.083245 S    
N5    O14   1.301676 A    
C16   H2    1.083395 S    
O2    C2    1.303884 A    
N18   O28   1.301280 A    
N18   O27   1.300852 A    
N13   H14   1.045787 S    
C36   C38   1.398818 A    
C11   N16   1.435823 S    
C46   N9    1.429291 S    
N9    O18   1.295891 A    
C43   C44   1.455737 S    
H8    C43   1.084339 S    
N6    O15   1.301608 A    
C1    C41   1.458529 S    
N3    N12   1.392959 S    
C11   C27   1.411752 A    
N11   O21   1.299505 A    
N7    H10   1.045468 S    
N19   H22   1.045934 S    
C19   C34   1.415566 A    
C35   N19   1.433809 S    
C45   N10   1.434824 S    
C35   C37   1.397738 A    
C9    C17   1.412697 A    
O5    C3    1.309343 A    
O7    Cu2   1.944888 S    
C10   C18   1.411650 A    
C9    N18   1.438279 S    
C12   N15   1.435599 S    
N11   O22   1.302447 A    
C13   C27   1.410912 A    
C7    C25   1.401821 A    
C29   C33   1.417700 A    
C6    N2    1.371160 A    
C8    C26   1.400399 A    
N14   H16   1.045841 S    
N15   H18   1.045047 S    
N12   O24   1.302667 A    
O7    C3    1.300249 A    
O3    Cu2   1.942440 S    
O8    C4    1.306395 A    
O4    C2    1.301217 A    
N10   O20   1.299365 A    
C26   C37   1.399339 A    
N8    H12   1.045495 S    
Cu2   N3    2.037862 S    
C20   C26   1.407091 A    
O1    Cu1   1.940641 S    
C14   N6    1.437480 S    
C12   C28   1.414841 A    
N2    C18   1.441371 S    
C29   C32   1.419354 A    
C5    O9    1.349036 S    
C30   C34   1.417882 A    
C30   C31   1.420903 A    
C20   C33   1.415641 A    
O6    Cu2   1.953063 S    
C14   C28   1.414787 A    
C21   C23   1.414562 A    
C10   N17   1.438428 S    
N2    C8    1.368179 A    
O3    C1    1.298645 A    
O8    Cu1   1.944893 S    
C7    O12   1.349704 S    
C39   H5    1.079865 S    
C8    O11   1.349941 S    
H7    C44   1.086214 S    
C14   C16   1.394773 A    
C45   C46   1.508682 S    
C15   C17   1.399213 A    
N17   O25   1.300899 A    
C6    C22   1.413485 A    
C31   C40   1.407160 A    
C16   C18   1.397617 A    
C24   N14   1.433865 S    
C41   N8    1.437265 S    
N16   H20   1.044640 S    
C22   C24   1.414893 A    
N14   H15   1.045770 S    
C19   C21   1.413238 A    
C3    C27   1.469266 S    
C20   C22   1.413688 A    
C9    C11   1.414295 A    
N12   O23   1.300003 A    
O2    Cu2   1.940641 S    
N20   H24   1.045899 S    
N7    H9    1.045326 S    
C2    C42   1.459958 S    
N10   O19   1.300798 A    
C6    O10   1.348871 S    
N8    H11   1.045515 S    
Cu1   N4    2.037864 S    
N15   H17   1.044811 S    
N4    C46   1.319578 D    
C13   N5    1.437188 S    
C23   C39   1.397634 A    
C36   N20   1.433508 S    
