data_mof_unit_9008.cif
_audit_creation_date              2012-12-10T17:33:44-0500
_audit_creation_method            fapswitch 2.2
_symmetry_space_group_name_H-M    P1
_symmetry_Int_Tables_number       1
_space_group_crystal_system       triclinic
_cell_length_a                    11.688277
_cell_length_b                    12.332955
_cell_length_c                    13.154234
_cell_angle_alpha                 116.565078
_cell_angle_beta                  77.940044
_cell_angle_gamma                 101.06775
_cell_volume                      1648.02028403

loop_
_atom_site_label
_atom_site_type_symbol
_atom_type_description
_atom_site_fract_x
_atom_site_fract_y
_atom_site_fract_z
_atom_type_partial_charge
C1    C     C_R   0.511505 0.854866 0.286403 0.772079
C2    C     C_R   0.450805 0.227784 0.834579 -0.142018
C3    C     C_R   0.599482 0.811978 0.086428 -0.182970
C4    C     C_R   0.626498 0.731179 0.972599 -0.143449
C5    C     C_R   0.581083 0.608945 0.934865 -0.160761
C6    C     C_R   0.503174 0.565412 0.010235 0.097511
C7    C     C_R   0.465798 0.651186 0.122798 0.018960
C8    C     C_R   0.459302 0.440169 0.976826 0.014238
C9    C     C_R   0.370894 0.404503 0.051702 -0.005676
C10   C     C_R   0.326960 0.492286 0.158512 0.422713
C11   C     C_R   0.371931 0.614424 0.191483 -0.292933
C12   C     C_R   0.715715 0.999607 0.499888 0.815876
C13   C     C_R   0.501391 0.348913 0.871105 -0.296615
C14   C     C_R   0.361253 0.193606 0.907976 0.432728
C15   C     C_R   0.521802 0.772655 0.163188 -0.073021
C16   C     C_R   0.685336 0.345112 0.327171 -0.295278
C17   C     C_R   0.342347 0.759813 0.645247 0.097114
C18   C     C_R   0.308585 0.664385 0.678182 -0.249160
C19   C     C_R   0.368708 0.561350 0.624245 -0.203125
C20   C     C_R   0.463464 0.552281 0.535657 -0.014664
C21   C     C_R   0.495575 0.653226 0.505690 0.264094
C22   C     C_R   0.527223 0.447311 0.475610 -0.041477
C23   C     C_R   0.480339 0.145036 0.713498 0.814144
C24   C     C_R   0.621357 0.445939 0.387539 0.166692
C25   C     C_R   0.651653 0.545306 0.360318 -0.283459
C26   C     C_R   0.590635 0.646727 0.418394 -0.186151
C27   C     C_R   0.502071 0.342673 0.498472 0.025040
C28   C     C_R   0.656422 0.245643 0.354103 0.078913
C29   C     C_R   0.284278 0.000418 0.500181 0.802329
C30   C     C_1   0.837351 0.999228 0.500100 -0.181878
C31   C     C_1   0.939968 0.999618 0.500190 -0.001359
C32   C     C_1   0.059977 0.000408 0.500205 -0.003225
C33   C     C_1   0.162620 0.000811 0.500160 -0.192830
C34   C     C_R   0.325560 0.281309 0.017698 -0.241932
Cu1   Cu    Cu3+1 0.526510 0.098270 0.475420 0.935878
Cu2   Cu    Cu3+1 0.473490 0.901730 0.524580 0.936368
H1    H     H_    0.723901 0.544990 0.293356 0.159246
H2    H     H_    0.757397 0.343373 0.259711 0.143684
H3    H     H_    0.431935 0.335533 0.563555 0.123669
H4    H     H_    0.295252 0.839179 0.687033 0.159871
H5    H     H_    0.621699 0.718240 0.391782 0.209182
H6    H     H_    0.642090 0.904781 0.115146 0.147837
H7    H     H_    0.606375 0.551862 0.845458 0.129285
H8    H     H_    0.329297 0.680336 0.270175 0.180443
H9    H     H_    0.705450 0.167441 0.307897 0.122496
N1    N     N_R   0.566700 0.246290 0.438210 -0.179506
N2    N     N_R   0.434010 0.754320 0.561170 -0.213425
O1    O     O_R   0.533340 0.972510 0.318140 -0.578630
O2    O     O_R   0.488570 0.806530 0.359650 -0.609487
O3    O     O_R   0.685190 0.083000 0.479260 -0.574118
O4    O     O_R   0.640410 0.917020 0.520770 -0.587825
O5    O     O_R   0.511430 0.193470 0.640350 -0.594286
O6    O     O_R   0.466660 0.027490 0.681860 -0.538736
O7    O     O_R   0.359590 0.082980 0.479230 -0.572644
O8    O     O_R   0.314810 0.917000 0.520740 -0.592959
O9    O     O_3   0.308295 0.074691 0.873458 -0.571938
C35   C     C_3   0.194015 0.066707 0.848197 0.044021
H10   H     H_    0.197590 0.030023 0.753722 0.154121
H11   H     H_    0.155709 0.155355 0.887661 0.131278
C36   C     C_3   0.110325 0.979862 0.890442 -0.796517
H12   H     H_    0.103092 0.017064 0.985306 0.247735
H13   H     H_    0.021687 0.969065 0.866734 0.203359
H14   H     H_    0.142909 0.889025 0.851333 0.238949
H15   H     H_    0.338723 0.490170 0.653084 0.138268
H16   H     H_    0.235499 0.670232 0.745630 0.146732
O10   O     O_3   0.233255 0.459422 0.226930 -0.590078
C37   C     C_3   0.273468 0.467955 0.324570 0.068039
H17   H     H_    0.290344 0.565202 0.385673 0.164477
H18   H     H_    0.355194 0.422677 0.300944 0.147815
C38   C     C_3   0.178933 0.404603 0.384678 -0.770399
H19   H     H_    0.159408 0.307306 0.325187 0.244774
H20   H     H_    0.209811 0.409052 0.460845 0.207604
H21   H     H_    0.097189 0.449902 0.413043 0.250729
H22   H     H_    0.258419 0.252685 0.074043 0.194629
H23   H     H_    0.573166 0.369589 0.813935 0.166011
H24   H     H_    0.685945 0.762697 0.913813 0.143599

loop_
_geom_bond_atom_site_label_1
_geom_bond_atom_site_label_2
_ccdc_geom_bond_type
C16   C28   A    
C14   O9    S    
C21   C26   A    
C3    H6    S    
C8    C13   A    
C19   C20   A    
C35   H10   S    
C18   H16   S    
C7    C11   A    
C28   N1    A    
C36   H14   S    
C5    C6    A    
C35   H11   S    
C29   O7    A    
C29   C33   S    
O9    C35   S    
Cu2   N2    S    
C36   H13   S    
C18   C19   A    
C2    C13   A    
Cu2   O6    S    
C25   H1    S    
Cu1   Cu2   S    
C27   H3    S    
C8    C9    A    
C38   H19   S    
C1    C15   S    
C9    C10   A    
C7    C15   A    
O10   C37   S    
C5    H7    S    
C16   C24   A    
Cu1   O7    S    
Cu1   O3    S    
Cu1   O1    S    
C23   O6    A    
C10   O10   S    
C28   H9    S    
C37   H17   S    
C13   H23   S    
C24   C25   A    
C35   C36   S    
C6    C8    A    
C29   O8    A    
C25   C26   A    
C36   H12   S    
C37   H18   S    
C17   H4    S    
C31   C32   S    
C19   H15   S    
C38   H21   S    
C17   C18   A    
C11   H8    S    
Cu2   O4    S    
C34   H22   S    
C27   N1    A    
C20   C22   A    
C22   C27   A    
C9    C34   A    
C22   C24   A    
C3    C4    A    
C2    C23   S    
C12   O4    A    
C3    C15   A    
C12   C30   S    
C17   N2    A    
C4    C5    A    
C14   C34   A    
C12   O3    A    
C1    O1    A    
C6    C7    A    
C37   C38   S    
C32   C33   T    
Cu2   O8    S    
C23   O5    A    
C30   C31   T    
C2    C14   A    
C4    H24   S    
C10   C11   A    
C20   C21   A    
Cu1   O5    S    
C38   H20   S    
Cu1   N1    S    
C1    O2    A    
Cu2   O2    S    
C26   H5    S    
C16   H2    S    
C21   N2    A    
