data_mof_unit_40851.cif
_audit_creation_date              2012-12-11T15:27:38-0500
_audit_creation_method            fapswitch 2.2
_symmetry_space_group_name_H-M    P1
_symmetry_Int_Tables_number       1
_space_group_crystal_system       triclinic
_cell_length_a                    23.12542
_cell_length_b                    7.309444
_cell_length_c                    15.149295
_cell_angle_alpha                 90.26234
_cell_angle_beta                  107.603867
_cell_angle_gamma                 89.643393
_cell_volume                      2440.76927587

loop_
_atom_site_label
_atom_site_type_symbol
_atom_type_description
_atom_site_fract_x
_atom_site_fract_y
_atom_site_fract_z
_atom_type_partial_charge
O1    O     O_R   0.711000 0.648610 0.341170 -0.541435
O2    O     O_R   0.289000 0.351390 0.658830 -0.541430
O3    O     O_R   0.789000 0.148610 0.158830 -0.531127
O4    O     O_R   0.211000 0.851390 0.841170 -0.531212
O5    O     O_R   0.829650 0.322030 0.336650 -0.535277
O6    O     O_R   0.170350 0.677970 0.663350 -0.535273
O7    O     O_R   0.670350 0.822030 0.163350 -0.535867
O8    O     O_R   0.329650 0.177970 0.836650 -0.535870
C1    C     C_R   0.854267 0.485649 0.356862 0.720383
C2    C     C_R   0.145733 0.514351 0.643138 0.720400
C3    C     C_R   0.645733 0.986080 0.143160 0.712484
C4    C     C_R   0.354267 0.013920 0.856840 0.712520
O9    O     O_R   0.713950 0.319280 0.352070 -0.536984
O10   O     O_R   0.286050 0.680720 0.647930 -0.536988
O11   O     O_R   0.786050 0.819280 0.147930 -0.543891
O12   O     O_R   0.213950 0.180720 0.852070 -0.543858
O13   O     O_R   0.672470 0.142870 0.174360 -0.537145
O14   O     O_R   0.327530 0.857130 0.825640 -0.537142
O15   O     O_R   0.827530 0.642870 0.325640 -0.534509
O16   O     O_R   0.172470 0.357130 0.674360 -0.534504
C5    C     C_R   0.702817 0.488930 0.377389 0.716756
C6    C     C_R   0.297185 0.511073 0.622614 0.716758
C7    C     C_R   0.797371 0.987742 0.122736 0.719519
C8    C     C_R   0.202634 0.012254 0.877271 0.719438
O17   O     O_3   0.736530 0.478650 0.191680 -0.386510
O18   O     O_3   0.263470 0.521350 0.808320 -0.386540
O19   O     O_3   0.763470 0.978650 0.308320 -0.379253
O20   O     O_3   0.236530 0.021350 0.691680 -0.379248
V1    V     V_3+5 0.752500 0.206170 0.260820 1.411109
V2    V     V_3+5 0.247500 0.793830 0.739180 1.411058
V3    V     V_3+5 0.747500 0.706170 0.239180 1.399342
V4    V     V_3+5 0.252500 0.293830 0.760820 1.399385
C9    C     C_R   0.825230 0.001789 0.047828 -0.143240
C10   C     C_R   0.174757 0.998188 0.952159 -0.143237
C11   C     C_R   0.675010 0.506369 0.452280 -0.134831
C12   C     C_R   0.324989 0.493655 0.547719 -0.134824
C13   C     C_R   0.827521 0.144276 0.903642 0.274587
C14   C     C_R   0.172440 0.855687 0.096334 0.274610
C15   C     C_R   0.672463 0.642985 0.598139 0.281666
C16   C     C_R   0.327523 0.357090 0.401841 0.281620
C17   C     C_R   0.794799 0.091992 0.964545 0.222301
C18   C     C_R   0.205183 0.908057 0.035472 0.222336
C19   C     C_R   0.704522 0.601104 0.534746 0.222610
C20   C     C_R   0.295469 0.398970 0.465241 0.222576
C21   C     C_R   0.886137 0.952665 0.066910 -0.274357
C22   C     C_R   0.113834 0.047171 0.933018 -0.274268
C23   C     C_R   0.614806 0.452408 0.434147 -0.269699
C24   C     C_R   0.385192 0.547626 0.565841 -0.269707
C25   C     C_R   0.920045 0.004762 0.007818 0.028922
C26   C     C_R   0.079910 0.994999 0.992072 0.028882
C27   C     C_R   0.580438 0.502319 0.493473 0.030695
C28   C     C_R   0.419545 0.497811 0.506480 0.030711
C29   C     C_R   0.891037 0.114339 0.929839 0.044701
C30   C     C_R   0.108914 0.885455 0.070065 0.044758
C31   C     C_R   0.609666 0.604247 0.574537 0.041341
C32   C     C_R   0.390313 0.395901 0.425412 0.041350
C33   C     C_R   0.982821 0.960041 0.026887 0.092615
C34   C     C_R   0.017126 0.039650 0.972969 0.092613
C35   C     C_R   0.517053 0.463526 0.471698 0.095736
C36   C     C_R   0.482925 0.536653 0.528234 0.095731
C37   C     C_R   0.987949 0.164939 0.903132 -0.208475
C38   C     C_R   0.011990 0.834699 0.096699 -0.208485
C39   C     C_R   0.513239 0.646785 0.604602 -0.207412
C40   C     C_R   0.486731 0.353463 0.395304 -0.207399
C41   C     C_R   0.926287 0.198901 0.881278 -0.165470
C42   C     C_R   0.073655 0.800772 0.118570 -0.165436
C43   C     C_R   0.575014 0.676821 0.627875 -0.167711
C44   C     C_R   0.424956 0.323421 0.372038 -0.167726
H1    H     H_    0.906863 0.298629 0.827865 0.157190
H2    H     H_    0.093077 0.700998 0.171961 0.157127
H3    H     H_    0.594952 0.764531 0.686829 0.170481
H4    H     H_    0.405011 0.235777 0.313058 0.170505
H5    H     H_    0.092732 0.111658 0.867107 0.129249
H6    H     H_    0.907248 0.888137 0.132809 0.129265
H7    H     H_    0.405268 0.614170 0.631470 0.127874
H8    H     H_    0.594743 0.385797 0.368534 0.127874
H9    H     H_    0.011901 0.242232 0.864915 0.126583
H10   H     H_    0.988029 0.757352 0.134883 0.126583
H11   H     H_    0.490421 0.715857 0.647559 0.125966
H12   H     H_    0.509538 0.284466 0.352312 0.125953
C45   C     C_1   0.416766 0.006303 0.918820 -0.191038
C46   C     C_1   0.583234 0.993697 0.081180 -0.191080
C47   C     C_1   0.083236 0.507346 0.581129 -0.189380
C48   C     C_1   0.916764 0.492654 0.418871 -0.189378
C49   C     C_1   0.469123 0.002068 0.969984 0.002946
C50   C     C_1   0.530877 0.997932 0.030017 0.002958
C51   C     C_1   0.030880 0.502585 0.529990 -0.000153
C52   C     C_1   0.969120 0.497415 0.470009 -0.000150
N1    N     N_2   0.268906 0.874919 0.059427 -0.530468
H13   H     H_    0.293455 0.974590 0.038859 0.238606
C53   C     C_3   0.286969 0.690652 0.043374 -0.543986
H14   H     H_    0.295951 0.682820 0.975590 0.222258
H15   H     H_    0.251645 0.588789 0.044393 0.194919
H16   H     H_    0.329404 0.654530 0.098356 0.191349
N2    N     N_2   0.731093 0.125371 0.940688 -0.530493
H17   H     H_    0.706513 0.025770 0.961241 0.238581
C54   C     C_3   0.713106 0.309718 0.956763 -0.543359
H18   H     H_    0.703777 0.317338 0.024300 0.222008
H19   H     H_    0.670886 0.346386 0.901474 0.191167
H20   H     H_    0.748624 0.411321 0.956311 0.194943
N3    N     N_2   0.234528 0.337232 0.447151 -0.538628
H21   H     H_    0.223688 0.284649 0.503009 0.272071
C55   C     C_3   0.188873 0.461604 0.393251 -0.592363
H22   H     H_    0.190116 0.592261 0.431585 0.191775
H23   H     H_    0.143305 0.399631 0.380002 0.201531
H24   H     H_    0.196338 0.487600 0.325461 0.238174
N4    N     N_2   0.765452 0.662938 0.552820 -0.538650
H25   H     H_    0.776285 0.715487 0.496950 0.272122
C56   C     C_3   0.811136 0.538712 0.606777 -0.592499
H26   H     H_    0.809939 0.408032 0.568481 0.191778
H27   H     H_    0.803668 0.512753 0.674571 0.238128
H28   H     H_    0.856687 0.600805 0.620027 0.201572
N5    N     N_2   0.796915 0.226066 0.816176 -0.534905
H29   H     H_    0.754178 0.277050 0.808599 0.290870
C57   C     C_3   0.800741 0.127628 0.734704 -0.552225
H30   H     H_    0.755109 0.118923 0.682829 0.204301
H31   H     H_    0.819916 0.987879 0.752209 0.205284
H32   H     H_    0.830513 0.201576 0.702144 0.194072
N6    N     N_2   0.203034 0.774026 0.183841 -0.534941
H33   H     H_    0.245805 0.723231 0.191498 0.290895
C58   C     C_3   0.199111 0.872476 0.265258 -0.552324
H34   H     H_    0.244694 0.880969 0.317280 0.204176
H35   H     H_    0.169228 0.798660 0.297668 0.194085
H36   H     H_    0.180026 0.012316 0.247722 0.205362
N7    N     N_2   0.702033 0.739911 0.681480 -0.517706
H37   H     H_    0.739605 0.812773 0.680957 0.291005
C59   C     C_3   0.709465 0.645154 0.768042 -0.583529
H38   H     H_    0.757868 0.607393 0.800026 0.204253
H39   H     H_    0.681359 0.519557 0.758207 0.199008
H40   H     H_    0.695742 0.737756 0.816503 0.213004
N8    N     N_2   0.297960 0.260051 0.318538 -0.517663
H41   H     H_    0.260444 0.186987 0.319141 0.290996
C60   C     C_3   0.290426 0.354796 0.231944 -0.583442
H42   H     H_    0.242018 0.392652 0.200106 0.204265
H43   H     H_    0.304048 0.262148 0.183401 0.213034
H44   H     H_    0.318557 0.480333 0.241690 0.199047

loop_
_geom_bond_atom_site_label_1
_geom_bond_atom_site_label_2
_ccdc_geom_bond_type
O17   V3    S    
C47   C51   T    
C51   C52   S    
O1    C5    A    
N3    H21   S    
C15   N7    S    
O19   V1    S    
C9    C21   A    
O3    C7    A    
N2    H17   S    
C10   C18   A    
O15   V3    S    
C54   H18   S    
C25   C33   A    
C33   C38   A    
C39   H11   S    
C49   C50   S    
O7    C3    A    
C35   C40   A    
C26   C30   A    
C36   C39   A    
C40   C44   A    
O9    V1    S    
C23   H8    S    
C14   C18   A    
C56   H27   S    
O4    C8    A    
C25   C29   A    
C13   N5    S    
C57   H30   S    
C2    C47   S    
O1    V3    S    
O13   V1    S    
O2    V4    S    
O3    V1    S    
C58   H36   S    
C28   C36   A    
C40   H12   S    
C1    O15   A    
C15   C31   A    
C2    O16   A    
C7    C9    S    
O2    C6    A    
C60   H44   S    
N4    H25   S    
C10   C22   A    
C20   N3    S    
N1    C53   S    
C11   C19   A    
C16   C20   A    
C43   H3    S    
C44   H4    S    
C13   C29   A    
C34   C37   A    
O11   C7    A    
C11   C23   A    
C35   C36   A    
O12   C8    A    
N4    C56   S    
C24   H7    S    
O10   V2    S    
C54   H19   S    
O5    V1    S    
N6    C58   S    
C3    C46   S    
C39   C43   A    
O7    V3    S    
C38   C42   A    
C26   C34   A    
C56   H28   S    
C37   H9    S    
C53   H14   S    
O18   V4    S    
C23   C27   A    
C16   C32   A    
C46   C50   T    
C8    C10   S    
C21   H6    S    
O8    V4    S    
C59   H39   S    
O5    C1    A    
C53   H15   S    
C60   H42   S    
C31   C43   A    
C14   C30   A    
C21   C25   A    
O8    C4    A    
C57   H32   S    
O9    C5    A    
C55   H23   S    
C19   N4    S    
C58   H34   S    
O14   V2    S    
C14   N6    S    
O6    V2    S    
C16   N8    S    
N7    H37   S    
C12   C20   A    
C27   C35   A    
C59   H38   S    
C54   H20   S    
C29   C41   A    
C60   H43   S    
N5    H29   S    
O16   V4    S    
C57   H31   S    
C3    O13   A    
C38   H10   S    
C48   C52   T    
N8    C60   S    
O6    C2    A    
C15   C19   A    
N6    H33   S    
N2    C54   S    
O11   V3    S    
C30   C42   A    
O12   V4    S    
C6    C12   S    
C22   C26   A    
C18   N1    S    
C9    C17   A    
O10   C6    A    
O20   V2    S    
C5    C11   S    
C59   H40   S    
C32   C44   A    
C56   H26   S    
C53   H16   S    
C33   C34   A    
C17   N2    S    
C41   H1    S    
C4    C45   S    
C12   C24   A    
C55   H24   S    
C27   C31   A    
C13   C17   A    
N8    H41   S    
O4    V2    S    
C58   H35   S    
C1    C48   S    
C37   C41   A    
C24   C28   A    
C42   H2    S    
N3    C55   S    
C4    O14   A    
C55   H22   S    
N7    C59   S    
N1    H13   S    
C22   H5    S    
C45   C49   T    
C28   C32   A    
N5    C57   S    
