data_mof_unit_51919.cif
_audit_creation_date              2012-12-11T15:50:44-0500
_audit_creation_method            fapswitch 2.2
_symmetry_space_group_name_H-M    P1
_symmetry_Int_Tables_number       1
_space_group_crystal_system       triclinic
_cell_length_a                    19.068745
_cell_length_b                    11.110141
_cell_length_c                    18.595286
_cell_angle_alpha                 90.134124
_cell_angle_beta                  90.31383
_cell_angle_gamma                 89.496373
_cell_volume                      3939.30955954

loop_
_atom_site_label
_atom_site_type_symbol
_atom_type_description
_atom_site_fract_x
_atom_site_fract_y
_atom_site_fract_z
_atom_type_partial_charge
C1    C     C_R   0.290426 0.996629 0.860450 0.565078
C2    C     C_R   0.709761 0.996525 0.139239 0.567630
C3    C     C_R   0.790425 0.496629 0.860450 0.565078
C4    C     C_R   0.209761 0.496525 0.139239 0.567630
C5    C     C_3   0.529305 0.729015 0.970367 -0.128101
C6    C     C_3   0.472721 0.728887 0.029101 -0.127861
C7    C     C_3   0.029305 0.229015 0.970367 -0.128101
C8    C     C_3   0.972721 0.228887 0.029101 -0.127861
C9    C     C_R   0.218548 0.510184 0.061500 0.000203
C10   C     C_R   0.782149 0.509468 0.938278 -0.005776
C11   C     C_R   0.718548 0.010184 0.061500 0.000203
C12   C     C_R   0.282149 0.009468 0.938278 -0.005776
C13   C     C_R   0.274221 0.457962 0.023309 -0.013011
C14   C     C_R   0.727516 0.456659 0.976820 0.000276
C15   C     C_R   0.774221 0.957962 0.023309 -0.013011
C16   C     C_R   0.227516 0.956659 0.976820 0.000276
C17   C     C_R   0.285670 0.486783 0.951586 0.026562
C18   C     C_R   0.716021 0.486570 0.048409 0.039497
C19   C     C_R   0.785670 0.986783 0.951586 0.026562
C20   C     C_R   0.216021 0.986570 0.048409 0.039497
C21   C     C_R   0.177090 0.597809 0.949603 -0.159705
C22   C     C_R   0.822977 0.598743 0.049778 -0.163256
C23   C     C_R   0.677090 0.097809 0.949603 -0.159705
C24   C     C_R   0.322977 0.098743 0.049778 -0.163256
C25   C     C_R   0.166714 0.571642 0.021869 -0.151551
C26   C     C_R   0.833540 0.571135 0.977672 -0.172031
C27   C     C_R   0.666714 0.071642 0.021869 -0.151551
C28   C     C_R   0.333540 0.071135 0.977672 -0.172031
C29   C     C_3   0.350554 0.452969 0.040212 -0.231938
C30   C     C_3   0.651108 0.449278 0.960753 -0.216449
C31   C     C_3   0.850554 0.952969 0.040212 -0.231938
C32   C     C_3   0.151108 0.949278 0.960753 -0.216449
C33   C     C_3   0.363652 0.483476 0.961441 0.004139
C34   C     C_3   0.638212 0.482338 0.039521 0.000400
C35   C     C_3   0.863652 0.983476 0.961441 0.004139
C36   C     C_3   0.138212 0.982338 0.039521 0.000400
C37   C     C_R   0.240714 0.567438 0.915701 0.004659
C38   C     C_R   0.759981 0.567967 0.084015 -0.000590
C39   C     C_R   0.740714 0.067438 0.915701 0.004659
C40   C     C_R   0.259981 0.067967 0.084015 -0.000590
C41   C     C_R   0.503809 0.838003 0.423228 -0.007708
C42   C     C_R   0.462012 0.825438 0.566276 0.020336
C43   C     C_R   0.003809 0.338003 0.423228 -0.007706
C44   C     C_R   0.962011 0.325439 0.566276 0.020332
C45   C     C_R   0.469304 0.821225 0.855490 0.545604
C46   C     C_R   0.531007 0.821465 0.144352 0.540758
C47   C     C_R   0.969304 0.321225 0.855490 0.545604
C48   C     C_R   0.031007 0.321465 0.144352 0.540758
C49   C     C_R   0.438111 0.796876 0.439559 -0.000042
C50   C     C_R   0.417803 0.787255 0.510739 -0.022060
C51   C     C_R   0.938111 0.296877 0.439558 -0.000041
C52   C     C_R   0.917803 0.287256 0.510739 -0.022061
C53   C     C_R   0.525642 0.879867 0.549023 -0.159678
C54   C     C_R   0.547432 0.880806 0.477887 -0.158980
C55   C     C_R   0.025642 0.379866 0.549023 -0.159679
C56   C     C_R   0.047432 0.380804 0.477887 -0.158978
C57   C     C_3   0.408031 0.681333 0.416837 0.024251
C58   C     C_3   0.386591 0.666567 0.495365 0.035666
C59   C     C_3   0.908030 0.181335 0.416836 0.024252
C60   C     C_3   0.886590 0.166568 0.495365 0.035667
C61   C     C_R   0.215929 0.513095 0.438549 0.039345
C62   C     C_R   0.762315 0.568560 0.572001 0.034974
C63   C     C_R   0.715929 0.013096 0.438549 0.039345
C64   C     C_R   0.262315 0.068560 0.572001 0.034974
C65   C     C_R   0.169346 0.589424 0.473976 -0.027005
C66   C     C_R   0.817581 0.540592 0.525952 -0.009034
C67   C     C_R   0.669346 0.089424 0.473976 -0.027006
C68   C     C_R   0.317581 0.040592 0.525952 -0.009036
C69   C     C_R   0.177340 0.614588 0.544657 0.011587
C70   C     C_R   0.808920 0.542363 0.452926 -0.035652
C71   C     C_R   0.677340 0.114588 0.544657 0.011586
C72   C     C_R   0.308920 0.042363 0.452926 -0.035652
C73   C     C_R   0.271059 0.470204 0.554956 -0.171265
C74   C     C_R   0.686411 0.594862 0.470609 -0.128537
C75   C     C_R   0.771059 0.970204 0.554956 -0.171266
C76   C     C_R   0.186411 0.094860 0.470609 -0.128538
C77   C     C_R   0.262195 0.442886 0.481527 0.097809
C78   C     C_R   0.695114 0.589633 0.544829 0.079383
C79   C     C_R   0.762196 0.942886 0.481527 0.097810
C80   C     C_R   0.195114 0.089631 0.544829 0.079385
C81   C     C_3   0.134615 0.706744 0.456737 -0.263451
C82   C     C_3   0.889215 0.594409 0.521463 -0.258931
C83   C     C_3   0.634614 0.206744 0.456737 -0.263451
C84   C     C_3   0.389215 0.094409 0.521462 -0.258933
C85   C     C_3   0.145591 0.738108 0.535351 -0.250778
C86   C     C_3   0.882217 0.583016 0.440612 -0.280824
C87   C     C_3   0.645590 0.238108 0.535351 -0.250778
C88   C     C_3   0.382217 0.083015 0.440612 -0.280824
C89   C     C_R   0.259665 0.634191 0.850769 0.539747
C90   C     C_R   0.740502 0.634510 0.149203 0.530449
C91   C     C_R   0.759665 0.134191 0.850769 0.539747
C92   C     C_R   0.240502 0.134510 0.149203 0.530449
C93   C     C_R   0.234625 0.568179 0.583619 -0.025304
C94   C     C_R   0.745108 0.581415 0.424687 -0.012197
C95   C     C_R   0.734626 0.068179 0.583619 -0.025305
C96   C     C_R   0.245107 0.081414 0.424686 -0.012198
C97   C     C_R   0.273510 0.042245 0.645339 0.552592
C98   C     C_R   0.708689 0.997419 0.361511 0.601395
C99   C     C_R   0.773510 0.542245 0.645339 0.552590
C100  C     C_R   0.208689 0.497419 0.361511 0.601396
C101  C     C_R   0.439330 0.818933 0.639687 0.560150
C102  C     C_R   0.531160 0.824152 0.352644 0.538137
C103  C     C_R   0.939330 0.318933 0.639687 0.560149
C104  C     C_R   0.031160 0.324152 0.352644 0.538137
C105  C     C_R   0.257797 0.633102 0.646366 0.541087
C106  C     C_R   0.739796 0.634849 0.355000 0.554605
C107  C     C_R   0.757797 0.133102 0.646366 0.541087
C108  C     C_R   0.239796 0.134849 0.355000 0.554605
C109  C     C_3   0.471594 0.926704 0.029724 -0.123048
C110  C     C_3   0.528209 0.926829 0.970331 -0.124790
C111  C     C_3   0.971594 0.426704 0.029724 -0.123048
C112  C     C_3   0.028209 0.426829 0.970331 -0.124791
C113  C     C_3   0.431038 0.827410 0.988970 -0.113895
C114  C     C_3   0.569879 0.827681 0.010835 -0.115550
C115  C     C_3   0.931038 0.327410 0.988970 -0.113895
C116  C     C_3   0.069879 0.327681 0.010835 -0.115550
C117  C     C_3   0.488427 0.827692 0.931084 0.058445
C118  C     C_3   0.512440 0.827743 0.068655 0.058823
C119  C     C_3   0.988427 0.327692 0.931084 0.058445
C120  C     C_3   0.012440 0.327743 0.068655 0.058823
Cr1   Cr    Cr6+3 0.229640 0.835880 0.747370 0.986081
Cr2   Cr    Cr6+3 0.770360 0.835880 0.252630 0.984824
Cr3   Cr    Cr6+3 0.729640 0.335880 0.747370 0.986081
Cr4   Cr    Cr6+3 0.270360 0.335880 0.252630 0.984824
Cr5   Cr    Cr6+3 0.387390 0.989720 0.750850 0.990683
Cr6   Cr    Cr6+3 0.612610 0.989720 0.249150 0.988174
Cr7   Cr    Cr6+3 0.887390 0.489720 0.750850 0.990683
Cr8   Cr    Cr6+3 0.112610 0.489720 0.249150 0.988174
Cr9   Cr    Cr6+3 0.385770 0.677220 0.749340 0.966384
Cr10  Cr    Cr6+3 0.614230 0.677220 0.250660 0.979139
Cr11  Cr    Cr6+3 0.885770 0.177220 0.749340 0.966384
Cr12  Cr    Cr6+3 0.114230 0.177220 0.250660 0.979139
H1    H     H_    0.373851 0.823444 0.978246 0.111735
H2    H     H_    0.627104 0.824149 0.021653 0.108596
H3    H     H_    0.873851 0.323444 0.978246 0.111735
H4    H     H_    0.127104 0.324149 0.021653 0.108596
H5    H     H_    0.559117 0.917121 0.590434 0.129498
H6    H     H_    0.600273 0.903606 0.465896 0.123740
H7    H     H_    0.059117 0.417119 0.590434 0.129499
H8    H     H_    0.100273 0.403604 0.465896 0.123740
H9    H     H_    0.948721 0.117841 0.397164 0.144020
H10   H     H_    0.829351 0.168703 0.503517 0.151567
H11   H     H_    0.448723 0.617839 0.397166 0.144021
H12   H     H_    0.329352 0.668701 0.503517 0.151566
H13   H     H_    0.310831 0.423738 0.586404 0.130272
H14   H     H_    0.635788 0.623419 0.449761 0.153404
H15   H     H_    0.810831 0.923738 0.586404 0.130273
H16   H     H_    0.135788 0.123415 0.449761 0.153405
H17   H     H_    0.078415 0.695567 0.442118 0.140129
H18   H     H_    0.930987 0.539622 0.544893 0.166812
H19   H     H_    0.578415 0.195566 0.442118 0.140129
H20   H     H_    0.430987 0.039622 0.544893 0.166812
H21   H     H_    0.164959 0.764305 0.419856 0.144833
H22   H     H_    0.891168 0.688385 0.541615 0.127576
H23   H     H_    0.664958 0.264305 0.419857 0.144833
H24   H     H_    0.391168 0.188385 0.541614 0.127577
H25   H     H_    0.184145 0.811645 0.543218 0.156440
H26   H     H_    0.887990 0.665409 0.410727 0.161706
H27   H     H_    0.684144 0.311645 0.543218 0.156440
H28   H     H_    0.387990 0.165408 0.410727 0.161706
H29   H     H_    0.095590 0.749208 0.565220 0.134542
H30   H     H_    0.915060 0.512914 0.416363 0.146295
H31   H     H_    0.595589 0.249207 0.565220 0.134543
H32   H     H_    0.415060 0.012913 0.416363 0.146295
H33   H     H_    0.452034 0.007253 0.058502 0.111032
H34   H     H_    0.547248 0.007549 0.942117 0.111069
H35   H     H_    0.952034 0.507252 0.058502 0.111032
H36   H     H_    0.047248 0.507549 0.942117 0.111069
H37   H     H_    0.550599 0.649014 0.942691 0.103648
H38   H     H_    0.452337 0.648686 0.056532 0.105931
H39   H     H_    0.050599 0.149014 0.942691 0.103648
H40   H     H_    0.952337 0.148686 0.056532 0.105931
H41   H     H_    0.137529 0.651761 0.922608 0.130744
H42   H     H_    0.861862 0.653737 0.076356 0.130932
H43   H     H_    0.637529 0.151761 0.922608 0.130744
H44   H     H_    0.361862 0.153737 0.076356 0.130932
H45   H     H_    0.119391 0.605069 0.047304 0.158831
H46   H     H_    0.880666 0.603510 0.952178 0.143902
H47   H     H_    0.619391 0.105069 0.047304 0.158831
H48   H     H_    0.380666 0.103510 0.952178 0.143902
H49   H     H_    0.868091 0.861310 0.056101 0.149156
H50   H     H_    0.135404 0.856626 0.945976 0.156790
H51   H     H_    0.368091 0.361310 0.056101 0.149156
H52   H     H_    0.635404 0.356626 0.945976 0.156790
H53   H     H_    0.365532 0.524680 0.078713 0.115318
H54   H     H_    0.634474 0.518930 0.921580 0.108311
H55   H     H_    0.865532 0.024680 0.078713 0.115318
H56   H     H_    0.134474 0.018930 0.921580 0.108311
H57   H     H_    0.389051 0.571828 0.952868 0.159023
H58   H     H_    0.612100 0.570594 0.049123 0.152701
H59   H     H_    0.889051 0.071828 0.952868 0.159023
H60   H     H_    0.112100 0.070594 0.049123 0.152701
O1    O     O_R   0.214300 0.709080 0.827500 -0.533911
O2    O     O_R   0.785700 0.709080 0.172500 -0.536972
O3    O     O_R   0.714300 0.209080 0.827500 -0.533911
O4    O     O_R   0.285700 0.209080 0.172500 -0.536972
O5    O     O_R   0.445900 0.919370 0.676500 -0.511064
O6    O     O_R   0.554100 0.919370 0.323500 -0.519846
O7    O     O_R   0.945900 0.419370 0.676500 -0.511063
O8    O     O_R   0.054100 0.419370 0.323500 -0.519846
O9    O     O_R   0.456660 0.717710 0.669820 -0.525073
O10   O     O_R   0.543340 0.717710 0.330180 -0.535941
O11   O     O_R   0.956660 0.217710 0.669820 -0.525076
O12   O     O_R   0.043340 0.217710 0.330180 -0.535942
O13   O     O_R   0.320590 0.625770 0.672930 -0.536058
O14   O     O_R   0.679410 0.625770 0.327070 -0.517342
O15   O     O_R   0.820590 0.125770 0.672930 -0.536057
O16   O     O_R   0.179410 0.125770 0.327070 -0.517342
O17   O     O_3   0.334270 0.834280 0.749190 -0.285197
O18   O     O_3   0.665730 0.834280 0.250810 -0.291604
O19   O     O_3   0.834270 0.334280 0.749190 -0.285197
O20   O     O_3   0.165730 0.334280 0.250810 -0.291604
O21   O     O_R   0.236190 0.958390 0.823150 -0.502584
O22   O     O_R   0.763810 0.958390 0.176850 -0.501595
O23   O     O_R   0.736190 0.458390 0.823150 -0.502583
O24   O     O_R   0.263810 0.458390 0.176850 -0.501595
O25   O     O_R   0.332090 0.075280 0.831290 -0.525876
O26   O     O_R   0.667910 0.075280 0.168710 -0.512477
O27   O     O_R   0.832090 0.575280 0.831290 -0.525876
O28   O     O_R   0.167910 0.575280 0.168710 -0.512477
O29   O     O_R   0.446280 0.918040 0.826620 -0.515621
O30   O     O_R   0.553720 0.918040 0.173380 -0.523136
O31   O     O_R   0.946280 0.418040 0.826620 -0.515621
O32   O     O_R   0.053720 0.418040 0.173380 -0.523136
O33   O     O_R   0.457080 0.716270 0.831760 -0.535591
O34   O     O_R   0.542920 0.716270 0.168240 -0.525894
O35   O     O_R   0.957080 0.216270 0.831760 -0.535591
O36   O     O_R   0.042920 0.216270 0.168240 -0.525894
O37   O     O_R   0.320980 0.624440 0.823040 -0.508719
O38   O     O_R   0.679020 0.624440 0.176960 -0.506384
O39   O     O_R   0.820980 0.124440 0.823040 -0.508719
O40   O     O_R   0.179020 0.124440 0.176960 -0.506384
O41   O     O_R   0.213880 0.710510 0.665560 -0.518330
O42   O     O_R   0.786120 0.710510 0.334440 -0.514152
O43   O     O_R   0.713880 0.210510 0.665560 -0.518330
O44   O     O_R   0.286120 0.210510 0.334440 -0.514152
O45   O     O_R   0.235800 0.959720 0.673040 -0.510284
O46   O     O_R   0.764200 0.959720 0.326960 -0.475712
O47   O     O_R   0.735800 0.459720 0.673040 -0.510285
O48   O     O_R   0.264200 0.459720 0.326960 -0.475712
O49   O     O_R   0.331670 0.076720 0.669350 -0.529116
O50   O     O_R   0.668330 0.076720 0.330650 -0.530460
O51   O     O_R   0.831670 0.576720 0.669350 -0.529115
O52   O     O_R   0.168330 0.576720 0.330650 -0.530461
N1    N     N_2   0.349766 0.690591 0.365799 -0.525112
H61   H     H_    0.363420 0.664976 0.314359 0.265141
C121  C     C_3   0.303960 0.794808 0.366705 -0.284961
H62   H     H_    0.258268 0.778457 0.330914 0.169151
H63   H     H_    0.284466 0.811652 0.421838 0.145934
H64   H     H_    0.332197 0.874363 0.346014 0.144631
N2    N     N_2   0.421709 0.567311 0.533177 -0.540508
H65   H     H_    0.407832 0.560116 0.586215 0.292140
C122  C     C_3   0.495297 0.540139 0.521010 -0.298478
H66   H     H_    0.515210 0.479703 0.564119 0.136774
H67   H     H_    0.502927 0.492033 0.469402 0.120240
H68   H     H_    0.526423 0.623284 0.520501 0.206031
N3    N     N_2   0.849765 0.190594 0.365799 -0.525112
H69   H     H_    0.863418 0.164979 0.314358 0.265141
C123  C     C_3   0.803958 0.294811 0.366706 -0.284962
H70   H     H_    0.758266 0.278461 0.330915 0.169150
H71   H     H_    0.784465 0.311654 0.421838 0.145935
H72   H     H_    0.832196 0.374366 0.346014 0.144631
N4    N     N_2   0.921708 0.067311 0.533176 -0.540508
H73   H     H_    0.907832 0.060118 0.586214 0.292140
C124  C     C_3   0.995295 0.040138 0.521008 -0.298481
H74   H     H_    0.026422 0.123283 0.520508 0.206037
H75   H     H_    0.015206 0.979689 0.564112 0.136767
H76   H     H_    0.002926 0.992045 0.469395 0.120241
N5    N     N_2   0.302100 0.348587 0.451381 -0.477733
H77   H     H_    0.304489 0.276705 0.485371 0.253976
C125  C     C_3   0.369684 0.382832 0.423512 -0.251835
H78   H     H_    0.412038 0.358337 0.461912 0.120986
H79   H     H_    0.369786 0.477281 0.411023 0.202183
H80   H     H_    0.379944 0.341236 0.370535 0.155313
N6    N     N_2   0.638033 0.617360 0.591067 -0.539200
H81   H     H_    0.622028 0.544939 0.621150 0.263916
C126  C     C_3   0.646011 0.725480 0.633909 -0.295202
H82   H     H_    0.595552 0.747667 0.660247 0.177310
H83   H     H_    0.662141 0.801778 0.599473 0.151814
H84   H     H_    0.685492 0.712557 0.677224 0.146522
N7    N     N_2   0.802100 0.848588 0.451381 -0.477734
H85   H     H_    0.804489 0.776706 0.485370 0.253976
C127  C     C_3   0.869684 0.882833 0.423511 -0.251834
H86   H     H_    0.912039 0.858339 0.461911 0.120988
H87   H     H_    0.869786 0.977282 0.411022 0.202182
H88   H     H_    0.879944 0.841236 0.370535 0.155312
N8    N     N_2   0.138033 0.117356 0.591067 -0.539202
H89   H     H_    0.122026 0.044932 0.621147 0.263915
C128  C     C_3   0.146010 0.225473 0.633911 -0.295203
H90   H     H_    0.095550 0.247660 0.660248 0.177311
H91   H     H_    0.162140 0.301773 0.599477 0.151813
H92   H     H_    0.185489 0.212549 0.677227 0.146524
N9    N     N_2   0.396440 0.383089 0.923734 -0.538583
H93   H     H_    0.364594 0.310502 0.913157 0.276116
C129  C     C_3   0.443050 0.413364 0.865665 -0.287325
H94   H     H_    0.471150 0.330930 0.847435 0.123492
H95   H     H_    0.482754 0.479230 0.884202 0.153066
H96   H     H_    0.412776 0.450822 0.819659 0.180206
N10   N     N_2   0.608466 0.384133 0.080211 -0.502860
H97   H     H_    0.622095 0.385746 0.133976 0.273417
C130  C     C_3   0.534103 0.366852 0.069235 -0.319657
H98   H     H_    0.517228 0.284971 0.098321 0.136019
H99   H     H_    0.522068 0.354328 0.011234 0.173997
H100  H     H_    0.504279 0.445645 0.090190 0.143594
N11   N     N_2   0.896440 0.883089 0.923734 -0.538582
H101  H     H_    0.864593 0.810503 0.913157 0.276115
C131  C     C_3   0.943050 0.913364 0.865665 -0.287325
H102  H     H_    0.971150 0.830930 0.847435 0.123492
H103  H     H_    0.982754 0.979230 0.884202 0.153066
H104  H     H_    0.912776 0.950822 0.819659 0.180206
N12   N     N_2   0.108466 0.884133 0.080211 -0.502860
H105  H     H_    0.122095 0.885746 0.133976 0.273417
C132  C     C_3   0.034103 0.866852 0.069235 -0.319657
H106  H     H_    0.017228 0.784971 0.098322 0.136020
H107  H     H_    0.022068 0.854328 0.011234 0.173997
H108  H     H_    0.004279 0.945645 0.090190 0.143594

loop_
_geom_bond_atom_site_label_1
_geom_bond_atom_site_label_2
_ccdc_geom_bond_type
C73   C93   A    
Cr8   O32   S    
C75   C95   A    
C48   C120  S    
C130  H98   S    
C53   H5    S    
C104  O12   A    
C16   C20   A    
C63   C98   S    
Cr3   O23   S    
C5    C6    S    
C56   H8    S    
C130  H100  S    
C71   C95   A    
C92   O40   A    
C3    O23   A    
C125  H78   S    
C22   C38   A    
C29   C33   S    
C55   H7    S    
C33   H57   S    
C9    C13   A    
C72   C88   S    
C11   C15   A    
C12   C16   A    
N8    C128  S    
C107  O15   A    
Cr10  O10   S    
C96   C108  S    
C59   C60   S    
C113  H1    S    
N1    H61   S    
C31   H49   S    
C60   N4    S    
Cr2   O2    S    
C41   C49   A    
C109  C118  S    
C9    C25   A    
C51   C52   A    
C7    C119  S    
N2    H65   S    
C62   C66   A    
C123  H71   S    
C105  O41   A    
Cr1   O21   S    
C66   C82   S    
C91   O3    A    
C20   C40   A    
C11   C27   A    
C68   C72   A    
C89   O1    A    
C45   O33   A    
C28   H48   S    
C98   O46   A    
C64   C97   S    
Cr2   O42   S    
C2    O22   A    
C21   H41   S    
N5    C125  S    
Cr8   O52   S    
C111  H35   S    
Cr9   O17   S    
C24   H44   S    
C121  H64   S    
N4    C124  S    
C47   O31   A    
C84   C88   S    
C92   O4    A    
C106  O14   A    
C79   N7    S    
C97   O45   A    
C38   C90   S    
C69   C93   A    
C46   O30   A    
C18   C38   A    
C19   C35   S    
C76   C96   A    
C84   H24   S    
C44   C55   A    
C66   C70   A    
C81   H17   S    
C87   H27   S    
C88   H28   S    
C98   O50   A    
C62   C99   S    
C72   C96   A    
C61   C65   A    
C76   H16   S    
C91   O39   A    
C2    O26   A    
C73   C77   A    
C101  O9    A    
C131  H103  S    
C75   C79   A    
Cr6   O26   S    
C67   C83   S    
C4    O24   A    
C111  C112  S    
C108  O16   A    
Cr11  O15   S    
C7    C8    S    
C129  H95   S    
C53   C54   A    
C32   C36   S    
C42   C53   A    
C122  H66   S    
C48   O36   A    
C101  O5    A    
C132  H107  S    
C83   H23   S    
C81   H21   S    
C41   C102  S    
N3    H69   S    
C43   C104  S    
C52   C60   S    
C61   C77   A    
N11   C131  S    
Cr6   O50   S    
Cr2   O18   S    
Cr8   O28   S    
C100  O52   A    
Cr9   O9    S    
Cr6   O6    S    
C126  H82   S    
C127  H88   S    
C104  O8    A    
C58   N2    S    
C1    C12   S    
C2    C11   S    
C44   C103  S    
Cr3   O47   S    
C18   C34   S    
C30   C34   S    
C34   H58   S    
Cr7   O51   S    
C10   C14   A    
Cr5   O17   S    
C103  O7    A    
C48   O32   A    
C88   H32   S    
C116  C120  S    
C73   H13   S    
Cr4   O44   S    
C7    C116  S    
N9    H93   S    
Cr10  O14   S    
C86   H26   S    
Cr4   O4    S    
C128  H90   S    
C114  H2    S    
C114  C118  S    
C124  H75   S    
Cr10  O34   S    
C19   C39   A    
C42   C50   A    
C113  C117  S    
C115  C119  S    
N12   C132  S    
Cr11  O19   S    
C77   N5    S    
C61   C100  S    
C31   H55   S    
C42   C101  S    
C112  C116  S    
C69   C85   S    
C6    H38   S    
Cr11  O39   S    
C21   C25   A    
C35   H59   S    
C106  O42   A    
C36   H60   S    
C62   C78   A    
C76   C80   A    
Cr7   O7    S    
C122  H68   S    
C15   C31   S    
Cr5   O29   S    
C16   C32   S    
C13   C17   A    
C131  H104  S    
C45   O29   A    
C57   C58   S    
Cr2   O46   S    
C115  H3    S    
C29   H53   S    
C100  O48   A    
C58   H12   S    
C47   O35   A    
C59   H9    S    
C49   C50   A    
C126  H84   S    
Cr9   O33   S    
C127  H86   S    
C90   O38   A    
C4    C9    S    
C81   C85   S    
C57   H11   S    
C125  H80   S    
C83   C87   S    
C55   C56   A    
C108  O44   A    
C7    H39   S    
C85   H29   S    
C74   C94   A    
N6    H81   S    
Cr7   O27   S    
N4    H73   S    
C15   C19   A    
C17   C33   S    
C12   C28   A    
C13   C29   S    
C70   C94   A    
C27   H47   S    
Cr12  O36   S    
Cr4   O48   S    
C25   H45   S    
C23   H43   S    
Cr10  O38   S    
C45   C117  S    
C128  H92   S    
C46   C118  S    
C39   C91   S    
C107  O43   A    
C60   H10   S    
C4    O28   A    
Cr11  O11   S    
C99   O47   A    
C130  H99   S    
C36   N12   S    
N5    H77   S    
C64   C80   A    
Cr3   O3    S    
C85   H25   S    
C110  C117  S    
Cr1   O1    S    
C83   H19   S    
C121  H63   S    
Cr12  O12   S    
C131  H102  S    
C68   C84   S    
C24   C28   A    
C129  H94   S    
Cr4   O20   S    
C75   H15   S    
C82   C86   S    
Cr2   O22   S    
C50   C58   S    
N10   H97   S    
Cr8   O8    S    
Cr9   O13   S    
C65   C81   S    
N8    H89   S    
C90   O2    A    
C109  H33   S    
Cr3   O43   S    
Cr1   O41   S    
N1    C121  S    
C1    O21   A    
C31   C35   S    
N7    C127  S    
C64   C68   A    
C24   C40   A    
C74   H14   S    
C35   N11   S    
C112  C119  S    
C105  O13   A    
C116  H4    S    
C37   C89   S    
C102  O10   A    
C109  C110  S    
Cr8   O20   S    
C43   C51   A    
C132  H106  S    
C65   C69   A    
C67   C71   A    
C99   O51   A    
C97   O49   A    
C20   C36   S    
Cr11  O35   S    
C21   C37   A    
C3    O27   A    
N11   H101  S    
C22   C26   A    
C5    H37   S    
C59   N3    S    
C1    O25   A    
C8    H40   S    
Cr5   O25   S    
C87   H31   S    
N12   H105  S    
C5    C114  S    
C127  H87   S    
C14   C18   A    
Cr12  O20   S    
C123  H72   S    
C49   C57   S    
C63   C79   A    
C30   H54   S    
C32   H50   S    
N6    C126  S    
C102  O6    A    
Cr1   O45   S    
N2    C122  S    
C112  H36   S    
Cr9   O37   S    
C8    C115  S    
C93   C105  S    
C34   N10   S    
Cr3   O19   S    
Cr5   O49   S    
C86   H30   S    
Cr1   O17   S    
C124  H74   S    
C74   C78   A    
Cr7   O31   S    
C10   C26   A    
C47   C119  S    
Cr5   O5    S    
C78   N6    S    
C14   C30   S    
Cr12  O40   S    
C22   H42   S    
C129  H96   S    
C26   H46   S    
C63   C67   A    
C32   H56   S    
C57   N1    S    
Cr6   O18   S    
C122  H67   S    
C132  H108  S    
N7    H85   S    
C5    C117  S    
C111  C120  S    
N3    C123  S    
C6    C113  S    
C46   O34   A    
C17   C37   A    
C40   C92   S    
N10   C130  S    
C82   H18   S    
C95   C107  S    
C84   H20   S    
Cr7   O19   S    
Cr12  O16   S    
C23   C27   A    
C126  H83   S    
C71   C87   S    
Cr10  O18   S    
C51   C59   S    
C123  H70   S    
C70   C86   S    
C8    C120  S    
Cr4   O24   S    
C125  H79   S    
C110  C114  S    
C94   C106  S    
C80   N8    S    
C29   H51   S    
C30   H52   S    
C121  H62   S    
Cr6   O30   S    
C109  C113  S    
N9    C129  S    
C3    C10   S    
C110  H34   S    
C44   C52   A    
C54   H6    S    
C23   C39   A    
C128  H91   S    
C124  H76   S    
C103  O11   A    
C41   C54   A    
C82   H22   S    
C43   C56   A    
C111  C115  S    
C89   O37   A    
C6    C118  S    
C33   N9    S    
