data_mof_unit_39305.cif
_audit_creation_date              2012-12-11T15:15:43-0500
_audit_creation_method            fapswitch 2.2
_symmetry_space_group_name_H-M    P1
_symmetry_Int_Tables_number       1
_space_group_crystal_system       triclinic
_cell_length_a                    14.086538
_cell_length_b                    14.103323
_cell_length_c                    28.020354
_cell_angle_alpha                 89.614787
_cell_angle_beta                  89.843166
_cell_angle_gamma                 120.566747
_cell_volume                      4792.92240595

loop_
_atom_site_label
_atom_site_type_symbol
_atom_type_description
_atom_site_fract_x
_atom_site_fract_y
_atom_site_fract_z
_atom_type_partial_charge
C1    C     C_R   0.566661 0.452003 0.567613 0.557291
C2    C     C_R   0.572865 0.173751 0.572690 0.553211
C3    C     C_R   0.886230 0.433629 0.566719 0.553139
C4    C     C_R   0.452227 0.566640 0.067630 0.556438
C5    C     C_R   0.174233 0.572869 0.072591 0.553278
C6    C     C_R   0.433688 0.885929 0.066854 0.553327
C7    C     C_3   0.994504 0.516473 0.701827 -0.024028
C8    C     C_3   0.513728 0.465599 0.709477 -0.003743
C9    C     C_3   0.561816 0.102209 0.714630 -0.020631
C10   C     C_3   0.515814 0.990316 0.202610 -0.006959
C11   C     C_3   0.466675 0.514388 0.209673 0.001205
C12   C     C_3   0.102449 0.560844 0.214302 -0.018229
C13   C     C_3   0.977693 0.430772 0.768525 -0.140539
C14   C     C_3   0.605074 0.505383 0.775997 -0.147567
C15   C     C_3   0.547785 0.148907 0.786923 -0.130252
C16   C     C_3   0.428762 0.977936 0.268321 -0.129403
C17   C     C_3   0.500908 0.605792 0.275947 -0.143449
C18   C     C_3   0.149361 0.552741 0.287339 -0.133574
C19   C     C_3   0.915257 0.482822 0.744874 -0.149621
C20   C     C_3   0.535143 0.397871 0.747056 -0.158059
C21   C     C_3   0.645295 0.167463 0.754187 -0.148973
C22   C     C_3   0.476870 0.910956 0.245859 -0.136628
C23   C     C_3   0.395313 0.533331 0.246088 -0.156335
C24   C     C_3   0.162571 0.646904 0.253571 -0.149419
C25   C     C_1   0.094733 0.552470 0.840091 0.042836
C26   C     C_1   0.489277 0.503381 0.852442 0.040782
C27   C     C_1   0.508760 0.996712 0.853608 0.046952
C28   C     C_1   0.550716 0.091923 0.340497 0.016421
C29   C     C_1   0.500601 0.491000 0.353197 0.032641
C30   C     C_1   0.993521 0.507182 0.352767 0.034647
C31   C     C_1   0.963711 0.493495 0.652301 0.030078
C32   C     C_1   0.524656 0.462919 0.657839 0.037650
C33   C     C_1   0.567245 0.130311 0.664210 0.019850
C34   C     C_1   0.493062 0.960398 0.152944 0.028007
C35   C     C_1   0.464296 0.524646 0.157916 0.039549
C36   C     C_1   0.131740 0.566995 0.164085 0.023060
C37   C     C_R   0.565482 0.454927 0.435191 0.556585
C38   C     C_R   0.569519 0.165288 0.427488 0.543705
C39   C     C_R   0.887378 0.434186 0.434265 0.548670
C40   C     C_R   0.454803 0.565803 0.935099 0.558489
C41   C     C_R   0.165745 0.569868 0.927573 0.546315
C42   C     C_R   0.434344 0.887807 0.934416 0.550996
C43   C     C_3   0.073786 0.627263 0.724437 0.273731
C44   C     C_3   0.409944 0.443685 0.736339 0.291798
C45   C     C_3   0.551208 0.994857 0.733079 0.259571
C46   C     C_3   0.627017 0.065518 0.226124 0.215490
C47   C     C_3   0.446543 0.412040 0.237289 0.248828
C48   C     C_3   0.991405 0.543204 0.231412 0.236275
C49   C     C_3   0.996546 0.594267 0.768008 0.284656
C50   C     C_3   0.430564 0.377733 0.774362 0.281471
C51   C     C_3   0.632595 0.058236 0.773115 0.281904
C52   C     C_3   0.588715 0.988218 0.269905 0.276286
C53   C     C_3   0.376943 0.430170 0.274117 0.271911
C54   C     C_3   0.049581 0.627072 0.271150 0.280170
C55   C     C_1   0.126368 0.559584 0.880207 0.055706
C56   C     C_1   0.475967 0.528156 0.891637 0.055891
C57   C     C_1   0.477338 0.951506 0.891676 0.054350
C58   C     C_1   0.558334 0.124668 0.380380 0.043058
C59   C     C_1   0.526435 0.476946 0.392152 0.048729
C60   C     C_1   0.949493 0.476486 0.391095 0.045401
C61   C     C_1   0.933965 0.468156 0.612198 0.053547
C62   C     C_1   0.539552 0.460800 0.615769 0.052941
C63   C     C_1   0.568765 0.149927 0.622404 0.039895
C64   C     C_1   0.467928 0.932023 0.112654 0.053119
C65   C     C_1   0.461686 0.539368 0.115799 0.053994
C66   C     C_1   0.151299 0.568774 0.122319 0.044950
C67   C     C_3   0.137082 0.576454 0.747745 -0.088658
C68   C     C_3   0.478089 0.550169 0.764664 -0.108685
C69   C     C_3   0.453772 0.975339 0.765041 -0.109967
C70   C     C_3   0.580088 0.133227 0.248252 -0.141097
C71   C     C_3   0.551072 0.482853 0.266529 -0.123829
C72   C     C_3   0.977129 0.449274 0.264457 -0.124109
C73   C     C_3   0.058214 0.542520 0.791096 -0.015538
C74   C     C_3   0.499833 0.483604 0.802427 -0.015986
C75   C     C_3   0.536265 0.040321 0.805034 -0.001982
C76   C     C_3   0.540754 0.054353 0.291739 -0.020226
C77   C     C_3   0.480793 0.501937 0.303122 -0.018240
C78   C     C_3   0.037040 0.534285 0.304161 -0.002343
C79   C     C_3   0.055743 0.464215 0.724767 -0.085318
C80   C     C_3   0.583634 0.572122 0.737689 -0.114617
C81   C     C_3   0.465030 0.084367 0.746544 -0.120293
C82   C     C_3   0.467545 0.056083 0.224432 -0.078269
C83   C     C_3   0.571384 0.586917 0.238791 -0.085149
C84   C     C_3   0.089737 0.467386 0.247227 -0.100855
Cr1   Cr    Cr6+3 0.504830 0.254570 0.500510 1.097773
Cr2   Cr    Cr6+3 0.745430 0.250260 0.500510 1.114244
Cr3   Cr    Cr6+3 0.749740 0.495170 0.500510 1.093720
Cr4   Cr    Cr6+3 0.254570 0.504830 0.000510 1.105560
Cr5   Cr    Cr6+3 0.250260 0.745430 0.000510 1.115525
Cr6   Cr    Cr6+3 0.495170 0.749740 0.000510 1.097506
H1    H     H_    0.939257 0.349807 0.787184 0.198502
H2    H     H_    0.685206 0.530380 0.793095 0.201916
H3    H     H_    0.550952 0.214103 0.809828 0.191300
H4    H     H_    0.347138 0.942998 0.286194 0.195030
H5    H     H_    0.521704 0.684902 0.292548 0.207598
H6    H     H_    0.215521 0.559731 0.311010 0.187540
H7    H     H_    0.073616 0.408634 0.703948 0.222784
H8    H     H_    0.647401 0.651949 0.721957 0.180901
H9    H     H_    0.396567 0.095879 0.734687 0.196581
H10   H     H_    0.415438 0.078126 0.203069 0.241050
H11   H     H_    0.651962 0.651321 0.223840 0.209954
H12   H     H_    0.106338 0.401730 0.236396 0.215546
H13   H     H_    0.228072 0.614996 0.749533 0.187765
H14   H     H_    0.452013 0.610495 0.772794 0.188018
H15   H     H_    0.376364 0.895161 0.770123 0.191544
H16   H     H_    0.622423 0.224342 0.249951 0.138782
H17   H     H_    0.612759 0.459862 0.276620 0.159665
H18   H     H_    0.898851 0.370340 0.269543 0.123672
O1    O     O_R   0.479630 0.139450 0.552170 -0.456799
O2    O     O_R   0.860550 0.340180 0.552170 -0.501147
O3    O     O_R   0.659820 0.520370 0.552170 -0.487497
O4    O     O_R   0.139450 0.479630 0.052170 -0.450141
O5    O     O_R   0.340180 0.860550 0.052170 -0.500553
O6    O     O_R   0.520370 0.659820 0.052170 -0.486003
O7    O     O_R   0.516200 0.360080 0.548600 -0.513142
O8    O     O_R   0.639920 0.156120 0.548600 -0.451758
O9    O     O_R   0.843880 0.483800 0.548600 -0.493133
O10   O     O_R   0.360080 0.516200 0.048600 -0.513912
O11   O     O_R   0.156120 0.639920 0.048600 -0.454168
O12   O     O_R   0.483800 0.843880 0.048600 -0.493189
O13   O     O_R   0.478560 0.139320 0.448720 -0.462325
O14   O     O_R   0.860680 0.339240 0.448720 -0.494645
O15   O     O_R   0.660760 0.521440 0.448720 -0.484388
O16   O     O_R   0.139320 0.478560 0.948720 -0.459995
O17   O     O_R   0.339240 0.860680 0.948720 -0.492967
O18   O     O_R   0.521440 0.660760 0.948720 -0.485343
O19   O     O_R   0.515210 0.359960 0.452710 -0.505190
O20   O     O_R   0.640040 0.155250 0.452710 -0.455256
O21   O     O_R   0.844750 0.484790 0.452710 -0.486917
O22   O     O_R   0.359960 0.515210 0.952710 -0.502214
O23   O     O_R   0.155250 0.640040 0.952710 -0.458431
O24   O     O_R   0.484790 0.844750 0.952710 -0.486140
O25   O     O_3   0.666667 0.333333 0.499990 -0.343099
O26   O     O_3   0.333333 0.666667 0.999990 -0.345437
S1    S     S_3+6 0.956203 0.678913 0.798425 0.058783
O27   O     O_2   0.880654 0.614473 0.839176 -0.290816
O28   O     O_2   0.056576 0.778904 0.817422 -0.206501
O29   O     O_3   0.890190 0.717757 0.760223 -0.492803
H19   H     H_    0.862041 0.756066 0.780136 0.373657
S2    S     S_3+6 0.326961 0.251632 0.801279 0.043749
O30   O     O_2   0.379398 0.208200 0.834671 -0.296155
O31   O     O_2   0.248119 0.272379 0.829141 -0.215670
O32   O     O_3   0.258016 0.158827 0.758549 -0.506079
H20   H     H_    0.205749 0.090398 0.775997 0.389200
S3    S     S_3+6 0.745394 0.044489 0.792528 0.035256
O33   O     O_2   0.810246 0.131437 0.828874 -0.265123
O34   O     O_2   0.702546 0.932514 0.814654 -0.267696
O35   O     O_3   0.826844 0.060531 0.745533 -0.488965
H21   H     H_    0.888530 0.054506 0.759002 0.381317
S4    S     S_3+6 0.665911 0.941856 0.302822 0.039114
O36   O     O_2   0.762540 0.037858 0.326169 -0.248897
O37   O     O_2   0.592851 0.861763 0.340709 -0.287521
O38   O     O_3   0.710882 0.879867 0.265589 -0.483770
H22   H     H_    0.745546 0.849239 0.286505 0.382142
S5    S     S_3+6 0.249813 0.325232 0.299683 0.055883
O39   O     O_2   0.270597 0.248997 0.329674 -0.221679
O40   O     O_2   0.201475 0.376725 0.330678 -0.304547
O41   O     O_3   0.161320 0.253566 0.255888 -0.450732
H23   H     H_    0.091312 0.201991 0.272482 0.399448
S6    S     S_3+6 0.024312 0.733787 0.288163 0.068415
O42   O     O_2   0.903911 0.684979 0.299527 -0.244374
O43   O     O_2   0.091567 0.790514 0.331462 -0.260105
O44   O     O_3   0.060727 0.825162 0.243031 -0.456256
H24   H     H_    0.045652 0.882175 0.255008 0.396828
S7    S     S_3+6 0.131970 0.754869 0.692646 0.085862
O45   O     O_2   0.213987 0.760777 0.656611 -0.212265
O46   O     O_2   0.041500 0.761546 0.667422 -0.219307
O47   O     O_3   0.194834 0.860019 0.730838 -0.500386
H25   H     H_    0.215325 0.926731 0.711415 0.374183
S8    S     S_3+6 0.280560 0.401390 0.709645 0.043641
O48   O     O_2   0.285999 0.496710 0.682882 -0.252790
O49   O     O_2   0.252987 0.309086 0.675585 -0.241127
O50   O     O_3   0.184752 0.358420 0.753213 -0.512841
H26   H     H_    0.129522 0.281149 0.745511 0.389141
S9    S     S_3+6 0.553658 0.894394 0.695679 0.089779
O51   O     O_2   0.451756 0.841125 0.665581 -0.174436
O52   O     O_2   0.653391 0.949051 0.663560 -0.224905
O53   O     O_3   0.557653 0.797763 0.729448 -0.521973
H27   H     H_    0.636759 0.821348 0.731707 0.381483
S10   S     S_3+6 0.755610 0.119097 0.195245 0.100742
O54   O     O_2   0.754561 0.028039 0.167296 -0.180814
O55   O     O_2   0.770379 0.208984 0.161569 -0.203584
O56   O     O_3   0.861233 0.169445 0.233683 -0.448308
H28   H     H_    0.833916 0.188569 0.262434 0.333309
S11   S     S_3+6 0.410886 0.283218 0.212145 0.053565
O57   O     O_2   0.317427 0.248982 0.177848 -0.175464
O58   O     O_2   0.508842 0.292697 0.186156 -0.279140
O59   O     O_3   0.371041 0.189609 0.256492 -0.471697
H29   H     H_    0.432368 0.221890 0.279648 0.326217
S12   S     S_3+6 0.888162 0.535982 0.192376 0.105266
O60   O     O_2   0.928227 0.646856 0.169651 -0.166793
O61   O     O_2   0.864661 0.453025 0.154045 -0.200378
O62   O     O_3   0.772278 0.498695 0.223384 -0.483247
H30   H     H_    0.751977 0.426490 0.237841 0.321174
H31   H     H_    0.824607 0.446621 0.742859 0.127198
H32   H     H_    0.558367 0.335588 0.738606 0.121771
H33   H     H_    0.724389 0.245824 0.748980 0.130580
H34   H     H_    0.436980 0.819997 0.244037 0.121803
H35   H     H_    0.331578 0.554091 0.236641 0.119910
H36   H     H_    0.237940 0.728556 0.248349 0.132824

loop_
_geom_bond_atom_site_label_1
_geom_bond_atom_site_label_2
_ccdc_geom_bond_type
C68   C80   S    
S1    O29   S    
C15   C75   S    
C13   C79   S    
C2    O1    A    
C9    C45   S    
S12   O60   D    
C71   H17   S    
S5    O40   D    
C84   H12   S    
C31   C61   T    
C11   C47   S    
O44   H24   S    
S2    O32   S    
Cr4   O22   S    
Cr4   O16   S    
C1    C62   S    
S3    O33   D    
C67   H13   S    
S1    O27   D    
C15   C81   S    
Cr5   O17   S    
O50   H26   S    
C10   C22   S    
C19   H31   S    
O62   H30   S    
Cr3   O15   S    
S7    O45   D    
C39   O14   A    
C5    O11   A    
C18   C24   S    
C14   C74   S    
C41   O16   A    
C22   C52   S    
Cr2   O2    S    
C25   C73   S    
C51   C75   S    
C34   C64   T    
Cr3   O9    S    
Cr1   O1    S    
C45   S9    S    
C4    C65   S    
Cr6   O26   S    
C50   S2    S    
S11   O58   D    
C21   C51   S    
Cr3   O3    S    
S8    O48   D    
C51   S3    S    
C3    O2    A    
C68   C74   S    
O32   H20   S    
C23   H35   S    
C18   H6    S    
C12   C84   S    
Cr2   O8    S    
C6    C64   S    
C11   C23   S    
Cr3   O25   S    
C41   C55   S    
C72   C78   S    
C3    O9    A    
S12   O62   S    
C38   C58   S    
C2    O8    A    
C29   C59   T    
S12   O61   D    
C40   C56   S    
S4    O38   S    
C30   C60   T    
Cr2   O14   S    
C20   C50   S    
Cr1   O13   S    
C67   C73   S    
C14   C80   S    
C12   C36   S    
C48   S12   S    
C42   O17   A    
S10   O56   S    
C12   C48   S    
C47   C53   S    
Cr6   O24   S    
C37   C59   S    
C3    C61   S    
C49   S1    S    
S7    O46   D    
C37   O15   A    
C13   H1    S    
S5    O41   S    
C9    C33   S    
C54   S6    S    
C4    O10   A    
C48   C72   S    
C27   C75   S    
C42   C57   S    
C6    O12   A    
S3    O34   D    
S10   O55   D    
C23   C53   S    
S9    O53   S    
C71   C83   S    
C43   S7    S    
Cr5   O5    S    
C7    C31   S    
C13   C19   S    
C45   C69   S    
C8    C32   S    
S6    O44   S    
C14   C20   S    
Cr1   O7    S    
C67   C79   S    
O35   H21   S    
S9    O52   D    
C70   H16   S    
C41   O23   A    
C35   C65   T    
C69   H15   S    
C43   C49   S    
S11   O59   S    
C36   C66   T    
C81   H9    S    
C11   C83   S    
Cr2   O20   S    
C10   C82   S    
O59   H29   S    
C17   C83   S    
Cr6   O12   S    
C48   C54   S    
O56   H28   S    
C6    O5    A    
C10   C46   S    
C46   S10   S    
C19   C49   S    
Cr2   O25   S    
C18   C84   S    
S9    O51   D    
C17   C23   S    
C33   C63   T    
C40   O18   A    
C17   C77   S    
Cr6   O18   S    
C10   C34   S    
C8    C20   S    
S2    O30   D    
C14   H2    S    
C72   C84   S    
C69   C81   S    
C17   H5    S    
Cr4   O4    S    
C43   C67   S    
C18   C78   S    
C13   C73   S    
C53   S5    S    
S7    O47   S    
C7    C19   S    
C27   C57   T    
C53   C77   S    
C49   C73   S    
C44   C68   S    
C47   S11   S    
C47   C71   S    
Cr4   O10   S    
C28   C76   S    
C71   C77   S    
S3    O35   S    
S10   O54   D    
C7    C79   S    
C44   C50   S    
C7    C43   S    
S1    O28   D    
C40   O22   A    
C2    C63   S    
O47   H25   S    
C16   C22   S    
Cr5   O26   S    
C83   H11   S    
C80   H8    S    
C16   C76   S    
C82   H10   S    
C79   H7    S    
S6    O43   D    
C68   H14   S    
C21   H33   S    
C5    C66   S    
C52   C76   S    
C26   C56   T    
C15   H3    S    
C38   O20   A    
S2    O31   D    
C5    O4    A    
C28   C58   T    
C39   O21   A    
C12   C24   S    
C16   H4    S    
Cr5   O23   S    
S6    O42   D    
Cr3   O21   S    
C50   C74   S    
C32   C62   T    
C1    O3    A    
C46   C52   S    
C70   C76   S    
C9    C21   S    
S11   O57   D    
O41   H23   S    
S8    O49   D    
C22   H34   S    
C39   C60   S    
C11   C35   S    
C26   C74   S    
C25   C55   T    
C69   C75   S    
S4    O37   D    
Cr6   O6    S    
C72   H18   S    
C8    C44   S    
C70   C82   S    
C44   S8    S    
C46   C70   S    
C38   O13   A    
Cr1   O19   S    
O29   H19   S    
C4    O6    A    
Cr4   O26   S    
C30   C78   S    
C15   C21   S    
C29   C77   S    
C24   H36   S    
C52   S4    S    
C16   C82   S    
Cr1   O25   S    
S5    O39   D    
C8    C80   S    
C45   C51   S    
S4    O36   D    
C42   O24   A    
C1    O7    A    
C54   C78   S    
O38   H22   S    
C24   C54   S    
C20   H32   S    
Cr5   O11   S    
C9    C81   S    
O53   H27   S    
C37   O19   A    
S8    O50   S    
