data_mof_unit_54917.cif
_audit_creation_date              2012-12-10T19:45:59-0500
_audit_creation_method            fapswitch 2.2
_symmetry_space_group_name_H-M    P1
_symmetry_Int_Tables_number       1
_space_group_crystal_system       triclinic
_cell_length_a                    10.379453
_cell_length_b                    14.855693
_cell_length_c                    14.238574
_cell_angle_alpha                 89.942687
_cell_angle_beta                  103.022517
_cell_angle_gamma                 91.792087
_cell_volume                      2137.94993483

loop_
_atom_site_label
_atom_site_type_symbol
_atom_type_description
_atom_site_fract_x
_atom_site_fract_y
_atom_site_fract_z
_atom_type_partial_charge
C1    C     C_R   0.501712 0.327688 0.500307 1.026530
C2    C     C_R   0.450086 0.426448 0.787632 0.425310
C3    C     C_R   0.613153 0.524765 0.122246 0.306906
C4    C     C_R   0.453827 0.424095 0.888402 0.326145
C5    C     C_R   0.496719 0.503522 0.052460 -0.087118
C6    C     C_R   0.497562 0.501361 0.946198 -0.080536
C7    C     C_R   0.255737 0.497209 0.460394 0.842427
C8    C     C_R   0.744043 0.496760 0.539354 0.862219
C9    C     C_2   0.110766 0.482385 0.440650 0.245035
C10   C     C_2   0.885410 0.476652 0.556677 0.214718
C11   C     C_2   0.064476 0.417226 0.492437 0.376019
C12   C     C_R   0.502625 0.672175 0.500689 0.958502
C13   C     C_2   0.921788 0.417849 0.495440 0.401913
C14   C     C_R   0.633141 0.103414 0.580899 0.559463
C15   C     C_R   0.446911 0.910665 0.548204 0.543425
C16   C     C_R   0.617950 0.196554 0.574578 -0.439479
C17   C     C_R   0.428901 0.818010 0.538996 -0.373821
C18   C     C_R   0.518107 0.232087 0.502778 -0.265339
C19   C     C_R   0.520938 0.767997 0.505875 -0.258059
C20   C     C_R   0.437011 0.176803 0.432917 0.393422
C21   C     C_R   0.636301 0.808645 0.486952 0.365033
C22   C     C_R   0.462890 0.085291 0.431126 0.419779
C23   C     C_R   0.554922 0.049098 0.508286 -0.058525
C24   C     C_R   0.649513 0.902827 0.487721 0.435669
C25   C     C_3   0.870943 0.313236 0.367869 -0.308022
C26   C     C_3   0.096969 0.302363 0.607815 -0.238833
C27   C     C_3   0.812487 0.471962 0.111966 -0.310044
C28   C     C_3   0.506409 0.300748 0.984269 -0.364873
C29   C     C_3   0.963460 0.524846 0.712658 -0.348680
C30   C     C_3   0.078792 0.596588 0.324446 -0.277757
C31   C     C_3   0.728058 0.099426 0.744520 -0.358385
C32   C     C_3   0.366872 0.953966 0.676285 -0.347275
C33   C     C_3   0.213625 0.187062 0.395312 -0.268233
C34   C     C_R   0.554135 0.952542 0.518520 -0.065322
C35   C     C_3   0.827240 0.739118 0.550713 -0.260942
C36   C     C_3   0.425774 0.045658 0.272558 -0.325622
C37   C     C_3   0.763609 0.927771 0.368285 -0.255638
C38   C     C_3   0.178276 0.537068 0.020493 -0.303434
C39   C     C_3   0.467184 0.716280 0.926299 -0.341315
C40   C     C_3   0.262314 0.346147 0.194923 -0.196601
C41   C     C_3   0.731585 0.672760 0.815806 -0.244627
C42   C     C_3   0.725039 0.658841 0.276150 -0.152537
C43   C     C_3   0.446935 0.275815 0.747479 -0.223287
C44   C     C_R   0.381244 0.482129 0.085124 0.323763
C45   C     C_R   0.540532 0.577716 0.901716 0.338470
C46   C     C_R   0.388595 0.472129 0.185811 0.365481
C47   C     C_R   0.552308 0.573034 0.803820 0.389647
C48   C     C_R   0.609101 0.530670 0.221278 0.391292
H1    H     H_    0.681918 0.241502 0.625736 0.179188
H2    H     H_    0.847359 0.461115 0.190674 0.214339
H3    H     H_    0.900981 0.486741 0.082474 0.179464
H4    H     H_    0.534200 0.328464 0.058605 0.158583
H5    H     H_    0.595453 0.298423 0.952889 0.124752
H6    H     H_    0.470790 0.230207 0.989898 0.176465
H7    H     H_    0.942419 0.454727 0.734209 0.155054
H8    H     H_    0.883917 0.569601 0.721496 0.182089
H9    H     H_    0.056041 0.549350 0.762494 0.202855
H10   H     H_    0.120978 0.557565 0.272711 0.205256
H11   H     H_    0.153709 0.643536 0.368937 0.142739
H12   H     H_    0.342467 0.785246 0.556394 0.184831
H13   H     H_    0.001237 0.638240 0.280559 0.189904
H14   H     H_    0.626452 0.110061 0.755083 0.136866
H15   H     H_    0.788802 0.162985 0.757195 0.167504
H16   H     H_    0.774966 0.050700 0.799876 0.190364
H17   H     H_    0.469307 0.972947 0.716041 0.160662
H18   H     H_    0.339214 0.884743 0.696183 0.170824
H19   H     H_    0.299025 0.001047 0.699492 0.189999
H20   H     H_    0.219193 0.201255 0.472896 0.191246
H21   H     H_    0.187287 0.114817 0.379120 0.214590
H22   H     H_    0.132477 0.226641 0.352673 0.152456
H23   H     H_    0.917722 0.358965 0.322496 0.166495
H24   H     H_    0.871118 0.802411 0.588122 0.181873
H25   H     H_    0.782612 0.696045 0.599549 0.166591
H26   H     H_    0.908845 0.701517 0.532117 0.221683
H27   H     H_    0.535179 0.049124 0.281018 0.139954
H28   H     H_    0.381948 0.108567 0.239258 0.199165
H29   H     H_    0.386339 0.989475 0.221953 0.177441
H30   H     H_    0.665082 0.912526 0.319583 0.125814
H31   H     H_    0.830282 0.871016 0.367155 0.202713
H32   H     H_    0.807215 0.987415 0.338496 0.162130
H33   H     H_    0.226376 0.603328 0.010874 0.133867
H34   H     H_    0.785046 0.278552 0.319464 0.180939
H35   H     H_    0.142305 0.537272 0.088279 0.183591
H36   H     H_    0.090485 0.528024 0.959915 0.170252
H37   H     H_    0.460501 0.740474 0.851484 0.191524
H38   H     H_    0.486987 0.775965 0.974745 0.175215
H39   H     H_    0.370852 0.685044 0.932835 0.149070
H40   H     H_    0.354985 0.309039 0.221383 0.182763
H41   H     H_    0.225001 0.334276 0.116420 0.188126
H42   H     H_    0.185682 0.318131 0.230577 0.182373
H43   H     H_    0.789982 0.701920 0.766379 0.139107
H44   H     H_    0.788741 0.616704 0.855515 0.135285
H45   H     H_    0.939605 0.260655 0.401537 0.157664
H46   H     H_    0.722366 0.727826 0.866144 0.210490
H47   H     H_    0.810524 0.686203 0.330764 0.214388
H48   H     H_    0.634103 0.690798 0.287459 0.162074
H49   H     H_    0.742928 0.678221 0.204675 0.159723
H50   H     H_    0.424498 0.234099 0.680995 0.177909
H51   H     H_    0.404548 0.237299 0.800594 0.181884
H52   H     H_    0.556716 0.283271 0.771102 0.107927
H53   H     H_    0.007781 0.262460 0.570779 0.149870
H54   H     H_    0.074827 0.345573 0.665443 0.189356
H55   H     H_    0.170557 0.253223 0.642817 0.202136
H56   H     H_    0.763199 0.409527 0.075869 0.126755
N1    N     N_R   0.500000 0.499980 0.252470 -0.199942
N2    N     N_R   0.500000 0.500020 0.747530 -0.204516
O1    O     O_R   0.500010 0.369070 0.579480 -0.585813
O2    O     O_3   0.151785 0.354264 0.542432 -0.625585
O3    O     O_3   0.728931 0.545908 0.093132 -0.553857
O4    O     O_3   0.402326 0.349119 0.926841 -0.531325
O5    O     O_3   0.981516 0.529690 0.617693 -0.639561
O6    O     O_3   0.020166 0.538689 0.382601 -0.616692
O7    O     O_3   0.727229 0.063373 0.652640 -0.573179
O8    O     O_3   0.352421 0.961831 0.575785 -0.589829
O9    O     O_3   0.331946 0.212520 0.367872 -0.632078
O10   O     O_3   0.733526 0.756654 0.465013 -0.640564
O11   O     O_3   0.389010 0.028557 0.360620 -0.590990
O12   O     O_R   0.499990 0.630930 0.420520 -0.609157
O13   O     O_3   0.757203 0.947663 0.464147 -0.574492
O14   O     O_3   0.263518 0.465386 0.018329 -0.541955
O15   O     O_3   0.571723 0.656575 0.954708 -0.559060
O16   O     O_3   0.280271 0.438767 0.217268 -0.590719
O17   O     O_3   0.605618 0.644669 0.760943 -0.564439
O18   O     O_3   0.717925 0.564579 0.287270 -0.524028
O19   O     O_3   0.384154 0.358903 0.726768 -0.519466
O20   O     O_R   0.500010 0.369060 0.420520 -0.566241
O21   O     O_R   0.499990 0.630940 0.579480 -0.559997
O22   O     O_R   0.317810 0.500010 0.549800 -0.548879
O23   O     O_R   0.682190 0.499990 0.450200 -0.504045
O24   O     O_R   0.317810 0.500000 0.390840 -0.580306
O25   O     O_R   0.682190 0.500000 0.609160 -0.639269
O26   O     O_3   0.824796 0.360852 0.438637 -0.624861
Zn1   Zn    Zn3+2 0.500000 0.500010 0.606140 1.025914
Zn2   Zn    Zn3+2 0.500000 0.499990 0.393860 1.041893

loop_
_geom_bond_atom_site_label_1
_geom_bond_atom_site_label_2
_ccdc_geom_bond_type
C22   O11   S    
C35   H26   S    
C25   H45   S    
C6    C45   A    
C38   H35   S    
C11   C13   S    
C3    C48   A    
C43   H50   S    
C39   H39   S    
C43   O19   S    
C42   O18   S    
C12   O21   A    
C37   H31   S    
C1    C18   S    
C42   H48   S    
C19   C21   A    
C43   H51   S    
C36   H29   S    
C26   H53   S    
C5    C6    S    
C44   O14   S    
C16   H1    S    
C46   N1    A    
C27   H56   S    
C15   C17   A    
C7    O24   A    
C36   H28   S    
N2    Zn1   S    
C48   N1    A    
C44   C46   A    
C25   H23   S    
C40   H41   S    
C15   C34   A    
O12   Zn2   S    
C27   H2    S    
C33   H21   S    
C38   O14   S    
C23   C34   S    
C9    O6    S    
C31   H14   S    
O24   Zn2   S    
C21   O10   S    
C27   H3    S    
C45   C47   A    
C37   H32   S    
C33   O9    S    
C42   H47   S    
C31   H15   S    
C10   O5    S    
C1    O20   A    
C4    C6    A    
C42   H49   S    
C26   O2    S    
C28   H6    S    
C29   H7    S    
C28   O4    S    
C2    N2    A    
C24   C34   A    
C30   O6    S    
C14   C23   A    
C2    C4    A    
C32   O8    S    
C36   H27   S    
C26   H55   S    
C47   O17   S    
C41   H46   S    
C37   O13   S    
C47   N2    A    
C30   H11   S    
C8    O25   A    
C15   O8    S    
C35   O10   S    
C43   H52   S    
C36   O11   S    
C9    C11   D    
O20   Zn2   S    
C33   H22   S    
C1    O1    A    
C32   H19   S    
C12   O12   A    
C16   C18   A    
C41   H43   S    
C5    C44   A    
C29   H9    S    
C35   H24   S    
C38   H33   S    
C25   H34   S    
C7    O22   A    
C14   C16   A    
C30   H13   S    
C39   H37   S    
C3    C5    A    
C11   O2    S    
C32   H18   S    
C7    C9    S    
C4    O4    S    
C35   H25   S    
C24   O13   S    
C38   H36   S    
C31   H16   S    
C29   O5    S    
O21   Zn1   S    
C20   C22   A    
O25   Zn1   S    
C10   C13   D    
C48   O18   S    
C20   O9    S    
C28   H5    S    
C29   H8    S    
C14   O7    S    
C40   O16   S    
C37   H30   S    
C39   O15   S    
C45   O15   S    
C40   H40   S    
O1    Zn1   S    
O22   Zn1   S    
C26   H54   S    
C28   H4    S    
C41   O17   S    
C3    O3    S    
C30   H10   S    
C12   C19   S    
C17   C19   A    
C13   O26   S    
C18   C20   A    
C17   H12   S    
O23   Zn2   S    
C2    O19   S    
C41   H44   S    
C27   O3    S    
C8    C10   S    
C21   C24   A    
C8    O23   A    
C22   C23   A    
C46   O16   S    
C39   H38   S    
C40   H42   S    
C25   O26   S    
C31   O7    S    
C33   H20   S    
C32   H17   S    
N1    Zn2   S    
