data_mof_unit_67556.cif
_audit_creation_date              2012-10-26T18:48:18-0400
_audit_creation_method            fapswitch 2.2
_symmetry_space_group_name_H-M    P1
_symmetry_Int_Tables_number       1
_space_group_crystal_system       triclinic
_cell_length_a                    10.637107
_cell_length_b                    8.699048
_cell_length_c                    7.556516
_cell_angle_alpha                 103.026299
_cell_angle_beta                  95.482469
_cell_angle_gamma                 95.227887
_cell_volume                      673.524787427

loop_
_atom_site_label
_atom_site_type_symbol
_atom_type_description
_atom_site_fract_x
_atom_site_fract_y
_atom_site_fract_z
_atom_type_partial_charge
C1    C     C_R   0.495721 0.199900 0.453144 0.541475
C2    C     C_3   0.122862 0.494467 0.498818 0.010944
C3    C     C_3   0.980955 0.606923 0.651336 0.131247
C4    C     C_3   0.017730 0.401521 0.348440 0.125017
C5    C     C_2   0.492355 0.031432 0.427623 -0.155068
C6    C     C_2   0.508718 0.968685 0.572380 -0.140759
C7    C     C_3   0.948966 0.081000 0.489811 -0.274024
C8    C     C_3   0.166198 0.821397 0.338479 -0.320990
C9    C     C_3   0.041949 0.849906 0.895324 -0.301478
C10   C     C_3   0.925205 0.238963 0.050048 -0.296661
C11   C     C_R   0.504655 0.800140 0.546862 0.539485
C12   C     C_R   0.259459 0.493389 0.498944 0.550615
C13   C     C_R   0.740393 0.509461 0.501409 0.563898
C14   C     C_3   0.045872 0.455167 0.651503 -0.133753
C15   C     C_3   0.953103 0.553735 0.350164 -0.124772
C16   C     C_3   0.941953 0.362157 0.497706 0.131736
C17   C     C_3   0.058242 0.645756 0.502596 0.131979
C18   C     C_3   0.876940 0.512331 0.501656 0.024988
Cu1   Cu    Cu3+1 0.514140 0.517380 0.684380 1.059054
Cu2   Cu    Cu3+1 0.485860 0.482620 0.315620 1.034897
H1    H     H_    0.082561 0.416029 0.774483 0.135736
H2    H     H_    0.203518 0.947799 0.354579 0.150471
H3    H     H_    0.083218 0.791248 0.232621 0.146460
H4    H     H_    0.241179 0.746188 0.293872 0.187975
H5    H     H_    0.915851 0.655693 0.905929 0.264558
H6    H     H_    0.009374 0.917959 0.021701 0.147135
H7    H     H_    0.049266 0.931366 0.802733 0.180813
H8    H     H_    0.136245 0.811109 0.928604 0.148517
H9    H     H_    0.113133 0.331968 0.123375 0.283827
H10   H     H_    0.949575 0.157976 0.925856 0.150330
H11   H     H_    0.887510 0.341738 0.007465 0.158893
H12   H     H_    0.914111 0.593807 0.229263 0.126596
H13   H     H_    0.850685 0.174517 0.107917 0.176906
H14   H     H_    0.475297 0.958644 0.288538 0.152566
H15   H     H_    0.525687 0.041453 0.711471 0.161974
H16   H     H_    0.790598 0.181892 0.406437 0.257437
H17   H     H_    0.891095 0.977106 0.515401 0.175933
H18   H     H_    0.032779 0.115326 0.595858 0.167874
H19   H     H_    0.981277 0.046556 0.352626 0.176306
H20   H     H_    0.202342 0.830611 0.614833 0.259347
I1    I     I_    0.327763 0.273925 0.894235 -0.331987
I2    I     I_    0.672696 0.725828 0.104798 -0.307568
N1    N     N_2   0.464560 0.456420 0.038510 -0.030674
N2    N     N_2   0.535440 0.543580 0.961490 -0.027361
N3    N     N_2   0.872742 0.210668 0.496864 -0.518435
N4    N     N_2   0.128648 0.798243 0.509920 -0.533813
N5    N     N_2   0.949684 0.714471 0.812948 -0.496932
N6    N     N_2   0.037551 0.290929 0.181915 -0.524987
O1    O     O_R   0.509190 0.286130 0.619780 -0.482667
O2    O     O_R   0.490810 0.713870 0.380220 -0.497247
O3    O     O_R   0.485310 0.256770 0.308360 -0.487249
O4    O     O_R   0.514690 0.743230 0.691640 -0.484363
O5    O     O_R   0.328790 0.514640 0.655680 -0.492690
O6    O     O_R   0.671210 0.485360 0.344320 -0.498356
O7    O     O_R   0.304910 0.485280 0.344260 -0.512061
O8    O     O_R   0.695090 0.514720 0.655740 -0.481094

loop_
_geom_bond_atom_site_label_1
_geom_bond_atom_site_label_2
_ccdc_geom_bond_type
Cu1   O8    S    
C16   N3    S    
C15   C18   S    
C8    H2    S    
N1    N2    D    
C4    C16   S    
Cu2   N1    S    
Cu2   O2    S    
Cu2   O3    S    
I1    N1    S    
H5    N5    S    
Cu1   O4    S    
C2    C4    S    
C12   O5    A    
C13   O8    A    
C2    C12   S    
C5    H14   S    
Cu1   O5    S    
C4    C15   S    
C7    H17   S    
C17   N4    S    
H16   N3    S    
C11   O2    A    
Cu1   N2    S    
C2    C17   S    
H20   N4    S    
C1    O3    A    
C3    C14   S    
I2    N2    S    
C13   C18   S    
Cu2   O7    S    
C1    C5    S    
C7    N3    S    
C14   H1    S    
Cu2   O6    S    
C8    H4    S    
C7    H18   S    
C9    H6    S    
C3    C17   S    
C10   H13   S    
C8    N4    S    
C10   N6    S    
C5    C6    D    
C2    C14   S    
C14   C16   S    
C10   H10   S    
C9    N5    S    
H9    N6    S    
C12   O7    A    
C15   H12   S    
C8    H3    S    
C6    H15   S    
C9    H7    S    
C3    C18   S    
C16   C18   S    
C13   O6    A    
C4    N6    S    
C3    N5    S    
C6    C11   S    
C15   C17   S    
Cu1   O1    S    
C7    H19   S    
C11   O4    A    
C1    O1    A    
C10   H11   S    
Cu1   Cu2   S    
C9    H8    S    
