data_mof_unit_29910.cif
_audit_creation_date              2012-10-26T18:51:47-0400
_audit_creation_method            fapswitch 2.2
_symmetry_space_group_name_H-M    P1
_symmetry_Int_Tables_number       1
_space_group_crystal_system       triclinic
_cell_length_a                    11.697146
_cell_length_b                    14.62678
_cell_length_c                    14.747341
_cell_angle_alpha                 64.762583
_cell_angle_beta                  103.374718
_cell_angle_gamma                 102.372265
_cell_volume                      2201.15534833

loop_
_atom_site_label
_atom_site_type_symbol
_atom_type_description
_atom_site_fract_x
_atom_site_fract_y
_atom_site_fract_z
_atom_type_partial_charge
C1    C     C_R   0.484808 0.119898 0.312310 0.549372
C2    C     C_R   0.657712 0.609936 0.094244 -0.114925
C3    C     C_R   0.730705 0.308246 0.623511 -0.146206
C4    C     C_R   0.282130 0.707225 0.349630 -0.152960
C5    C     C_R   0.683733 0.215062 0.617146 0.059996
C6    C     C_R   0.319569 0.790245 0.376676 0.052856
C7    C     C_R   0.509375 0.283208 0.513452 0.041639
C8    C     C_R   0.495033 0.720514 0.475342 0.029085
C9    C     C_R   0.557036 0.383169 0.508089 -0.006701
C10   C     C_R   0.468133 0.639777 0.440976 -0.001324
C11   C     C_R   0.669131 0.392886 0.567700 0.023629
C12   C     C_R   0.522589 0.879803 0.687878 0.553276
C13   C     C_R   0.355727 0.631507 0.382059 0.028300
C14   C     C_R   0.496588 0.472096 0.451064 0.013458
C15   C     C_R   0.544046 0.563563 0.468638 0.017070
C16   C     C_R   0.284141 0.000543 0.499882 0.554156
C17   C     C_R   0.715838 0.999549 0.499948 0.550981
C18   C     C_R   0.666301 0.575063 0.510615 -0.018177
C19   C     C_R   0.392037 0.475957 0.376886 -0.010590
C20   C     C_R   0.722569 0.487835 0.567221 -0.113759
C21   C     C_R   0.318832 0.550228 0.352122 -0.106916
C22   C     C_1   0.162661 0.001241 0.499912 -0.023349
C23   C     C_R   0.495721 0.317942 0.001243 0.054437
C24   C     C_1   0.837262 0.999045 0.499577 -0.022749
C25   C     C_1   0.060022 0.000819 0.499752 -0.046523
C26   C     C_1   0.939904 0.999690 0.499561 -0.045588
C27   C     C_R   0.489327 0.186813 0.205134 -0.070852
C28   C     C_R   0.550933 0.811322 0.795067 -0.065412
C29   C     C_R   0.455129 0.213537 0.027878 0.377107
C30   C     C_R   0.640269 0.782496 0.968890 0.376109
C31   C     C_R   0.451492 0.148665 0.129184 -0.086518
C32   C     C_R   0.605102 0.849275 0.869474 -0.084474
C33   C     C_R   0.535527 0.289554 0.179320 -0.171248
C34   C     C_R   0.623304 0.676708 0.994631 0.055448
C35   C     C_R   0.531841 0.706144 0.821154 -0.160745
C36   C     C_R   0.539086 0.357097 0.077630 -0.020609
C37   C     C_R   0.570912 0.637366 0.919519 -0.019956
C38   C     C_3   0.744415 0.677944 0.484795 -0.264935
C39   C     C_3   0.848736 0.683720 0.434325 -0.295149
C40   C     C_3   0.922696 0.788701 0.405320 -0.428258
C41   C     C_3   0.360433 0.411730 0.313562 -0.268992
C42   C     C_3   0.340579 0.475911 0.197960 -0.294625
C43   C     C_3   0.280244 0.409478 0.139291 -0.439944
C44   C     C_R   0.576793 0.463430 0.049594 0.039750
C45   C     C_R   0.555032 0.530414 0.945792 0.038841
C46   C     C_R   0.518718 0.488241 0.871750 -0.153298
C47   C     C_R   0.634249 0.505199 0.121638 -0.165052
C48   C     C_R   0.491146 0.383807 0.899281 -0.102474
Cu1   Cu    Cu3+1 0.469550 0.918260 0.475690 0.937609
Cu2   Cu    Cu3+1 0.530450 0.081740 0.524310 0.946100
F1    F     F_    0.415440 0.174721 0.955686 -0.632516
F2    F     F_    0.691526 0.821412 0.039702 -0.638517
H1    H     H_    0.461982 0.355094 0.839867 0.180504
H2    H     H_    0.233050 0.546936 0.305163 0.108583
H3    H     H_    0.571416 0.724003 0.531670 0.115648
H4    H     H_    0.419840 0.266397 0.479855 0.121481
H5    H     H_    0.264306 0.850242 0.348627 0.130677
H6    H     H_    0.735096 0.151854 0.654389 0.132640
H7    H     H_    0.817291 0.315253 0.668184 0.101434
H8    H     H_    0.197071 0.703341 0.301868 0.097166
H9    H     H_    0.867450 0.848821 0.351261 0.177490
H10   H     H_    0.960712 0.804636 0.474209 0.161392
H11   H     H_    0.996640 0.790742 0.368631 0.145881
H12   H     H_    0.700482 0.638438 0.152324 0.172680
H13   H     H_    0.908149 0.626285 0.486446 0.156984
H14   H     H_    0.814042 0.668136 0.364736 0.181516
H15   H     H_    0.694351 0.740698 0.429045 0.163560
H16   H     H_    0.778699 0.691947 0.555256 0.140336
H17   H     H_    0.324923 0.341094 0.165282 0.167020
H18   H     H_    0.186247 0.384074 0.150909 0.155236
H19   H     H_    0.282800 0.453960 0.056940 0.158717
H20   H     H_    0.284244 0.536323 0.176031 0.167395
H21   H     H_    0.427338 0.514380 0.173366 0.181013
H22   H     H_    0.433363 0.368462 0.325630 0.143808
H23   H     H_    0.484125 0.679372 0.763484 0.140397
H24   H     H_    0.279206 0.357721 0.335921 0.145906
H25   H     H_    0.562015 0.316401 0.239586 0.138173
H26   H     H_    0.621360 0.930568 0.850633 0.164951
H27   H     H_    0.417548 0.068878 0.147933 0.163308
H28   H     H_    0.512972 0.534060 0.791426 0.107204
H29   H     H_    0.663688 0.458692 0.199972 0.109575
H30   H     H_    0.811967 0.494992 0.607454 0.109926
N1    N     N_R   0.576230 0.204580 0.560790 -0.231773
N2    N     N_R   0.423770 0.795420 0.439210 -0.230423
O1    O     O_R   0.459870 0.022090 0.338120 -0.497943
O2    O     O_R   0.540130 0.977910 0.661880 -0.494408
O3    O     O_R   0.511290 0.160150 0.379180 -0.508925
O4    O     O_R   0.488710 0.839850 0.620820 -0.502248
O5    O     O_R   0.311490 0.930960 0.479480 -0.504699
O6    O     O_R   0.688510 0.069040 0.520520 -0.501132
O7    O     O_R   0.362910 0.069020 0.520540 -0.493362
O8    O     O_R   0.637090 0.930980 0.479460 -0.501565

loop_
_geom_bond_atom_site_label_1
_geom_bond_atom_site_label_2
_ccdc_geom_bond_type
C1    O3    A    
C15   C18   A    
C7    N1    A    
C20   H30   S    
C34   C37   A    
C41   C42   S    
Cu1   O4    S    
C45   C46   A    
C27   C33   A    
C35   H23   S    
C40   H11   S    
C5    H6    S    
C12   C28   S    
C23   C29   A    
Cu1   N2    S    
C35   C37   A    
C24   C26   T    
C10   C15   A    
C38   C39   S    
C5    N1    A    
C33   C36   A    
C40   H10   S    
C4    C13   A    
C41   H22   S    
Cu2   O6    S    
C28   C35   A    
C22   C25   T    
C43   H19   S    
C44   C47   A    
C2    C34   A    
C16   O5    A    
C43   H17   S    
C39   H13   S    
C6    H5    S    
C17   O8    A    
C7    H4    S    
C8    H3    S    
C2    H12   S    
Cu2   N1    S    
C1    O1    A    
C48   H1    S    
C46   C48   A    
C11   C20   A    
C17   C24   S    
C6    N2    A    
C30   C34   A    
C27   C31   A    
Cu1   O1    S    
C28   C32   A    
C4    C6    A    
C39   C40   S    
C12   O4    A    
C25   C26   S    
C40   H9    S    
C9    C14   A    
C4    H8    S    
C42   H20   S    
C13   C21   A    
C9    C11   A    
Cu2   O3    S    
C38   H16   S    
C23   C36   A    
C43   H18   S    
C39   H14   S    
C36   C44   A    
C42   C43   S    
Cu1   O8    S    
C37   C45   A    
C44   C45   A    
C29   F1    S    
C7    C9    A    
C30   F2    S    
C42   H21   S    
C16   C22   S    
C23   C48   A    
C19   C21   A    
C8    N2    A    
C14   C19   A    
C17   O6    A    
Cu1   O5    S    
C3    C5    A    
C10   C13   A    
C31   H27   S    
C2    C47   A    
C12   O2    A    
C18   C38   S    
C29   C31   A    
C41   H24   S    
C30   C32   A    
C33   H25   S    
C21   H2    S    
C18   C20   A    
C47   H29   S    
C3    C11   A    
Cu2   O2    S    
C32   H26   S    
Cu2   O7    S    
C38   H15   S    
C16   O7    A    
C8    C10   A    
Cu1   Cu2   S    
C1    C27   S    
C14   C15   A    
C46   H28   S    
C19   C41   S    
C3    H7    S    
