data_mof_unit_5722.cif
_audit_creation_date              2012-12-10T17:25:58-0500
_audit_creation_method            fapswitch 2.2
_symmetry_space_group_name_H-M    P1
_symmetry_Int_Tables_number       1
_space_group_crystal_system       triclinic
_cell_length_a                    25.957326
_cell_length_b                    25.975149
_cell_length_c                    22.222343
_cell_angle_alpha                 90.017631
_cell_angle_beta                  125.927057
_cell_angle_gamma                 89.976561
_cell_volume                      12132.9559

loop_
_atom_site_label
_atom_site_type_symbol
_atom_type_description
_atom_site_fract_x
_atom_site_fract_y
_atom_site_fract_z
_atom_type_partial_charge
C1    C     C_R   0.900035 0.750081 0.300576 0.804410
C2    C     C_R   0.099849 0.249955 0.699442 0.809726
C3    C     C_R   0.099931 0.750089 0.699442 0.804701
C4    C     C_R   0.900219 0.250014 0.300553 0.810677
C5    C     C_R   0.400224 0.249968 0.300579 0.805074
C6    C     C_R   0.599816 0.749987 0.699445 0.806555
C7    C     C_R   0.599760 0.249981 0.699438 0.805907
C8    C     C_R   0.400307 0.750101 0.300552 0.806948
C9    C     C_3   0.201335 0.721274 0.974553 -0.324400
C10   C     C_3   0.759486 0.299364 0.024607 -0.320434
C11   C     C_3   0.778437 0.704431 0.025607 -0.327432
C12   C     C_3   0.216522 0.293607 0.974937 -0.328797
C13   C     C_3   0.740279 0.200817 0.975305 -0.317186
C14   C     C_3   0.304220 0.782065 0.025588 -0.317720
C15   C     C_3   0.284378 0.204810 0.025278 -0.324720
C16   C     C_3   0.717134 0.795962 0.974503 -0.324569
C17   C     C_1   0.140806 0.750767 0.778826 -0.141527
C18   C     C_1   0.860415 0.250094 0.221145 -0.138386
C19   C     C_1   0.859106 0.750483 0.221206 -0.140143
C20   C     C_1   0.140052 0.249681 0.778858 -0.139594
C21   C     C_1   0.639503 0.249918 0.778828 -0.139289
C22   C     C_1   0.361168 0.750789 0.221153 -0.137490
C23   C     C_1   0.360434 0.249737 0.221202 -0.139165
C24   C     C_1   0.639601 0.750080 0.778868 -0.141165
C25   C     C_3   0.285540 0.733645 0.976605 0.597234
C26   C     C_3   0.721797 0.224148 0.024007 0.594801
C27   C     C_3   0.711325 0.756953 0.022526 0.597184
C28   C     C_3   0.286625 0.245843 0.976724 0.597196
C29   C     C_3   0.778008 0.276057 0.975890 0.582347
C30   C     C_3   0.219921 0.769735 0.023297 0.586176
C31   C     C_3   0.214267 0.252548 0.023485 0.583561
C32   C     C_3   0.784512 0.743483 0.977785 0.602294
C33   C     C_3   0.216288 0.751687 0.926698 0.072204
C34   C     C_3   0.786775 0.250328 0.073242 0.067176
C35   C     C_3   0.783602 0.750215 0.073364 0.070105
C36   C     C_3   0.213969 0.249236 0.926770 0.067644
C37   C     C_3   0.713022 0.249836 0.926706 0.071176
C38   C     C_3   0.289104 0.751606 0.073280 0.072604
C39   C     C_3   0.286942 0.249186 0.073352 0.072539
C40   C     C_3   0.712183 0.750211 0.926766 0.064191
C41   C     C_1   0.175271 0.751253 0.845593 -0.005510
C42   C     C_1   0.827048 0.250177 0.154358 0.000139
C43   C     C_1   0.824495 0.750450 0.154450 -0.002981
C44   C     C_1   0.173706 0.249427 0.845650 -0.002527
C45   C     C_1   0.672795 0.249901 0.845604 0.000728
C46   C     C_1   0.328531 0.751318 0.154381 -0.000793
C47   C     C_1   0.327054 0.249455 0.154435 -0.001132
C48   C     C_1   0.672716 0.750135 0.845660 -0.002647
C49   C     C_R   0.869832 0.722816 0.631834 -0.140928
C50   C     C_R   0.130951 0.280394 0.369780 -0.146301
C51   C     C_R   0.263465 0.773706 0.633381 -0.147841
C52   C     C_R   0.868943 0.280559 0.630096 -0.147665
C53   C     C_R   0.370062 0.223722 0.632247 -0.141176
C54   C     C_R   0.630868 0.780137 0.369587 -0.148636
C55   C     C_R   0.630027 0.223175 0.367868 -0.141518
C56   C     C_R   0.236590 0.725921 0.366763 -0.147713
C57   C     C_R   0.875446 0.710586 0.696447 -0.158031
C58   C     C_R   0.125894 0.295174 0.306263 -0.128726
C59   C     C_R   0.323138 0.783997 0.698693 -0.144169
C60   C     C_R   0.873962 0.295414 0.693575 -0.128978
C61   C     C_R   0.375826 0.212114 0.697102 -0.153426
C62   C     C_R   0.625782 0.794759 0.306001 -0.129868
C63   C     C_R   0.624346 0.211254 0.303115 -0.158422
C64   C     C_R   0.176992 0.715132 0.301626 -0.142719
C65   C     C_R   0.821940 0.710356 0.696376 -0.149661
C66   C     C_R   0.179294 0.294910 0.306109 -0.146222
C67   C     C_R   0.376609 0.783672 0.698738 -0.155322
C68   C     C_R   0.820546 0.295195 0.693697 -0.146112
C69   C     C_R   0.322354 0.211871 0.697090 -0.147596
C70   C     C_R   0.679221 0.794615 0.305924 -0.141132
C71   C     C_R   0.677856 0.210994 0.303193 -0.147898
C72   C     C_R   0.123559 0.715219 0.301661 -0.155755
C73   C     C_R   0.762620 0.722626 0.631775 -0.150207
C74   C     C_R   0.238040 0.279952 0.369520 -0.152715
C75   C     C_R   0.370598 0.773438 0.633390 -0.141482
C76   C     C_R   0.761834 0.280159 0.630313 -0.154751
C77   C     C_R   0.262901 0.223532 0.632266 -0.152860
C78   C     C_R   0.738015 0.779869 0.369446 -0.154952
C79   C     C_R   0.737233 0.222973 0.367921 -0.151103
C80   C     C_R   0.129508 0.725894 0.366873 -0.140317
C81   C     C_R   0.755911 0.736933 0.565904 0.071670
C82   C     C_R   0.244377 0.264180 0.434669 0.071654
C83   C     C_R   0.310677 0.761171 0.566626 0.083573
C84   C     C_R   0.755549 0.264263 0.565225 0.071443
C85   C     C_R   0.256049 0.237377 0.566156 0.071605
C86   C     C_R   0.744353 0.764131 0.434609 0.071344
C87   C     C_R   0.743992 0.237084 0.433898 0.071159
C88   C     C_R   0.189358 0.738560 0.433474 0.084173
C89   C     C_R   0.139980 0.749957 0.500062 0.781196
C90   C     C_R   0.859983 0.250038 0.499866 0.777495
C91   C     C_R   0.860059 0.749952 0.500014 0.785264
C92   C     C_R   0.140007 0.250041 0.500113 0.776546
C93   C     C_R   0.639911 0.249912 0.499930 0.785369
C94   C     C_R   0.360023 0.750041 0.499951 0.780784
C95   C     C_R   0.360068 0.249952 0.500033 0.784243
C96   C     C_R   0.639977 0.750058 0.500055 0.777701
C97   C     C_R   0.810304 0.736912 0.565882 0.078133
C98   C     C_R   0.190024 0.264367 0.434783 0.069092
C99   C     C_R   0.256304 0.761165 0.566676 0.073137
C100  C     C_R   0.809905 0.264454 0.565121 0.068851
C101  C     C_R   0.310428 0.237356 0.566106 0.078070
C102  C     C_R   0.689979 0.764272 0.434683 0.068920
C103  C     C_R   0.689603 0.237050 0.433932 0.078116
C104  C     C_R   0.243717 0.738642 0.433395 0.073659
C105  C     C_R   0.696090 0.750251 0.500142 -0.167575
C106  C     C_R   0.304027 0.250103 0.500084 -0.158286
C107  C     C_R   0.303941 0.750069 0.499932 -0.153850
C108  C     C_R   0.695948 0.250027 0.499872 -0.159621
C109  C     C_R   0.196141 0.250333 0.500240 -0.166210
C110  C     C_R   0.803997 0.750036 0.500027 -0.159486
C111  C     C_R   0.803835 0.250302 0.499718 -0.167522
C112  C     C_R   0.196062 0.749866 0.500094 -0.154099
C113  C     C_R   0.115003 0.946320 0.555558 -0.148528
C114  C     C_R   0.884898 0.053699 0.443708 -0.145953
C115  C     C_R   0.884698 0.946459 0.443156 -0.150977
C116  C     C_R   0.115025 0.053551 0.555492 -0.147547
C117  C     C_R   0.615579 0.446352 0.558598 -0.149655
C118  C     C_R   0.384533 0.553662 0.441908 -0.148296
C119  C     C_R   0.384410 0.446413 0.441496 -0.151230
C120  C     C_R   0.615434 0.553601 0.558116 -0.146432
C121  C     C_R   0.171051 0.973171 0.582424 -0.122319
C122  C     C_R   0.828645 0.026875 0.415775 -0.119097
C123  C     C_R   0.828489 0.973408 0.415293 -0.143806
C124  C     C_R   0.171057 0.026642 0.582384 -0.120773
C125  C     C_R   0.671943 0.473254 0.587254 -0.143211
C126  C     C_R   0.328157 0.526816 0.413249 -0.120319
C127  C     C_R   0.328049 0.473343 0.412875 -0.142805
C128  C     C_R   0.671820 0.526726 0.586852 -0.119917
C129  C     C_R   0.057191 0.027170 0.527015 0.072009
C130  C     C_R   0.942710 0.972826 0.472498 0.075295
C131  C     C_R   0.942775 0.027236 0.472634 0.072341
C132  C     C_R   0.057173 0.972762 0.527034 0.072281
C133  C     C_R   0.557405 0.527182 0.528323 0.072126
C134  C     C_R   0.442532 0.472802 0.471581 0.075030
C135  C     C_R   0.442561 0.527214 0.471669 0.072612
C136  C     C_R   0.557445 0.472771 0.528456 0.074837
C137  C     C_R   0.000025 0.053990 0.499980 -0.154222
C138  C     C_R   0.999965 0.946005 0.499937 -0.154609
C139  C     C_R   0.499980 0.553986 0.499970 -0.155003
C140  C     C_R   0.499989 0.445999 0.500018 -0.155372
C141  C     C_R   0.999964 0.889924 0.499972 0.789454
C142  C     C_R   0.000046 0.110075 0.500028 0.788915
C143  C     C_R   0.499992 0.389922 0.500003 0.790854
C144  C     C_R   0.499985 0.610074 0.499980 0.789421
C145  C     C_R   1.000000 0.609970 0.500026 0.786652
C146  C     C_R   0.000006 0.389965 0.499943 0.797466
C147  C     C_R   0.500062 0.109985 0.499853 0.785323
C148  C     C_R   0.499924 0.889973 0.500245 0.791037
C149  C     C_R   0.926993 0.553180 0.537587 -0.372065
C150  C     C_R   0.073653 0.446204 0.463661 -0.395348
C151  C     C_R   0.072966 0.553190 0.462359 -0.375160
C152  C     C_R   0.926337 0.446186 0.536178 -0.394101
C153  C     C_R   0.428000 0.053700 0.538783 -0.370129
C154  C     C_R   0.572948 0.945985 0.462989 -0.393375
C155  C     C_R   0.572641 0.052980 0.461802 -0.373892
C156  C     C_R   0.427657 0.946558 0.538531 -0.372733
C157  C     C_R   0.890098 0.526226 0.554280 0.472593
C158  C     C_R   0.112455 0.472654 0.449134 0.455407
C159  C     C_R   0.109801 0.526264 0.445471 0.473476
C160  C     C_R   0.887494 0.472621 0.550658 0.453152
C161  C     C_R   0.392200 0.027003 0.557147 0.463230
C162  C     C_R   0.611823 0.972299 0.448477 0.453576
C163  C     C_R   0.609341 0.025910 0.444878 0.472770
C164  C     C_R   0.392084 0.973383 0.557146 0.462117
C165  C     C_R   0.962767 0.472734 0.517347 0.023799
C166  C     C_R   0.037107 0.527008 0.482306 0.016459
C167  C     C_R   0.037213 0.472737 0.482517 0.023860
C168  C     C_R   0.962874 0.527009 0.517627 0.015058
C169  C     C_R   0.463489 0.972890 0.518636 0.013019
C170  C     C_R   0.536892 0.026920 0.481998 0.014783
C171  C     C_R   0.536814 0.972643 0.482173 0.025988
C172  C     C_R   0.463668 0.027223 0.518726 0.014954
C173  C     C_R   0.999997 0.446012 0.499931 -0.059266
C174  C     C_R   0.000008 0.553847 0.500008 -0.060450
C175  C     C_R   0.499885 0.946026 0.500102 -0.056888
C176  C     C_R   0.500146 0.053884 0.500080 -0.058090
C177  C     C_3   0.806344 0.227520 0.025058 -0.318574
C178  C     C_3   0.233844 0.800506 0.974975 -0.324259
C179  C     C_3   0.210517 0.208235 0.974785 -0.313310
C180  C     C_3   0.790664 0.789095 0.025998 -0.306695
C181  C     C_3   0.271691 0.702834 0.024963 -0.316791
C182  C     C_3   0.693436 0.272631 0.974836 -0.309657
C183  C     C_3   0.704977 0.711336 0.974121 -0.314682
C184  C     C_3   0.290434 0.290140 0.025384 -0.305471
H1    H     H_    0.784525 0.952710 0.392699 0.147901
H2    H     H_    0.214709 0.047421 0.603669 0.146760
H3    H     H_    0.214709 0.952353 0.603745 0.146442
H4    H     H_    0.784923 0.047734 0.393863 0.146681
H5    H     H_    0.284023 0.452622 0.389837 0.147674
H6    H     H_    0.715653 0.547553 0.609393 0.145415
H7    H     H_    0.715982 0.452515 0.610344 0.147082
H8    H     H_    0.284315 0.547658 0.390747 0.145385
H9    H     H_    0.117789 0.904743 0.557904 0.129219
H10   H     H_    0.882180 0.095281 0.441594 0.129297
H11   H     H_    0.881861 0.904882 0.440635 0.129259
H12   H     H_    0.117827 0.095128 0.557788 0.129499
H13   H     H_    0.618352 0.404768 0.561025 0.128712
H14   H     H_    0.381838 0.595248 0.439813 0.127286
H15   H     H_    0.381645 0.404830 0.439101 0.128332
H16   H     H_    0.618127 0.595186 0.560191 0.128275
H17   H     H_    0.926976 0.594688 0.540817 0.172631
H18   H     H_    0.071768 0.404815 0.458828 0.162054
H19   H     H_    0.073081 0.594700 0.459420 0.171522
H20   H     H_    0.928272 0.404802 0.541064 0.162580
H21   H     H_    0.427230 0.095235 0.540731 0.174012
H22   H     H_    0.570906 0.904599 0.458070 0.162826
H23   H     H_    0.572839 0.094493 0.458787 0.172237
H24   H     H_    0.426528 0.905029 0.540031 0.172704
H25   H     H_    0.158676 0.696948 0.952926 0.150531
H26   H     H_    0.768431 0.339509 0.045631 0.157859
H27   H     H_    0.804291 0.667305 0.047229 0.153945
H28   H     H_    0.187933 0.329508 0.953501 0.154642
H29   H     H_    0.730972 0.160643 0.954332 0.157305
H30   H     H_    0.346876 0.806498 0.047918 0.152973
H31   H     H_    0.313261 0.169048 0.046642 0.154398
H32   H     H_    0.691052 0.832955 0.952588 0.154853
H33   H     H_    0.852977 0.209590 0.046493 0.157217
H34   H     H_    0.217647 0.840224 0.953626 0.156140
H35   H     H_    0.177172 0.175126 0.953267 0.158659
H36   H     H_    0.825940 0.820801 0.048726 0.156849
H37   H     H_    0.288525 0.663182 0.046184 0.158710
H38   H     H_    0.646658 0.290319 0.953236 0.157451
H39   H     H_    0.668928 0.680199 0.952161 0.160855
H40   H     H_    0.324164 0.322983 0.047013 0.158263
H41   H     H_    0.675266 0.806498 0.256670 0.144565
H42   H     H_    0.326791 0.201802 0.747215 0.149468
H43   H     H_    0.077453 0.705855 0.251326 0.129875
H44   H     H_    0.673501 0.200740 0.253164 0.143990
H45   H     H_    0.175355 0.306885 0.256896 0.141128
H46   H     H_    0.826239 0.699875 0.746293 0.146291
H47   H     H_    0.824451 0.307254 0.742869 0.141571
H48   H     H_    0.422807 0.792533 0.749243 0.130985
H49   H     H_    0.912687 0.720682 0.634448 0.129296
H50   H     H_    0.088225 0.282601 0.367456 0.130237
H51   H     H_    0.223327 0.776171 0.636109 0.139977
H52   H     H_    0.911676 0.282740 0.632437 0.130607
H53   H     H_    0.412918 0.221519 0.634878 0.129410
H54   H     H_    0.588108 0.782267 0.367198 0.131486
H55   H     H_    0.587168 0.221044 0.365238 0.129260
H56   H     H_    0.276720 0.723597 0.364005 0.139171
H57   H     H_    0.921357 0.700257 0.746402 0.129347
H58   H     H_    0.080428 0.307370 0.257180 0.132684
H59   H     H_    0.327757 0.793095 0.749204 0.143203
H60   H     H_    0.919409 0.307635 0.742653 0.132391
H61   H     H_    0.421818 0.202170 0.747152 0.128975
H62   H     H_    0.580264 0.806739 0.256804 0.134952
H63   H     H_    0.578381 0.201193 0.253035 0.129573
H64   H     H_    0.172418 0.705812 0.251203 0.141630
H65   H     H_    0.722367 0.720437 0.634337 0.140561
H66   H     H_    0.278316 0.281788 0.366955 0.137670
H67   H     H_    0.413495 0.775820 0.636160 0.131693
H68   H     H_    0.721545 0.282006 0.632857 0.138129
H69   H     H_    0.222686 0.221304 0.634890 0.141344
H70   H     H_    0.778308 0.781764 0.366917 0.137934
H71   H     H_    0.777477 0.220787 0.365340 0.140688
H72   H     H_    0.086656 0.723440 0.364198 0.130484
O1    O     O_3   0.000000 0.750000 0.500000 -0.487337
O2    O     O_3   0.000000 0.250000 0.500000 -0.483625
O3    O     O_3   0.500000 0.250000 0.500000 -0.487123
O4    O     O_3   0.500000 0.750000 0.500000 -0.485608
O5    O     O_R   0.887450 0.719640 0.335600 -0.631597
O6    O     O_R   0.112550 0.280360 0.664400 -0.631460
O7    O     O_R   0.112550 0.719640 0.664400 -0.628929
O8    O     O_R   0.887450 0.280360 0.335600 -0.635194
O9    O     O_R   0.387450 0.219640 0.335600 -0.630038
O10   O     O_R   0.612550 0.780360 0.664400 -0.633084
O11   O     O_R   0.612550 0.219640 0.664400 -0.634548
O12   O     O_R   0.387450 0.780360 0.335600 -0.628103
O13   O     O_R   0.094250 0.780350 0.456890 -0.639895
O14   O     O_R   0.905750 0.219650 0.543110 -0.632264
O15   O     O_R   0.905750 0.780350 0.543110 -0.645014
O16   O     O_R   0.094250 0.219650 0.456890 -0.631536
O17   O     O_R   0.594250 0.280350 0.456890 -0.644860
O18   O     O_R   0.405750 0.719650 0.543110 -0.641071
O19   O     O_R   0.405750 0.280350 0.543110 -0.645301
O20   O     O_R   0.594250 0.719650 0.456890 -0.632190
O21   O     O_R   0.008810 0.865800 0.456890 -0.632722
O22   O     O_R   0.991190 0.134200 0.543110 -0.635715
O23   O     O_R   0.991190 0.865800 0.543110 -0.636934
O24   O     O_R   0.008810 0.134200 0.456890 -0.632835
O25   O     O_R   0.508810 0.365800 0.456890 -0.635573
O26   O     O_R   0.491190 0.634200 0.543110 -0.633694
O27   O     O_R   0.491190 0.365800 0.543110 -0.634353
O28   O     O_R   0.508810 0.634200 0.456890 -0.635379
O29   O     O_R   0.948090 0.634190 0.456900 -0.637141
O30   O     O_R   0.051910 0.365810 0.543100 -0.643017
O31   O     O_R   0.051910 0.634190 0.543100 -0.635834
O32   O     O_R   0.948090 0.365810 0.456900 -0.644211
O33   O     O_R   0.448090 0.134190 0.456900 -0.634578
O34   O     O_R   0.551910 0.865810 0.543100 -0.647463
O35   O     O_R   0.551910 0.134190 0.543100 -0.638648
O36   O     O_R   0.448090 0.865810 0.456900 -0.631863
O37   O     O_R   0.137350 0.719630 0.543100 -0.636208
O38   O     O_R   0.862650 0.280370 0.456900 -0.653885
O39   O     O_R   0.862650 0.719630 0.456900 -0.632196
O40   O     O_R   0.137350 0.280370 0.543100 -0.653964
O41   O     O_R   0.637350 0.219630 0.543100 -0.632727
O42   O     O_R   0.362650 0.780370 0.456900 -0.635718
O43   O     O_R   0.362650 0.219630 0.456900 -0.631430
O44   O     O_R   0.637350 0.780370 0.543100 -0.653164
O45   O     O_R   0.948170 0.780360 0.335600 -0.637720
O46   O     O_R   0.051830 0.219640 0.664400 -0.637766
O47   O     O_R   0.051830 0.780360 0.664400 -0.640628
O48   O     O_R   0.948170 0.219640 0.335600 -0.634235
O49   O     O_R   0.448170 0.280360 0.335600 -0.639405
O50   O     O_R   0.551830 0.719640 0.664400 -0.637618
O51   O     O_R   0.551830 0.280360 0.664400 -0.635923
O52   O     O_R   0.448170 0.719640 0.335600 -0.639992
Zn1   Zn    Zn3+2 0.074160 0.706620 0.561580 0.968193
Zn2   Zn    Zn3+2 0.925840 0.293380 0.438420 0.951552
Zn3   Zn    Zn3+2 0.925840 0.706620 0.438420 0.967953
Zn4   Zn    Zn3+2 0.074160 0.293380 0.561580 0.953621
Zn5   Zn    Zn3+2 0.574160 0.206620 0.561580 0.965257
Zn6   Zn    Zn3+2 0.425840 0.793380 0.438420 0.972684
Zn7   Zn    Zn3+2 0.425840 0.206620 0.438420 0.970606
Zn8   Zn    Zn3+2 0.574160 0.793380 0.561580 0.949432
Zn9   Zn    Zn3+2 0.012590 0.793370 0.438410 0.963560
Zn10  Zn    Zn3+2 0.987410 0.206630 0.561590 0.965990
Zn11  Zn    Zn3+2 0.987410 0.793370 0.561590 0.956396
Zn12  Zn    Zn3+2 0.012590 0.206630 0.438410 0.970208
Zn13  Zn    Zn3+2 0.512590 0.293370 0.438410 0.958283
Zn14  Zn    Zn3+2 0.487410 0.706630 0.561590 0.962731
Zn15  Zn    Zn3+2 0.487410 0.293370 0.561590 0.960633
Zn16  Zn    Zn3+2 0.512590 0.706630 0.438410 0.964400
O53   O     O_3   0.147139 0.552192 0.429795 -0.576004
C185  C     C_3   0.107824 0.575047 0.358768 0.119826
H73   H     H_    0.089191 0.612462 0.362796 0.125695
H74   H     H_    0.067057 0.549837 0.317737 0.124178
C186  C     C_3   0.147148 0.584784 0.329454 -0.796328
H75   H     H_    0.165233 0.547694 0.323793 0.252571
H76   H     H_    0.117242 0.603482 0.274063 0.196401
H77   H     H_    0.188089 0.610194 0.368290 0.264170
O54   O     O_3   0.851002 0.447328 0.568601 -0.595893
C187  C     C_3   0.813678 0.408027 0.516614 0.125031
H78   H     H_    0.842105 0.372135 0.531887 0.143942
H79   H     H_    0.794931 0.419270 0.458651 0.146615
C188  C     C_3   0.756995 0.396859 0.518237 -0.792880
H80   H     H_    0.726815 0.431774 0.501722 0.261989
H81   H     H_    0.728053 0.365248 0.478837 0.215089
H82   H     H_    0.773639 0.385135 0.575038 0.255762
O55   O     O_3   0.852975 0.552210 0.570199 -0.577187
C189  C     C_3   0.892325 0.572565 0.642865 0.123106
H83   H     H_    0.912036 0.610264 0.641745 0.127419
H84   H     H_    0.932406 0.546288 0.682496 0.124521
C190  C     C_3   0.852572 0.580644 0.671976 -0.794561
H85   H     H_    0.834224 0.543053 0.675672 0.252504
H86   H     H_    0.882221 0.598176 0.728207 0.195956
H87   H     H_    0.811780 0.606446 0.634031 0.265704
O56   O     O_3   0.148996 0.447356 0.431230 -0.595102
C191  C     C_3   0.186258 0.407997 0.483148 0.124999
H88   H     H_    0.157801 0.372127 0.467751 0.143511
H89   H     H_    0.204951 0.419188 0.541117 0.147268
C192  C     C_3   0.242989 0.396805 0.481612 -0.792029
H90   H     H_    0.273186 0.431701 0.498216 0.262273
H91   H     H_    0.271896 0.365171 0.520987 0.215070
H92   H     H_    0.226401 0.385102 0.424817 0.255481
O57   O     O_3   0.646564 0.051762 0.429016 -0.577264
C193  C     C_3   0.607239 0.072669 0.356694 0.121571
H93   H     H_    0.587625 0.110269 0.358403 0.126915
H94   H     H_    0.567111 0.046564 0.316713 0.125251
C194  C     C_3   0.646968 0.081237 0.327657 -0.794124
H95   H     H_    0.665409 0.043803 0.323573 0.252630
H96   H     H_    0.617272 0.099026 0.271605 0.196098
H97   H     H_    0.687698 0.107004 0.365857 0.265468
O58   O     O_3   0.354457 0.947589 0.572507 -0.568256
C195  C     C_3   0.393603 0.923810 0.642888 0.105039
H98   H     H_    0.434496 0.948628 0.684598 0.106385
H99   H     H_    0.412063 0.886629 0.637878 0.131004
C196  C     C_3   0.354216 0.913203 0.671904 -0.797011
H100  H     H_    0.313392 0.887859 0.632583 0.267027
H101  H     H_    0.384157 0.894144 0.727025 0.201068
H102  H     H_    0.335887 0.949918 0.678112 0.241153
O59   O     O_3   0.354804 0.053051 0.572603 -0.568415
C197  C     C_3   0.393985 0.074217 0.644779 0.108107
H103  H     H_    0.413672 0.111691 0.642849 0.131143
H104  H     H_    0.434091 0.048220 0.685088 0.104172
C198  C     C_3   0.354079 0.083191 0.673504 -0.795072
H105  H     H_    0.335455 0.045957 0.677721 0.241464
H106  H     H_    0.383698 0.101110 0.729475 0.198448
H107  H     H_    0.313413 0.108930 0.635010 0.268675
O60   O     O_3   0.648425 0.946874 0.430764 -0.595296
C199  C     C_3   0.685498 0.907495 0.482757 0.125595
H108  H     H_    0.657002 0.871626 0.467076 0.144029
H109  H     H_    0.703838 0.918613 0.540640 0.146324
C200  C     C_3   0.742566 0.896366 0.481862 -0.794237
H110  H     H_    0.772826 0.931255 0.498886 0.261496
H111  H     H_    0.771278 0.864674 0.521232 0.215144
H112  H     H_    0.726368 0.884781 0.425168 0.255754
O61   O     O_3   0.695035 0.196667 0.054228 -0.644876
C201  C     C_3   0.633908 0.177866 0.997117 0.068469
H113  H     H_    0.632933 0.135986 0.006544 0.162127
H114  H     H_    0.621129 0.181987 0.939808 0.119825
C202  C     C_3   0.583742 0.204791 0.001417 -0.326691
H115  H     H_    0.594223 0.197747 0.056930 0.223913
H116  H     H_    0.585506 0.246957 0.994427 0.222222
C203  C     C_3   0.516984 0.185169 0.941346 -0.992500
H117  H     H_    0.505360 0.192361 0.885372 0.260276
H118  H     H_    0.481612 0.205623 0.945465 0.271371
H119  H     H_    0.513596 0.143251 0.948353 0.263362
O62   O     O_3   0.317309 0.714275 0.947182 -0.641384
C204  C     C_3   0.382057 0.704341 0.004728 0.084049
H120  H     H_    0.393683 0.665302 0.995472 0.168144
H121  H     H_    0.393600 0.704005 0.061701 0.124945
C205  C     C_3   0.424164 0.743582 0.001138 -0.352722
H122  H     H_    0.416806 0.740184 0.946718 0.228053
H123  H     H_    0.410655 0.783174 0.005730 0.217702
C206  C     C_3   0.494409 0.735052 0.063602 -0.961082
H124  H     H_    0.502895 0.738599 0.118593 0.267410
H125  H     H_    0.523527 0.764509 0.060149 0.267363
H126  H     H_    0.509716 0.696295 0.058688 0.270098
O63   O     O_3   0.322566 0.242138 0.947887 -0.642350
C207  C     C_3   0.388377 0.238971 0.006204 0.056820
H127  H     H_    0.407565 0.204014 0.996952 0.158069
H128  H     H_    0.399813 0.235183 0.062928 0.125133
C208  C     C_3   0.422392 0.286250 0.004186 -0.326628
H129  H     H_    0.416742 0.287076 0.950585 0.230793
H130  H     H_    0.400571 0.321721 0.008112 0.224001
C209  C     C_3   0.493131 0.285643 0.068254 -0.967215
H131  H     H_    0.499768 0.287723 0.122343 0.268415
H132  H     H_    0.516909 0.319345 0.063638 0.273080
H133  H     H_    0.515863 0.249971 0.066685 0.262217
O64   O     O_3   0.675129 0.763665 0.050625 -0.642965
C210  C     C_3   0.609902 0.770137 0.991863 0.069401
H134  H     H_    0.582331 0.741843 0.999877 0.168374
H135  H     H_    0.597567 0.762925 0.935247 0.125693
C211  C     C_3   0.588832 0.824460 0.994963 -0.329798
H136  H     H_    0.595893 0.830058 0.048946 0.225765
H137  H     H_    0.618435 0.853185 0.991018 0.218335
C212  C     C_3   0.518978 0.833632 0.931616 -0.994775
H138  H     H_    0.511573 0.830508 0.877187 0.257816
H139  H     H_    0.504807 0.872865 0.936542 0.268013
H140  H     H_    0.488266 0.805120 0.933826 0.268767
O65   O     O_3   0.188113 0.788784 0.052762 -0.638990
C213  C     C_3   0.125644 0.803182 0.993941 0.070593
H141  H     H_    0.098169 0.769044 0.959482 0.134712
H142  H     H_    0.126127 0.832972 0.958238 0.140752
C214  C     C_3   0.092412 0.825799 0.026197 -0.307139
H143  H     H_    0.091172 0.796403 0.061608 0.229195
H144  H     H_    0.119653 0.859645 0.061397 0.234983
C215  C     C_3   0.024624 0.842565 0.964778 -0.966964
H145  H     H_    0.024998 0.872128 0.928929 0.270446
H146  H     H_    0.001953 0.859452 0.989815 0.270601
H147  H     H_    0.996020 0.808986 0.930140 0.263537
O66   O     O_3   0.804149 0.303477 0.944906 -0.641004
C216  C     C_3   0.865337 0.321407 0.002315 0.072003
H148  H     H_    0.898250 0.288392 0.032129 0.135687
H149  H     H_    0.863640 0.345580 0.042549 0.135916
C217  C     C_3   0.891078 0.354243 0.968398 -0.310044
H150  H     H_    0.892769 0.330812 0.927736 0.227005
H151  H     H_    0.858640 0.387383 0.938359 0.227405
C218  C     C_3   0.957630 0.374507 0.027992 -0.985803
H152  H     H_    0.956385 0.399801 0.067436 0.266303
H153  H     H_    0.975473 0.397186 0.001388 0.268500
H154  H     H_    0.990960 0.342105 0.059195 0.268062
O67   O     O_3   0.821146 0.736330 0.950254 -0.643758
C219  C     C_3   0.886032 0.728687 0.009532 0.068264
H155  H     H_    0.904130 0.696161 0.994339 0.156903
H156  H     H_    0.894511 0.717710 0.063222 0.123621
C220  C     C_3   0.924670 0.776832 0.020610 -0.331821
H157  H     H_    0.924661 0.782554 0.971066 0.229060
H158  H     H_    0.902679 0.811234 0.026557 0.221907
C221  C     C_3   0.993088 0.772110 0.089892 -0.969460
H159  H     H_    0.993885 0.765777 0.139867 0.265279
H160  H     H_    0.019250 0.808252 0.098130 0.275047
H161  H     H_    0.017513 0.739573 0.083837 0.258973
O68   O     O_3   0.179236 0.255779 0.053520 -0.640099
C222  C     C_3   0.113730 0.258921 0.995259 0.074226
H162  H     H_    0.098301 0.225799 0.956369 0.138942
H163  H     H_    0.102985 0.295603 0.964049 0.135551
C223  C     C_3   0.075932 0.257594 0.028063 -0.307301
H164  H     H_    0.087581 0.221751 0.061059 0.233926
H165  H     H_    0.089420 0.291096 0.065719 0.220784
C224  C     C_3   0.004438 0.259153 0.967164 -0.978984
H166  H     H_    0.991323 0.295588 0.935129 0.265097
H167  H     H_    0.978361 0.256888 0.992650 0.269660
H168  H     H_    0.989889 0.226001 0.928765 0.271896

loop_
_geom_bond_atom_site_label_1
_geom_bond_atom_site_label_2
_ccdc_geom_bond_type
C220  H157  S    
C5    O9    A    
C126  C127  A    
C34   C42   S    
C136  C140  A    
C161  C164  A    
C79   C87   A    
C152  C165  A    
C147  O35   A    
C214  H143  S    
C6    O50   A    
C224  H168  S    
C135  C139  A    
O57   C193  S    
C38   C181  S    
O49   Zn13  S    
C65   H46   S    
C86   C110  A    
C203  H118  S    
C200  H110  S    
C155  H23   S    
C221  H160  S    
C92   C109  S    
C62   C70   A    
C193  C194  S    
C51   H51   S    
C120  C133  A    
C114  C131  A    
C206  H126  S    
C13   H29   S    
C198  H107  S    
C20   C44   T    
C53   H53   S    
O19   Zn15  S    
C185  H73   S    
C80   H72   S    
C190  H85   S    
C73   H65   S    
C68   H47   S    
C196  H102  S    
O12   Zn6   S    
C204  H121  S    
O24   Zn12  S    
C98   C109  A    
C29   C177  S    
C26   C34   S    
C82   C98   A    
C76   C84   A    
C90   O14   A    
C36   C179  S    
C73   C81   A    
C192  H91   S    
C56   H56   S    
C192  H90   S    
C210  C211  S    
C194  H97   S    
C166  C174  A    
C115  C123  A    
C27   O64   S    
C181  H37   S    
O22   Zn10  S    
C84   C100  A    
C54   H54   S    
C15   H31   S    
O2    Zn2   S    
O6    Zn4   S    
C189  H83   S    
C170  C176  A    
C27   C35   S    
O54   C187  S    
C138  C141  S    
C90   O38   A    
C153  C161  A    
O26   Zn14  S    
C123  H1    S    
C121  H3    S    
C122  H4    S    
C66   H45   S    
C79   H71   S    
C185  C186  S    
C77   H69   S    
C125  H7    S    
C2    O46   A    
C190  H87   S    
C126  H8    S    
C15   C39   S    
C16   C40   S    
C87   C103  A    
C26   C182  S    
C222  H163  S    
C63   C71   A    
C133  C139  A    
C157  C160  A    
C32   C40   S    
C158  C159  A    
C10   C182  S    
C36   C44   S    
C142  O24   A    
C130  C138  A    
C154  C162  A    
C188  H82   S    
C52   H52   S    
C39   C47   S    
C147  O33   A    
C214  C215  S    
C40   C48   S    
C8    O52   A    
C114  H10   S    
C179  H35   S    
C223  H164  S    
O5    Zn3   S    
C177  H33   S    
C189  C190  S    
O1    Zn9   S    
C63   H63   S    
C202  H115  S    
C143  O27   A    
O35   Zn5   S    
C217  H150  S    
C11   C35   S    
C130  C131  A    
C80   C88   A    
O58   C195  S    
C124  H2    S    
C187  C188  S    
C2    O6    A    
O44   Zn8   S    
O45   Zn9   S    
O61   C201  S    
C3    C17   S    
C128  H6    S    
C216  H148  S    
C156  H24   S    
C27   C183  S    
C49   C97   A    
O13   Zn9   S    
C100  C111  A    
O68   C222  S    
O15   Zn11  S    
C32   C180  S    
C34   C177  S    
O11   Zn5   S    
C104  C107  A    
C200  H111  S    
C148  O36   A    
C137  C142  S    
O56   C191  S    
C15   C179  S    
C69   C77   A    
C155  C170  A    
C140  C143  S    
C5    O49   A    
C69   H42   S    
C71   C79   A    
C204  H120  S    
C212  H138  S    
C168  C174  A    
C220  H158  S    
C30   C38   S    
O46   Zn10  S    
C162  O60   S    
C207  H127  S    
O36   Zn6   S    
C18   C42   T    
C170  C171  A    
C37   C182  S    
C66   C74   A    
C49   C57   A    
C16   H32   S    
C58   H58   S    
C197  H103  S    
C52   C60   A    
C59   C67   A    
C53   C61   A    
C10   H26   S    
C222  H162  S    
C219  H155  S    
C72   H43   S    
C64   H64   S    
C6    O10   A    
C8    C22   S    
C56   C64   A    
C163  O57   S    
C35   C43   S    
C39   C184  S    
O52   Zn16  S    
C40   C183  S    
C16   C27   S    
C77   C85   A    
C26   O61   S    
C186  H76   S    
C191  H88   S    
C31   O68   S    
C90   C111  S    
O1    Zn11  S    
C88   C104  A    
O2    Zn12  S    
C21   C45   T    
C202  C203  S    
C81   C105  A    
C94   C107  S    
C143  O25   A    
C119  C134  A    
C23   C47   T    
C24   C48   T    
C217  C218  S    
O25   Zn13  S    
C205  H122  S    
C50   C98   A    
O8    Zn2   S    
C187  H78   S    
O29   Zn3   S    
C155  C163  A    
O30   Zn4   S    
C52   C100  A    
O66   C216  S    
C197  C198  S    
C151  C159  A    
C216  C217  S    
C7    O11   A    
C93   O17   A    
C95   C106  S    
C209  H133  S    
C5    C23   S    
C4    O8    A    
C148  O34   A    
C30   C178  S    
C129  C137  A    
C94   O42   A    
C193  H94   S    
O50   Zn14  S    
C195  C196  S    
C28   C36   S    
C14   C178  S    
C9    C30   S    
C153  H21   S    
C11   C32   S    
C12   C31   S    
O64   C210  S    
C96   O20   A    
C13   C26   S    
C67   C75   A    
O7    Zn1   S    
C86   C102  A    
C204  C205  S    
C212  H140  S    
C101  C106  A    
O20   Zn16  S    
C207  C208  S    
O3    Zn15  S    
O62   C204  S    
C223  C224  S    
C134  C135  A    
C142  O22   A    
C224  H167  S    
O17   Zn13  S    
C28   C184  S    
C4    C18   S    
C72   C80   A    
O4    Zn14  S    
C221  H161  S    
C219  C220  S    
C153  C172  A    
C169  C172  A    
C154  C171  A    
C206  H125  S    
C198  H106  S    
C9    C181  S    
C218  H152  S    
C116  H12   S    
C113  C121  A    
C145  C174  S    
C183  H39   S    
O4    Zn6   S    
C185  H74   S    
O16   Zn12  S    
C117  C125  A    
C16   C180  S    
C25   C33   S    
C32   O67   S    
C196  H101  S    
C115  C130  A    
C119  C127  A    
O34   Zn8   S    
C96   C105  S    
C199  H108  S    
C113  C132  A    
C71   H44   S    
C205  C206  S    
C93   O41   A    
O42   Zn6   S    
C213  H141  S    
C85   C101  A    
C210  H135  S    
C194  H96   S    
C89   C112  S    
C127  H5    S    
C89   O37   A    
C119  H15   S    
C91   C110  S    
C209  H131  S    
C85   C109  A    
C93   C108  S    
C92   O16   A    
C189  H84   S    
C62   H62   S    
C87   C111  A    
C211  H136  S    
C132  C138  A    
O14   Zn10  S    
C159  O53   S    
C95   O19   A    
C215  H145  S    
C14   H30   S    
C102  C105  A    
C4    O48   A    
C50   H50   S    
C195  H98   S    
C57   H57   S    
C53   C101  A    
C203  H119  S    
C190  H86   S    
C145  O29   A    
C167  C173  A    
C129  C132  A    
O37   Zn1   S    
O67   C219  S    
O33   Zn7   S    
C83   C99   A    
C9    C33   S    
O3    Zn13  S    
C74   C82   A    
C75   H67   S    
C188  H81   S    
C30   O65   S    
C19   C43   T    
C158  O56   S    
C214  H144  S    
C188  H80   S    
C60   H60   S    
C1    C19   S    
C2    C20   S    
C50   C58   A    
C203  H117  S    
C56   C104  A    
O4    Zn16  S    
C221  H159  S    
C54   C62   A    
C199  C200  S    
C160  O54   S    
C7    C21   S    
C182  H38   S    
C31   C179  S    
O9    Zn7   S    
C217  H151  S    
O10   Zn8   S    
C131  C137  A    
O4    Zn8   S    
C169  C175  A    
C191  H89   S    
C141  O23   A    
O3    Zn5   S    
C22   C46   T    
C67   H48   S    
C144  O26   A    
C68   C76   A    
C150  H18   S    
C118  H14   S    
C192  H92   S    
C162  C163  A    
C115  H11   S    
C150  C158  A    
C147  C176  S    
C113  H9    S    
C178  H34   S    
C209  H132  S    
C57   C65   A    
C94   O18   A    
C201  H114  S    
C120  C128  A    
C201  H113  S    
C92   O40   A    
C191  C192  S    
C215  H147  S    
C33   C41   S    
C207  H128  S    
O47   Zn11  S    
C10   C29   S    
C75   C83   A    
C15   C28   S    
C12   C184  S    
C13   C37   S    
C13   C177  S    
C150  C167  A    
C91   O39   A    
C165  C173  A    
C120  H16   S    
C187  H79   S    
C14   C25   S    
O53   C185  S    
C145  O31   A    
C197  H104  S    
C146  O32   A    
C141  O21   A    
C88   C112  A    
C84   C108  A    
C222  C223  S    
C60   C68   A    
C219  H156  S    
C29   C37   S    
O63   C207  S    
C152  H20   S    
C117  C136  A    
C149  C157  A    
C118  C135  A    
C218  H153  S    
C152  C160  A    
C70   C78   A    
C186  H75   S    
C70   H41   S    
C8    O12   A    
C201  C202  S    
O55   C189  S    
C202  H116  S    
C81   C97   A    
C89   O13   A    
O28   Zn16  S    
C205  H123  S    
C91   O15   A    
C134  C140  A    
C223  H165  S    
O48   Zn12  S    
C25   O62   S    
C14   C38   S    
C61   H61   S    
C146  C173  S    
C55   C103  A    
C156  C169  A    
C65   C73   A    
C59   H59   S    
C96   O44   A    
C164  O58   S    
C216  H149  S    
O1    Zn1   S    
C121  C124  A    
C49   H49   S    
C11   H27   S    
C157  O55   S    
C58   C66   A    
C116  C124  A    
C116  C129  A    
C83   C107  A    
O40   Zn4   S    
C144  O28   A    
C125  C128  A    
C206  H124  S    
C161  O59   S    
C103  C108  A    
C12   C36   S    
O21   Zn9   S    
C29   O66   S    
O43   Zn7   S    
C200  H112  S    
C78   C86   A    
C82   C106  A    
O2    Zn10  S    
C54   C102  A    
C1    O45   A    
O32   Zn2   S    
C74   H66   S    
C25   C181  S    
C215  H146  S    
C195  H99   S    
C212  H139  S    
C51   C99   A    
C220  C221  S    
O39   Zn3   S    
C148  C175  S    
C38   C46   S    
C78   H70   S    
C11   C183  S    
C12   H28   S    
C9    H25   S    
C210  H134  S    
C224  H166  S    
C171  C175  A    
O31   Zn1   S    
C55   C63   A    
C146  O30   A    
C133  C136  A    
C139  C144  S    
C208  H129  S    
O38   Zn2   S    
C208  H130  S    
C208  C209  S    
C10   C34   S    
O51   Zn15  S    
C198  H105  S    
C154  H22   S    
C1    O5    A    
C165  C168  A    
C3    O7    A    
C166  C167  A    
C186  H77   S    
C180  H36   S    
C51   C59   A    
C149  H17   S    
C117  H13   S    
C196  H100  S    
C61   C69   A    
C35   C180  S    
C184  H40   S    
C199  H109  S    
C33   C178  S    
C95   O43   A    
C151  H19   S    
C28   O63   S    
C213  H142  S    
C3    O47   A    
C6    C24   S    
O18   Zn14  S    
C151  C166  A    
C194  H95   S    
C218  H154  S    
O1    Zn3   S    
O41   Zn5   S    
O2    Zn4   S    
O59   C197  S    
C97   C110  A    
O60   C199  S    
C211  H137  S    
C99   C112  A    
O23   Zn11  S    
C31   C39   S    
C64   C72   A    
C193  H93   S    
C17   C41   T    
C213  C214  S    
O27   Zn15  S    
C7    O51   A    
C114  C122  A    
C172  C176  A    
C156  C164  A    
O65   C213  S    
C149  C168  A    
C118  C126  A    
C55   H55   S    
C122  C123  A    
C37   C45   S    
O3    Zn7   S    
C211  C212  S    
C76   H68   S    
