data_mof_unit_34929.cif
_audit_creation_date              2012-12-10T17:19:57-0500
_audit_creation_method            fapswitch 2.2
_symmetry_space_group_name_H-M    P1
_symmetry_Int_Tables_number       1
_space_group_crystal_system       triclinic
_cell_length_a                    9.607272
_cell_length_b                    10.776483
_cell_length_c                    15.425726
_cell_angle_alpha                 87.348544
_cell_angle_beta                  73.914083
_cell_angle_gamma                 90.066357
_cell_volume                      1532.73078

loop_
_atom_site_label
_atom_site_type_symbol
_atom_type_description
_atom_site_fract_x
_atom_site_fract_y
_atom_site_fract_z
_atom_type_partial_charge
C1    C     C_R   0.998362 0.262542 0.503338 0.962260
C2    C     C_R   0.242667 0.384180 0.057342 -0.291862
C3    C     C_R   0.335720 0.444284 0.100073 -0.046503
C4    C     C_R   0.917636 0.501407 0.672576 0.968199
C5    C     C_R   0.094358 0.367015 0.102986 0.688468
C6    C     C_R   0.038356 0.409123 0.189772 0.543855
C7    C     C_R   0.273669 0.494678 0.184174 -0.143508
C8    C     C_R   0.037720 0.115449 0.661896 0.592276
C9    C     C_R   0.063872 0.043382 0.733071 -0.193651
C10   C     C_R   0.070160 0.914857 0.729746 0.606410
C11   C     C_R   0.049007 0.857119 0.655447 -0.243152
C12   C     C_R   0.681651 0.464431 0.914621 -0.062904
C13   C     C_R   0.023925 0.927793 0.581805 -0.059963
C14   C     C_R   0.020353 0.059084 0.583986 -0.123345
C15   C     C_R   0.994692 0.128210 0.509356 -0.201944
C16   C     C_R   0.999474 0.737120 0.501377 0.751458
C17   C     C_R   0.964605 0.068332 0.437886 0.614388
C18   C     C_R   0.964814 0.940330 0.437394 -0.232811
C19   C     C_R   0.997139 0.870374 0.507317 -0.076893
C20   C     C_R   0.698917 0.662958 0.378366 -0.164133
C21   C     C_R   0.653830 0.743053 0.318801 -0.229971
C22   C     C_R   0.510104 0.744544 0.319382 0.648866
C23   C     C_R   0.782678 0.494333 0.962282 -0.266277
C24   C     C_R   0.410674 0.665623 0.379400 -0.167625
C25   C     C_R   0.452008 0.580986 0.440563 0.041077
C26   C     C_R   0.601638 0.580334 0.440296 0.210089
C27   C     C_R   0.548590 0.423570 0.556864 -0.044927
C28   C     C_R   0.082103 0.496300 0.327923 0.850023
C29   C     C_R   0.400809 0.423483 0.556905 0.760391
C30   C     C_R   0.872244 0.499504 0.772442 -0.433941
C31   C     C_R   0.128673 0.471818 0.231269 -0.288558
C32   C     C_R   0.928169 0.519594 0.915315 0.648005
C33   C     C_R   0.973612 0.517820 0.821419 0.568839
C34   C     C_R   0.537479 0.429136 0.963611 -0.139005
C35   C     C_R   0.725423 0.479428 0.819636 0.610774
C36   C     C_R   0.487066 0.454726 0.056486 -0.090801
C37   C     C_R   0.591230 0.482881 0.102819 0.646846
C38   C     C_R   0.736629 0.499856 0.056072 -0.029364
C39   C     C_R   0.445256 0.361576 0.924790 0.639589
C40   C     C_R   0.300361 0.339824 0.970963 0.661111
Cu1   Cu    Cu3+1 0.140660 0.499990 0.500010 1.077219
Cu2   Cu    Cu3+1 0.859340 0.500010 0.499990 1.055248
F1    F     F_    0.003750 0.306008 0.065207 -0.552122
F2    F     F_    0.115717 0.540590 0.778695 -0.530678
F3    F     F_    0.623533 0.488870 0.773779 -0.575082
F4    F     F_    0.558483 0.480641 0.194263 -0.651810
F5    F     F_    0.497913 0.302802 0.846626 -0.554684
F6    F     F_    0.938145 0.134560 0.367137 -0.610431
F7    F     F_    0.023183 0.239116 0.672613 -0.626552
F8    F     F_    0.093579 0.845481 0.799845 -0.576096
F9    F     F_    0.466049 0.823402 0.261443 -0.629142
F10   F     F_    0.306316 0.344915 0.615655 -0.562899
F11   F     F_    0.897383 0.384108 0.234177 -0.564665
F12   F     F_    0.217048 0.274631 0.930278 -0.526120
F13   F     F_    0.026493 0.547789 0.960162 -0.603461
H1    H     H_    0.813067 0.519692 0.093887 0.222659
H2    H     H_    0.077034 0.087659 0.791967 0.242103
H3    H     H_    0.050346 0.756817 0.657146 0.188498
H4    H     H_    0.942814 0.895355 0.381036 0.161443
H5    H     H_    0.583010 0.360892 0.603501 0.207507
H6    H     H_    0.811118 0.670186 0.373015 0.200930
H7    H     H_    0.731276 0.804900 0.272170 0.198165
H8    H     H_    0.336099 0.553512 0.214460 0.239489
H9    H     H_    0.303134 0.675377 0.374696 0.200561
N1    N     N_R   0.648320 0.501210 0.499140 -0.230229
N2    N     N_R   0.352470 0.501290 0.499110 -0.249296
O1    O     O_R   0.118810 0.319640 0.500010 -0.517111
O2    O     O_R   0.881240 0.319660 0.500000 -0.552917
O3    O     O_R   0.055570 0.499980 0.629840 -0.469559
O4    O     O_R   0.818000 0.500010 0.629830 -0.530867
O5    O     O_R   0.118760 0.680340 0.500000 -0.612047
O6    O     O_R   0.881190 0.680360 0.499990 -0.606102
O7    O     O_R   0.182000 0.499990 0.370170 -0.604778
O8    O     O_R   0.944430 0.500020 0.370160 -0.538957

loop_
_geom_bond_atom_site_label_1
_geom_bond_atom_site_label_2
_ccdc_geom_bond_type
C27   C29   A    
Cu1   Cu2   S    
C16   O6    A    
C17   F6    S    
C28   O8    A    
C4    O4    A    
Cu1   O1    S    
C12   C23   A    
C30   C35   A    
Cu1   O3    S    
C36   C37   A    
C3    C7    A    
C27   H5    S    
C5    C6    A    
Cu2   O4    S    
C1    O2    A    
C18   C19   A    
C20   H6    S    
C8    C9    A    
Cu2   N1    S    
C1    C15   S    
C11   H3    S    
C9    C10   A    
C32   F13   S    
C34   C36   A    
Cu1   O5    S    
C6    C31   A    
C5    F1    S    
C24   H9    S    
C21   C22   A    
Cu2   O2    S    
C33   F2    S    
C16   O5    A    
C28   O7    A    
C4    O3    A    
Cu2   O8    S    
C7    C31   A    
C13   C19   A    
C34   C39   A    
C24   C25   A    
C39   C40   A    
C25   C26   A    
C37   C38   A    
C27   N1    A    
Cu2   O6    S    
C17   C18   A    
C12   C35   A    
C7    H8    S    
C21   H7    S    
C40   F12   S    
C22   C24   A    
C2    C5    A    
C6    F11   S    
C12   C34   A    
C10   F8    S    
C39   F5    S    
C15   C17   A    
C8    C14   A    
C30   C33   A    
C26   N1    A    
C28   C31   S    
C25   N2    A    
Cu1   N2    S    
C23   C38   A    
C23   C32   A    
C2    C3    A    
C32   C33   A    
C11   C13   A    
C20   C26   A    
C3    C36   A    
C16   C19   S    
C1    O1    A    
C9    H2    S    
C10   C11   A    
Cu1   O7    S    
C29   N2    A    
C2    C40   A    
C18   H4    S    
C38   H1    S    
C20   C21   A    
C14   C15   A    
C37   F4    S    
C13   C14   A    
C8    F7    S    
C4    C30   S    
C22   F9    S    
C29   F10   S    
C35   F3    S    
