data_mof_unit_43324.cif
_audit_creation_date              2012-12-11T17:07:26-0500
_audit_creation_method            fapswitch 2.2
_symmetry_space_group_name_H-M    P1
_symmetry_Int_Tables_number       1
_space_group_crystal_system       triclinic
_cell_length_a                    6.969235
_cell_length_b                    14.558739
_cell_length_c                    16.054391
_cell_angle_alpha                 89.994278
_cell_angle_beta                  90.092819
_cell_angle_gamma                 90.19209
_cell_volume                      1628.91976395

loop_
_atom_site_label
_atom_site_type_symbol
_atom_type_description
_atom_site_fract_x
_atom_site_fract_y
_atom_site_fract_z
_atom_type_partial_charge
O1    O     O_R   0.505720 0.583900 0.413310 -0.548202
O2    O     O_R   0.175940 0.594920 0.586080 -0.525601
O3    O     O_R   0.005640 0.416100 0.586690 -0.544747
C1    C     C_R   0.344899 0.617516 0.614363 0.720712
O4    O     O_R   0.176000 0.594930 0.413930 -0.539806
O5    O     O_R   0.005700 0.416110 0.413310 -0.515136
C2    C     C_R   0.344752 0.616027 0.384775 0.766048
O6    O     O_R   0.505660 0.583890 0.586690 -0.560076
O7    O     O_3   0.339200 0.441330 0.500000 -0.344694
V1    V     V_3+5 0.064350 0.510880 0.500000 1.586311
O8    O     O_R   0.675980 0.405080 0.413920 -0.508600
C3    C     C_R   0.844179 0.383694 0.384799 0.964535
O9    O     O_R   0.675920 0.405070 0.586070 -0.528686
C4    C     C_R   0.845094 0.382543 0.614172 0.791826
V2    V     V_3+5 0.564340 0.489120 0.500000 1.596789
O10   O     O_3   0.839360 0.558670 0.500000 -0.395841
H1    H     H_    0.665339 0.070118 0.515095 0.192810
C5    C     C_R   0.978184 0.433641 0.778103 -0.275364
C6    C     C_R   0.038384 0.461787 0.856871 -0.198852
C7    C     C_R   0.044512 0.399283 0.922198 0.703906
C8    C     C_R   0.991865 0.308034 0.908954 -0.240048
C9    C     C_R   0.932311 0.277164 0.829304 -0.006903
C10   C     C_R   0.922958 0.341469 0.762583 0.063491
C11   C     C_R   0.879528 0.184293 0.816000 -0.095154
C12   C     C_R   0.817620 0.155478 0.735868 0.008961
C13   C     C_R   0.808181 0.219532 0.668556 -0.074648
C14   C     C_R   0.857486 0.313417 0.682531 -0.143901
C15   C     C_R   0.768978 0.062349 0.720940 -0.162472
C16   C     C_R   0.712343 0.032678 0.642356 -0.214607
C17   C     C_R   0.706046 0.094182 0.576469 -0.087412
C18   C     C_R   0.754668 0.186204 0.588439 0.645878
H2    H     H_    0.975909 0.485186 0.729750 0.124307
H3    H     H_    0.079642 0.532662 0.867210 0.145835
H4    H     H_    0.997415 0.262294 0.961999 0.123586
H5    H     H_    0.775883 0.010911 0.769450 0.121513
H6    H     H_    0.675771 0.961177 0.632298 0.169718
C19   C     C_R   0.735719 0.254133 0.183537 -0.167574
C20   C     C_R   0.881911 0.187797 0.181618 -0.256268
C21   C     C_R   0.008643 0.184310 0.250237 0.607149
C22   C     C_R   0.988238 0.245074 0.317912 0.603798
C23   C     C_R   0.854379 0.316252 0.315772 -0.254301
C24   C     C_R   0.720116 0.315752 0.250869 -0.051606
C25   C     C_3   0.512012 0.293376 0.260642 0.375293
C26   C     C_3   0.525066 0.235264 0.182786 0.506526
H7    H     H_    0.452463 0.264471 0.127118 0.072284
C27   C     C_R   0.495625 0.679011 0.745495 0.002104
C28   C     C_R   0.352376 0.684169 0.684303 -0.213183
C29   C     C_R   0.210015 0.752164 0.694536 0.600459
C30   C     C_R   0.220137 0.815355 0.761012 -0.255177
H8    H     H_    0.112331 0.868551 0.765218 0.148700
C31   C     C_R   0.375131 0.814249 0.817640 -0.177821
C32   C     C_R   0.507874 0.742895 0.809859 0.105805
C33   C     C_3   0.721469 0.746258 0.805601 -0.367539
C34   C     C_3   0.708034 0.675920 0.735899 -0.344021
H9    H     H_    0.789943 0.718861 0.862993 0.170697
H10   H     H_    0.775957 0.814231 0.784528 0.175680
H11   H     H_    0.766893 0.608001 0.753544 0.158158
H12   H     H_    0.754559 0.702360 0.674326 0.238219
C35   C     C_R   0.482233 0.673186 0.249254 0.137161
C36   C     C_R   0.351454 0.681763 0.314775 -0.192971
C37   C     C_R   0.214538 0.752096 0.308359 -0.188744
H13   H     H_    0.105194 0.758868 0.355840 0.163552
C38   C     C_R   0.225195 0.818544 0.244594 0.270723
C39   C     C_R   0.372524 0.814469 0.183200 -0.152145
C40   C     C_R   0.490982 0.736787 0.184930 -0.046874
C41   C     C_3   0.702621 0.725757 0.175811 -0.431468
C42   C     C_3   0.693250 0.657054 0.247432 0.529351
H14   H     H_    0.781815 0.789403 0.191459 0.178263
H15   H     H_    0.741695 0.694247 0.115115 0.213744
H16   H     H_    0.769120 0.679393 0.304975 0.037317
O11   O     O_R   0.229140 0.916090 0.913340 -0.551396
O12   O     O_R   0.558860 0.905090 0.086080 -0.535545
O13   O     O_R   0.729100 0.083920 0.086690 -0.506806
C43   C     C_R   0.389317 0.883968 0.115666 0.825417
O14   O     O_R   0.558860 0.905090 0.913930 -0.553579
O15   O     O_R   0.729100 0.083920 0.913310 -0.548179
C44   C     C_R   0.389575 0.883547 0.884925 0.698323
O16   O     O_R   0.229140 0.916080 0.086720 -0.519373
O17   O     O_3   0.395570 0.058660 0.000020 -0.359636
V3    V     V_3+5 0.670450 0.989140 0.000000 1.509247
O18   O     O_R   0.058810 0.094980 0.913910 -0.550036
C45   C     C_R   0.889957 0.116850 0.885511 0.649239
O19   O     O_R   0.058810 0.094980 0.086060 -0.509182
C46   C     C_R   0.890226 0.117615 0.114413 0.866339
V4    V     V_3+5 0.170450 0.010950 0.999970 1.553032
O20   O     O_3   0.895460 0.941370 0.999990 -0.384862
F1    F     F_    0.078040 0.227059 0.390847 -0.581209
Br1   Br    Br    0.349395 0.400624 0.249728 -0.456618
Br2   Br    Br    0.470961 0.221300 0.361977 -0.243512
F2    F     F_    0.482108 0.143554 0.196221 -0.584278
F3    F     F_    0.070369 0.762828 0.636472 -0.703779
Br3   Br    Br    0.046695 0.917938 0.252578 -0.427597
F4    F     F_    0.735837 0.568506 0.222303 -0.630688
F5    F     F_    0.101541 0.427174 0.998971 -0.649759
F6    F     F_    0.754479 0.240483 0.519995 -0.666759
F7    F     F_    0.140026 0.116525 0.255876 -0.549571

loop_
_geom_bond_atom_site_label_1
_geom_bond_atom_site_label_2
_ccdc_geom_bond_type
C41   H14   S    
C23   C24   A    
C6    C7    A    
O11   C44   A    
C1    O6    A    
O18   C45   A    
C33   C34   S    
C26   H7    S    
C12   C15   A    
C16   H6    S    
C13   C14   A    
C16   C17   A    
C25   Br1   S    
C22   F1    S    
C15   C16   A    
O5    C3    A    
C17   C18   A    
C41   H15   S    
V2    O10   S    
C27   C32   A    
C5    C6    A    
C19   C24   A    
C37   C38   A    
C11   C45   S    
V3    O20   S    
C35   C42   S    
O11   V4    S    
O8    V2    S    
O19   C46   A    
C15   H5    S    
C30   C31   A    
C29   F3    S    
C38   Br3   S    
O1    V2    S    
C10   C14   A    
C4    C14   S    
O7    V1    S    
O13   C46   A    
C41   C42   S    
C35   C36   A    
C8    C9    A    
H1    C17   S    
C33   H9    S    
C5    C10   A    
C11   C12   A    
O12   C43   A    
C6    H3    S    
O15   C45   A    
C21   C22   A    
O4    C2    A    
C8    H4    S    
C12   C13   A    
V4    O20   S    
C31   C32   A    
C36   C37   A    
O2    C1    A    
C25   C26   S    
C31   C44   S    
C19   C20   A    
C28   C29   A    
C27   C34   S    
C25   Br2   S    
O14   C44   A    
O3    C4    A    
O16   V4    S    
C22   C23   A    
O19   V4    S    
C30   H8    S    
O6    V2    S    
O9    V2    S    
C9    C11   A    
C5    H2    S    
C24   C25   S    
O2    V1    S    
C2    C36   S    
O17   V4    S    
C26   F2    S    
C32   C33   S    
C3    C23   S    
C34   H12   S    
C33   H10   S    
C7    F5    S    
C27   C28   A    
C29   C30   A    
C20   C46   S    
O1    C2    A    
O15   V3    S    
C38   C39   A    
O5    V1    S    
O8    C3    A    
C42   H16   S    
C39   C40   A    
C19   C26   S    
O7    V2    S    
O4    V1    S    
O12   V3    S    
O3    V1    S    
V1    O10   S    
C35   C40   A    
C20   C21   A    
C18   F6    S    
O13   V3    S    
C37   H13   S    
C21   F7    S    
O17   V3    S    
C13   C18   A    
O14   V3    S    
C7    C8    A    
C40   C41   S    
C43   O16   A    
C42   F4    S    
C39   C43   S    
C9    C10   A    
O9    C4    A    
C34   H11   S    
O18   V4    S    
C1    C28   S    
