data_mof_unit_29933.cif
_audit_creation_date              2012-12-11T14:56:29-0500
_audit_creation_method            fapswitch 2.2
_symmetry_space_group_name_H-M    P1
_symmetry_Int_Tables_number       1
_space_group_crystal_system       triclinic
_cell_length_a                    10.580001
_cell_length_b                    10.661451
_cell_length_c                    17.127619
_cell_angle_alpha                 80.465646
_cell_angle_beta                  89.567507
_cell_angle_gamma                 119.383989
_cell_volume                      1651.27243472

loop_
_atom_site_label
_atom_site_type_symbol
_atom_type_description
_atom_site_fract_x
_atom_site_fract_y
_atom_site_fract_z
_atom_type_partial_charge
C1    C     C_R   0.222424 0.854144 0.128711 0.564854
C2    C     C_R   0.795151 0.390907 0.263071 -0.087731
C3    C     C_R   0.796719 0.417296 0.180249 -0.026647
C4    C     C_R   0.662602 0.369714 0.148257 0.021602
C5    C     C_1   0.669031 0.848413 0.205361 -0.026435
C6    C     C_1   0.680870 0.839254 0.274705 -0.032151
C7    C     C_1   0.180691 0.825983 0.211212 0.001123
C8    C     C_1   0.151637 0.820180 0.279786 0.005287
C9    C     C_1   0.644074 0.322809 0.778052 -0.003044
C10   C     C_1   0.650947 0.344553 0.707504 0.038194
C11   C     C_R   0.637977 0.715837 0.806605 0.250305
C12   C     C_R   0.638552 0.286257 0.083850 0.592380
C13   C     C_R   0.610171 0.696394 0.729098 0.153620
C14   C     C_R   0.662663 0.820273 0.666313 0.026952
C15   C     C_R   0.736973 0.962905 0.681041 0.123867
C16   C     C_R   0.763144 0.982663 0.759747 -0.082177
C17   C     C_R   0.699420 0.857112 0.822556 0.002209
C18   C     C_R   0.090322 0.903000 0.793196 -0.133145
C19   C     C_R   0.066498 0.900276 0.714481 -0.073303
C20   C     C_R   0.052892 0.779861 0.682174 -0.017754
C21   C     C_R   0.059904 0.663312 0.732485 0.269024
C22   C     C_R   0.096829 0.676070 0.811102 0.231017
C23   C     C_R   0.640502 0.858201 0.125356 0.556969
C24   C     C_R   0.124167 0.804078 0.838241 -0.029684
C25   C     C_R   0.686844 0.810078 0.357125 0.546804
C26   C     C_R   0.690268 0.396470 0.393296 0.587541
C27   C     C_R   0.104206 0.810543 0.359220 0.565934
C28   C     C_R   0.676754 0.798730 0.586114 0.611232
C29   C     C_R   0.678451 0.382078 0.624417 0.575619
C30   C     C_R   0.030329 0.775905 0.597275 0.562250
C31   C     C_R   0.211613 0.855833 0.904111 0.566388
C32   C     C_R   0.637438 0.284197 0.860854 0.549359
C33   C     C_R   0.648824 0.867946 0.899170 0.598452
C34   C     C_R   0.542053 0.356020 0.193289 -0.029323
C35   C     C_R   0.547506 0.355521 0.275653 0.178296
C36   C     C_R   0.671460 0.366389 0.311550 0.008730
Cr1   Cr    Cr6+3 0.402240 0.783890 0.019450 1.123619
Cr2   Cr    Cr6+3 0.382360 0.097900 0.991800 1.108561
Cr3   Cr    Cr6+3 0.715380 0.118170 0.988700 1.100448
Cr4   Cr    Cr6+3 0.936650 0.882420 0.465510 1.053057
Cr5   Cr    Cr6+3 0.605770 0.565620 0.493360 1.111032
Cr6   Cr    Cr6+3 0.921340 0.550490 0.496380 1.103529
H1    H     H_    0.097578 0.994301 0.816858 0.231208
O1    O     O_R   0.521780 0.757110 0.108900 -0.477680
O2    O     O_R   0.513330 0.228330 0.898660 -0.484265
O3    O     O_R   0.739230 0.266130 0.888050 -0.482962
O4    O     O_R   0.712580 0.991850 0.918770 -0.483922
O5    O     O_3   0.499990 0.999980 0.999980 -0.303454
O6    O     O_R   0.083770 0.911170 0.376030 -0.497398
O7    O     O_R   0.808770 0.880340 0.383890 -0.503833
O8    O     O_R   0.584340 0.689460 0.394160 -0.486428
O9    O     O_R   0.614320 0.443940 0.423590 -0.433958
O10   O     O_R   0.805020 0.410040 0.421340 -0.519737
O11   O     O_R   0.049240 0.685450 0.403290 -0.466877
O12   O     O_R   0.275160 0.783810 0.101120 -0.484489
O13   O     O_R   0.077520 0.903010 0.551800 -0.529481
O14   O     O_R   0.802980 0.872780 0.546830 -0.511010
O15   O     O_R   0.578090 0.681300 0.569920 -0.495888
O16   O     O_R   0.608530 0.436370 0.586530 -0.461696
O17   O     O_R   0.798770 0.401880 0.597100 -0.496696
O18   O     O_R   0.043450 0.677890 0.566230 -0.423086
O19   O     O_3   0.821250 0.666180 0.485090 -0.319824
O20   O     O_R   0.237900 0.972600 0.090980 -0.511665
O21   O     O_R   0.511190 0.220540 0.061620 -0.474291
O22   O     O_R   0.736920 0.257720 0.063840 -0.499795
O23   O     O_R   0.710450 0.984050 0.081720 -0.504089
O24   O     O_R   0.524090 0.765520 0.933110 -0.432961
O25   O     O_R   0.277300 0.791600 0.938160 -0.479374
O26   O     O_R   0.240210 0.981010 0.915190 -0.506306
C37   C     C_2   0.410575 0.340955 0.155414 0.258912
H2    H     H_    0.302753 0.271560 0.187457 0.111159
O27   O     O_2   0.422294 0.409216 0.088486 -0.449129
C38   C     C_2   0.068201 0.032672 0.668364 0.260706
H3    H     H_    0.001679 0.025755 0.620350 0.177759
O28   O     O_2   0.146028 0.153802 0.684095 -0.471747
O29   O     O_3   0.033527 0.540382 0.702918 -0.666655
H4    H     H_    0.048359 0.471745 0.742918 0.383885
O30   O     O_3   0.107179 0.564184 0.858683 -0.663513
H5    H     H_    0.083185 0.562913 0.914909 0.367332
O31   O     O_3   0.432385 0.340359 0.322976 -0.666235
H6    H     H_    0.381713 0.384977 0.291205 0.329471
C39   C     C_2   0.918045 0.378982 0.298094 0.236265
H7    H     H_    0.895074 0.280068 0.339832 0.135906
O32   O     O_2   0.043272 0.480849 0.284131 -0.520864
C40   C     C_2   0.934827 0.484166 0.126516 0.286623
H8    H     H_    0.027192 0.473167 0.144728 0.158309
O33   O     O_2   0.946413 0.554303 0.060162 -0.508852
O34   O     O_3   0.595790 0.598715 0.869600 -0.633951
H9    H     H_    0.549780 0.505084 0.850368 0.377713
O35   O     O_3   0.532885 0.555415 0.715686 -0.690139
H10   H     H_    0.441427 0.544858 0.695152 0.371733
O36   O     O_3   0.784826 0.078211 0.616372 -0.691419
H11   H     H_    0.863437 0.169690 0.629550 0.340692
C41   C     C_2   0.856430 0.132892 0.775246 0.286693
H12   H     H_    0.842864 0.222899 0.745822 0.119461
O37   O     O_2   0.952614 0.157839 0.819418 -0.447016

loop_
_geom_bond_atom_site_label_1
_geom_bond_atom_site_label_2
_ccdc_geom_bond_type
C13   O35   S    
C3    C40   S    
Cr3   O22   S    
C38   H3    S    
C19   C20   A    
C27   O11   A    
C7    C8    T    
C20   C30   S    
C28   O14   A    
C21   O29   S    
C18   C24   A    
C23   O23   A    
Cr5   O15   S    
C18   C19   A    
Cr6   O10   S    
C5    C6    T    
C12   O21   A    
C6    C25   S    
Cr4   O6    S    
Cr1   O25   S    
C35   O31   S    
Cr4   O19   S    
C34   C35   A    
C32   O2    A    
C25   O7    A    
Cr2   O2    S    
C9    C32   S    
C15   O36   S    
C29   O16   A    
C16   C17   A    
Cr4   O13   S    
C37   H2    S    
C4    C12   S    
C9    C10   T    
C34   C37   S    
Cr5   O9    S    
Cr2   O5    S    
Cr2   O26   S    
C21   C22   A    
C38   O28   D    
C17   C33   S    
Cr5   O19   S    
C1    O20   A    
Cr2   O21   S    
C40   O33   D    
C31   O25   A    
C4    C34   A    
C15   C16   A    
C19   C38   S    
O29   H4    S    
C22   O30   S    
Cr6   O17   S    
O30   H5    S    
C40   H8    S    
C30   O13   A    
C23   O1    A    
C35   C36   A    
C25   O8    A    
C26   O9    A    
C5    C23   S    
C29   O17   A    
C11   O34   S    
C20   C21   A    
Cr1   O5    S    
C41   O37   D    
Cr6   O18   S    
Cr5   O16   S    
Cr3   O3    S    
C26   C36   S    
C39   O32   D    
C33   O4    A    
Cr3   O23   S    
C22   C24   A    
C2    C39   S    
C3    C4    A    
C26   O10   A    
C33   O24   A    
Cr3   O4    S    
Cr2   O20   S    
C2    C36   A    
Cr6   O19   S    
C11   C17   A    
Cr4   O14   S    
C1    C7    S    
C32   O3    A    
O31   H6    S    
C28   O15   A    
C12   O22   A    
C16   C41   S    
Cr1   O1    S    
C2    C3    A    
C1    O12   A    
C24   C31   S    
C18   H1    S    
Cr6   O11   S    
C11   C13   A    
C10   C29   S    
O35   H10   S    
Cr4   O7    S    
Cr1   O24   S    
O36   H11   S    
C41   H12   S    
Cr1   O12   S    
C31   O26   A    
O34   H9    S    
C39   H7    S    
C30   O18   A    
C8    C27   S    
C14   C15   A    
C37   O27   D    
C14   C28   S    
C13   C14   A    
Cr5   O8    S    
C27   O6    A    
Cr3   O5    S    
