data_mof_unit_54155.cif
_audit_creation_date              2012-12-10T17:34:22-0500
_audit_creation_method            fapswitch 2.2
_symmetry_space_group_name_H-M    P1
_symmetry_Int_Tables_number       1
_space_group_crystal_system       triclinic
_cell_length_a                    12.294285
_cell_length_b                    13.035984
_cell_length_c                    14.329615
_cell_angle_alpha                 80.458428
_cell_angle_beta                  100.544722
_cell_angle_gamma                 115.998333
_cell_volume                      2019.79062325

loop_
_atom_site_label
_atom_site_type_symbol
_atom_type_description
_atom_site_fract_x
_atom_site_fract_y
_atom_site_fract_z
_atom_type_partial_charge
C1    C     C_R   0.854938 0.286167 0.507317 0.833861
C2    C     C_1   0.001881 0.500749 0.229032 -0.147769
C3    C     C_R   0.274728 0.017351 0.377975 -0.153967
C4    C     C_R   0.227425 0.834750 0.471673 -0.047216
C5    C     C_R   0.816107 0.089306 0.575866 -0.181074
C6    C     C_R   0.736372 0.977932 0.602165 -0.104011
C7    C     C_R   0.612522 0.939698 0.570703 -0.146359
C8    C     C_R   0.566201 0.010650 0.506557 0.045048
C9    C     C_R   0.650639 0.119581 0.470144 0.020235
C10   C     C_R   0.439248 0.976191 0.475911 0.076872
C11   C     C_R   0.399479 0.049113 0.408132 0.099896
C12   C     C_R   0.999446 0.499846 0.668708 0.827210
C13   C     C_R   0.484528 0.148568 0.365339 -0.235171
C14   C     C_R   0.608604 0.179988 0.391191 0.246292
C15   C     C_R   0.350278 0.870188 0.508552 -0.209596
C16   C     C_R   0.188984 0.910280 0.409254 -0.172334
C17   C     C_R   0.773967 0.162704 0.513319 -0.084209
C18   C     C_R   0.369203 0.370322 0.670390 0.232228
C19   C     C_R   0.737987 0.603204 0.356987 0.143154
C20   C     C_R   0.626324 0.602168 0.315130 -0.236518
C21   C     C_R   0.529122 0.557974 0.368215 -0.149446
C22   C     C_R   0.546334 0.523903 0.466183 -0.016256
C23   C     C_R   0.145029 0.713593 0.488358 0.792017
C24   C     C_R   0.664526 0.533337 0.507087 0.181122
C25   C     C_R   0.450878 0.480934 0.524927 -0.114532
C26   C     C_R   0.471779 0.435244 0.620319 -0.039963
C27   C     C_R   0.594756 0.467448 0.662960 0.230293
C28   C     C_R   0.689956 0.529745 0.606452 0.194714
C29   C     C_R   0.336850 0.485739 0.493954 0.047456
C30   C     C_R   0.257804 0.374748 0.633923 0.030767
C31   C     C_R   0.001050 0.500790 0.331267 0.837476
C32   C     C_1   0.998642 0.499920 0.770929 -0.124346
C33   C     C_1   0.998706 0.500037 0.856371 0.060731
C34   C     C_1   0.999430 0.500215 0.957133 0.056757
C35   C     C_1   0.000350 0.500385 0.042709 0.042265
C36   C     C_1   0.001441 0.500599 0.143530 0.027838
Cu1   Cu    Cu3+1 0.098280 0.475420 0.520190 0.949420
Cu2   Cu    Cu3+1 0.901720 0.524580 0.479810 1.001057
H1    H     H_    0.093967 0.884117 0.380305 0.156352
H2    H     H_    0.321362 0.533545 0.427975 0.128805
H3    H     H_    0.810694 0.635174 0.312983 0.129539
H4    H     H_    0.442086 0.551783 0.331188 0.137743
H5    H     H_    0.614067 0.631830 0.240455 0.159230
H6    H     H_    0.454437 0.198046 0.306628 0.182695
H7    H     H_    0.244039 0.073010 0.326417 0.145298
H8    H     H_    0.373799 0.810742 0.559988 0.148264
H9    H     H_    0.910277 0.119542 0.608117 0.165461
H10   H     H_    0.556417 0.853600 0.597383 0.139795
H11   H     H_    0.769951 0.922351 0.650955 0.181509
H12   H     H_    0.180849 0.330740 0.674143 0.153219
N1    N     N_R   0.246290 0.438200 0.550780 -0.199361
N2    N     N_R   0.754310 0.561180 0.449760 -0.176449
O1    O     O_R   0.972510 0.318130 0.525390 -0.581439
O2    O     O_R   0.806530 0.359650 0.491290 -0.547785
O3    O     O_R   0.083010 0.479240 0.641000 -0.577000
O4    O     O_R   0.917030 0.520750 0.606900 -0.521279
O5    O     O_R   0.193470 0.640350 0.508710 -0.581947
O6    O     O_R   0.027490 0.681870 0.474610 -0.566111
O7    O     O_R   0.082970 0.479250 0.393100 -0.571618
O8    O     O_R   0.916990 0.520760 0.359000 -0.555867
Br1   Br    Br    0.640652 0.459311 0.799324 -0.373190
Br2   Br    Br    0.365658 0.262261 0.780075 -0.426547
Br3   Br    Br    0.823772 0.664076 0.656355 -0.458724
Br4   Br    Br    0.710127 0.282856 0.298002 -0.504537

loop_
_geom_bond_atom_site_label_1
_geom_bond_atom_site_label_2
_ccdc_geom_bond_type
C31   O8    A    
C4    C16   A    
C23   O6    A    
C9    C14   A    
C24   N2    A    
Cu1   Cu2   S    
C18   C30   A    
Cu2   O4    S    
C11   C13   A    
C1    C17   S    
C19   C20   A    
C18   C26   A    
Cu2   N2    S    
C30   N1    A    
Cu1   O1    S    
C32   C33   T    
C4    C15   A    
C33   C34   S    
C30   H12   S    
C14   Br4   S    
C7    C8    A    
C12   O4    A    
C13   C14   A    
C7    H10   S    
C5    H9    S    
C26   C27   A    
Cu1   O7    S    
C1    O2    A    
Cu2   O8    S    
C29   H2    S    
C9    C17   A    
C21   C22   A    
C6    C7    A    
C10   C15   A    
C6    H11   S    
C25   C29   A    
C5    C6    A    
Cu1   N1    S    
C22   C24   A    
C12   O3    A    
C3    C11   A    
C10   C11   A    
C16   H1    S    
C2    C36   T    
C21   H4    S    
Cu1   O3    S    
C28   Br3   S    
C24   C28   A    
C20   H5    S    
C5    C17   A    
C20   C21   A    
C22   C25   A    
C8    C9    A    
C8    C10   A    
C34   C35   T    
C29   N1    A    
C31   O7    A    
C27   C28   A    
C23   O5    A    
C4    C23   S    
C1    O1    A    
C18   Br2   S    
C27   Br1   S    
C15   H8    S    
C25   C26   A    
Cu2   O6    S    
Cu1   O5    S    
C19   N2    A    
C3    H7    S    
C13   H6    S    
C12   C32   S    
C3    C16   A    
C19   H3    S    
C2    C31   S    
C35   C36   S    
Cu2   O2    S    
